@<TRIPOS>MOLECULE
tmp/5qdnA00.pdb
 113 106 0 0 0
SMALL
GASTEIGER

@<TRIPOS>ATOM
      1  N        -35.6580   18.1750   -7.3470 N.3   105  ARG105     -0.1245
      2  CA       -35.3870   19.5940   -7.5620 C.3   105  ARG105      0.1563
      3  C        -35.7500   20.4350   -6.3460 C.2   105  ARG105      0.2260
      4  O        -35.0170   21.3720   -6.0000 O.2   105  ARG105     -0.2867
      5  CB       -36.1600   20.1020   -8.7820 C.3   105  ARG105      0.0307
      6  CG       -35.9610   21.5960   -9.1030 C.3   105  ARG105      0.0489
      7  CD       -34.7140   21.8440   -9.9480 C.3   105  ARG105      0.2205
      8  NE       -34.4200   23.2730  -10.0580 N.pl3 105  ARG105     -0.0865
      9  CZ       -35.1810   24.1540  -10.6990 C.cat 105  ARG105      0.5346
     10  NH1      -36.3070   23.7710  -11.2940 N.pl3 105  ARG105      0.1354
     11  NH2      -34.8280   25.4320  -10.7270 N.pl3 105  ARG105      0.1354
     12  N        -29.1200   32.2190   -2.5370 N.3   146  SER146     -0.1202
     13  CA       -29.9900   33.3810   -2.3980 C.3   146  SER146      0.2020
     14  C        -31.1840   32.9870   -1.5520 C.2   146  SER146      0.2619
     15  O        -31.5100   31.8010   -1.4260 O.2   146  SER146     -0.2717
     16  CB       -30.4760   33.9180   -3.7540 C.3   146  SER146      0.2103
     17  OG       -31.4610   33.0660   -4.2900 O.3   146  SER146     -0.2182
     18  N        -31.8550   34.0030   -1.0150 N.am  147  GLU147     -0.1965
     19  CA       -32.9650   33.8350   -0.0840 C.3   147  GLU147      0.1733
     20  C        -33.9680   34.9500   -0.3420 C.2   147  GLU147      0.2616
     21  O        -33.5770   36.1170   -0.4350 O.2   147  GLU147     -0.2715
     22  CB       -32.4470   33.8750    1.3640 C.3   147  GLU147      0.0429
     23  CG       -33.5010   33.7450    2.4270 C.3   147  GLU147      0.1163
     24  CD       -32.9040   33.5090    3.8050 C.2   147  GLU147      0.3649
     25  OE1      -33.0900   32.4070    4.3470 O.co2 147  GLU147     -0.2457
     26  OE2      -32.2550   34.4230    4.3510 O.co2 147  GLU147     -0.2457
     27  N        -35.2510   34.6100   -0.4660 N.am  148  ASP148     -0.1971
     28  CA       -36.3210   35.5920   -0.6690 C.3   148  ASP148      0.1709
     29  C        -37.3890   35.4160    0.4110 C.2   148  ASP148      0.2293
     30  O        -38.1510   34.4410    0.3840 O.2   148  ASP148     -0.2864
     31  CB       -36.9230   35.4390   -2.0630 C.3   148  ASP148      0.1436
     32  CG       -37.8470   36.5670   -2.4340 C.2   148  ASP148      0.3671
     33  OD1      -38.1270   37.4150   -1.5690 O.co2 148  ASP148     -0.2456
     34  OD2      -38.3110   36.5940   -3.5960 O.co2 148  ASP148     -0.2456
     35  N        -38.4440   31.4410    0.1150 N.3   155  VAL155     -0.1231
     36  CA       -37.8250   30.5850   -0.9120 C.3   155  VAL155      0.1692
     37  C        -36.3270   30.7930   -0.8970 C.2   155  VAL155      0.2592
     38  O        -35.8560   31.9290   -1.0090 O.2   155  VAL155     -0.2718
     39  CB       -38.3260   30.8880   -2.3380 C.3   155  VAL155      0.0266
     40  CG1      -37.8260   29.8450   -3.3020 C.3   155  VAL155      0.0020
     41  CG2      -39.7310   30.9330   -2.3570 C.3   155  VAL155      0.0020
     42  N        -35.5810   29.6970   -0.8930 N.am  156  ARG156     -0.1966
     43  CA       -34.1280   29.7190   -0.9680 C.3   156  ARG156      0.1729
     44  C        -33.6270   28.9200   -2.1550 C.2   156  ARG156      0.2616
     45  O        -34.1590   27.8520   -2.4870 O.2   156  ARG156     -0.2715
     46  CB       -33.5150   29.1660    0.3030 C.3   156  ARG156      0.0348
     47  CG       -34.0390   29.8050    1.5670 C.3   156  ARG156      0.0492
     48  CD       -33.4400   29.2310    2.8560 C.3   156  ARG156      0.2205
     49  NE       -33.9800   29.9400    4.0160 N.pl3 156  ARG156     -0.0865
     50  CZ       -35.0480   29.5660    4.7180 C.cat 156  ARG156      0.5346
     51  NH1      -35.6960   28.4230    4.4510 N.pl3 156  ARG156      0.1354
     52  NH2      -35.4370   30.2980    5.7280 N.pl3 156  ARG156      0.1354
     53  N        -32.5960   29.4560   -2.8130 N.am  157  GLN157     -0.1977
     54  CA       -31.8240   28.7220   -3.8020 C.3   157  GLN157      0.1601
     55  C        -30.5830   28.1900   -3.1280 C.2   157  GLN157      0.2287
     56  O        -29.8670   28.9490   -2.4640 O.2   157  GLN157     -0.2864
     57  CB       -31.4140   29.5930   -5.0050 C.3   157  GLN157      0.0394
     58  CG       -32.4990   30.1550   -5.8010 C.3   157  GLN157      0.0908
     59  CD       -31.9200   30.9370   -6.9940 C.2   157  GLN157      0.2608
     60  OE1      -31.0930   31.8480   -6.8230 O.2   157  GLN157     -0.2717
     61  NE2      -32.3120   30.5490   -8.1970 N.am  157  GLN157     -0.0878
     62  N        -28.7030   22.5970   -8.6170 N.3   170  GLU170     -0.1245
     63  CA       -29.4920   23.6190   -7.9540 C.3   170  GLU170      0.1567
     64  C        -30.7430   23.0070   -7.3050 C.2   170  GLU170      0.2260
     65  O        -31.5360   22.3410   -7.9710 O.2   170  GLU170     -0.2867
     66  CB       -29.8820   24.6820   -8.9640 C.3   170  GLU170      0.0388
     67  CG       -30.6760   25.8440   -8.3820 C.3   170  GLU170      0.1160
     68  CD       -31.1450   26.7920   -9.4730 C.2   170  GLU170      0.3649
     69  OE1      -30.4100   26.9650  -10.4730 O.co2 170  GLU170     -0.2457
     70  OE2      -32.2570   27.3320   -9.3510 O.co2 170  GLU170     -0.2457
     71  N        -34.1920   23.9790   -4.9130 N.3   172  LEU172     -0.1245
     72  CA       -35.0800   25.0110   -4.3760 C.3   172  LEU172      0.1561
     73  C        -35.7090   24.5850   -3.0380 C.2   172  LEU172      0.2260
     74  O        -36.3100   23.5060   -2.9390 O.2   172  LEU172     -0.2867
     75  CB       -36.1830   25.3240   -5.3810 C.3   172  LEU172      0.0270
     76  CG       -35.7080   25.7740   -6.7780 C.3   172  LEU172      0.0019
     77  CD1      -36.9150   26.0650   -7.6320 C.3   172  LEU172      0.0001
     78  CD2      -34.7970   27.0010   -6.6970 C.3   172  LEU172      0.0001
     79  N        -38.5550   25.5290   -0.3640 N.3   174  PHE174     -0.1241
     80  CA       -39.8290   26.2250   -0.1690 C.3   174  PHE174      0.1605
     81  C        -40.2800   26.0400    1.2850 C.2   174  PHE174      0.2264
     82  O        -40.6930   24.9420    1.6920 O.2   174  PHE174     -0.2867
     83  CB       -40.8950   25.7280   -1.1620 C.3   174  PHE174      0.0534
     84  CG       -40.6810   26.2080   -2.5830 C.ar  174  PHE174     -0.0203
     85  CD1      -41.1910   27.4390   -2.9800 C.ar  174  PHE174     -0.0042
     86  CD2      -39.9560   25.4680   -3.4990 C.ar  174  PHE174     -0.0042
     87  CE1      -40.9970   27.9040   -4.2740 C.ar  174  PHE174     -0.0003
     88  CE2      -39.7550   25.9440   -4.8170 C.ar  174  PHE174     -0.0003
     89  CZ       -40.2620   27.1540   -5.1740 C.ar  174  PHE174     -0.0000
     90  N        -46.8830   28.4660   -5.8590 N.3   197  LYS197     -0.1245
     91  CA       -45.4720   28.8410   -6.0530 C.3   197  LYS197      0.1561
     92  C        -44.5700   27.6280   -6.2170 C.2   197  LYS197      0.2260
     93  O        -43.6380   27.6460   -7.0330 O.2   197  LYS197     -0.2867
     94  CB       -44.9620   29.6900   -4.8790 C.3   197  LYS197      0.0271
     95  CG       -45.6760   31.0150   -4.7390 C.3   197  LYS197      0.0035
     96  CD       -45.4480   31.9510   -5.9350 C.3   197  LYS197      0.0206
     97  CE       -46.0750   33.3300   -5.6790 C.3   197  LYS197      0.1093
     98  NZ       -45.9740   34.2460   -6.8510 N.3   197  LYS197     -0.1314
     99  N        -45.2410   26.3670   -9.7830 N.3   200  GLU200     -0.1231
    100  CA       -44.6870   27.2300  -10.8150 C.3   200  GLU200      0.1699
    101  C        -43.1850   27.0610  -10.9840 C.2   200  GLU200      0.2592
    102  O        -42.6690   27.3240  -12.0710 O.2   200  GLU200     -0.2718
    103  CB       -45.0270   28.6770  -10.4950 C.3   200  GLU200      0.0402
    104  CG       -46.4740   29.0020  -10.6720 C.3   200  GLU200      0.1161
    105  CD       -46.7870   30.4290  -10.2750 C.2   200  GLU200      0.3649
    106  OE1      -45.8290   31.1730   -9.9380 O.co2 200  GLU200     -0.2457
    107  OE2      -47.9860   30.7990  -10.3060 O.co2 200  GLU200     -0.2457
    108  N        -42.4750   26.5950   -9.9470 N.am  201  SER201     -0.1952
    109  CA       -41.0270   26.3880   -9.9910 C.3   201  SER201      0.1924
    110  C        -40.5490   25.1900  -10.8160 C.2   201  SER201      0.2314
    111  O        -39.3300   25.0690  -11.0420 O.2   201  SER201     -0.2863
    112  CB       -40.4950   26.2050   -8.5560 C.3   201  SER201      0.2116
    113  OG       -40.7460   24.8820   -8.0640 O.3   201  SER201     -0.2180
@<TRIPOS>BOND
     1   102   101    2
     2    10     9    1
     3   111   110    2
     4   101   100    1
     5   101   108   am
     6   110   109    1
     7   100   103    1
     8   100    99    1
     9    11     9    1
    10     9     8    2
    11   104   103    1
    12   104   105    1
    13    69    68   ar
    14   107   105   ar
    15   105   106   ar
    16     8     7    1
    17   109   108    1
    18   109   112    1
    19     7     6    1
    20    68    70   ar
    21    68    67    1
    22     6     5    1
    23    66    67    1
    24    66    63    1
    25     5     2    1
    26    62    63    1
    27   112   113    1
    28    61    59   am
    29    65    64    2
    30    63    64    1
    31    77    76    1
    32     2     1    1
    33     2     3    1
    34    93    92    2
    35    59    60    2
    36    59    58    1
    37    98    97    1
    38    76    78    1
    39    76    75    1
    40     3     4    2
    41    92    91    1
    42    91    90    1
    43    91    94    1
    44    96    97    1
    45    96    95    1
    46    58    57    1
    47    75    72    1
    48    89    88   ar
    49    89    87   ar
    50    57    54    1
    51    71    72    1
    52    94    95    1
    53    88    86   ar
    54    72    73    1
    55    17    16    1
    56    87    85   ar
    57    54    55    1
    58    54    53    1
    59    16    13    1
    60    34    32   ar
    61    86    84   ar
    62    40    39    1
    63    55    56    2
    64    73    74    2
    65    85    84   ar
    66    53    44   am
    67    84    83    1
    68    12    13    1
    69    45    44    2
    70    32    31    1
    71    32    33   ar
    72    13    14    1
    73    41    39    1
    74    39    36    1
    75    44    43    1
    76    31    28    1
    77    14    15    2
    78    14    18   am
    79    83    80    1
    80    18    19    1
    81    38    37    2
    82    43    42    1
    83    43    46    1
    84    36    37    1
    85    36    35    1
    86    37    42   am
    87    28    27    1
    88    28    29    1
    89    27    20   am
    90    21    20    2
    91    79    80    1
    92    20    19    1
    93    80    81    1
    94    19    22    1
    95    46    47    1
    96    30    29    2
    97    81    82    2
    98    22    23    1
    99    47    48    1
   100    23    24    1
   101    48    49    1
   102    24    25   ar
   103    24    26   ar
   104    49    50    2
   105    51    50    1
   106    50    52    1
