@<TRIPOS>MOLECULE
tmp/5qdrA00.pdb
 102 94 0 0 0
SMALL
GASTEIGER

@<TRIPOS>ATOM
      1  N        -35.7280   18.3840   -7.3810 N.3   105  ARG105     -0.1245
      2  CA       -35.4520   19.7970   -7.5890 C.3   105  ARG105      0.1563
      3  C        -35.8020   20.6310   -6.3640 C.2   105  ARG105      0.2260
      4  O        -35.0480   21.5450   -6.0100 O.2   105  ARG105     -0.2867
      5  CB       -36.2290   20.3100   -8.8030 C.3   105  ARG105      0.0307
      6  CG       -36.0330   21.7950   -9.1250 C.3   105  ARG105      0.0489
      7  CD       -34.7820   22.0390   -9.9650 C.3   105  ARG105      0.2205
      8  NE       -34.4900   23.4670  -10.0700 N.pl3 105  ARG105     -0.0865
      9  CZ       -35.2480   24.3460  -10.7190 C.cat 105  ARG105      0.5346
     10  NH1      -36.3620   23.9560  -11.3330 N.pl3 105  ARG105      0.1354
     11  NH2      -34.8950   25.6260  -10.7450 N.pl3 105  ARG105      0.1354
     12  N        -29.2760   32.5050   -2.5020 N.3   146  SER146     -0.1202
     13  CA       -30.1650   33.6540   -2.3780 C.3   146  SER146      0.2020
     14  C        -31.3560   33.2510   -1.5370 C.2   146  SER146      0.2619
     15  O        -31.6420   32.0630   -1.3660 O.2   146  SER146     -0.2717
     16  CB       -30.6440   34.1720   -3.7450 C.3   146  SER146      0.2103
     17  OG       -31.5970   33.3020   -4.3180 O.3   146  SER146     -0.2182
     18  N        -32.0530   34.2600   -1.0240 N.am  147  GLU147     -0.1965
     19  CA       -33.1730   34.0840   -0.1030 C.3   147  GLU147      0.1733
     20  C        -34.1700   35.2000   -0.3810 C.2   147  GLU147      0.2616
     21  O        -33.7720   36.3660   -0.4770 O.2   147  GLU147     -0.2715
     22  CB       -32.6730   34.1250    1.3550 C.3   147  GLU147      0.0429
     23  CG       -33.7220   33.9860    2.4270 C.3   147  GLU147      0.1163
     24  CD       -33.1100   33.7570    3.8080 C.2   147  GLU147      0.3649
     25  OE1      -33.2990   32.6670    4.3740 O.co2 147  GLU147     -0.2457
     26  OE2      -32.4420   34.6700    4.3350 O.co2 147  GLU147     -0.2457
     27  N        -35.4520   34.8530   -0.5110 N.am  148  ASP148     -0.1971
     28  CA       -36.5310   35.8230   -0.7140 C.3   148  ASP148      0.1709
     29  C        -37.5970   35.6230    0.3670 C.2   148  ASP148      0.2293
     30  O        -38.3320   34.6260    0.3410 O.2   148  ASP148     -0.2864
     31  CB       -37.1250   35.6660   -2.1090 C.3   148  ASP148      0.1436
     32  CG       -38.0600   36.7830   -2.4810 C.2   148  ASP148      0.3671
     33  OD1      -38.3370   37.6430   -1.6250 O.co2 148  ASP148     -0.2456
     34  OD2      -38.5330   36.7870   -3.6390 O.co2 148  ASP148     -0.2456
     35  N        -38.6150   31.6330    0.0600 N.3   155  VAL155     -0.1245
     36  CA       -37.9940   30.7760   -0.9590 C.3   155  VAL155      0.1561
     37  C        -36.4970   30.9890   -0.9590 C.2   155  VAL155      0.2260
     38  O        -36.0280   32.1240   -1.0900 O.2   155  VAL155     -0.2867
     39  CB       -38.5080   31.0640   -2.3760 C.3   155  VAL155      0.0252
     40  CG1      -37.9770   30.0280   -3.3370 C.3   155  VAL155      0.0019
     41  CG2      -39.9230   31.0980   -2.3930 C.3   155  VAL155      0.0019
     42  N        -32.7410   29.7020   -2.8190 N.3   157  GLN157     -0.1245
     43  CA       -31.9360   28.9690   -3.7860 C.3   157  GLN157      0.1566
     44  C        -30.6920   28.4440   -3.1040 C.2   157  GLN157      0.2260
     45  O        -29.9630   29.2120   -2.4610 O.2   157  GLN157     -0.2867
     46  CB       -31.5240   29.8430   -4.9900 C.3   157  GLN157      0.0367
     47  CG       -32.6290   30.3990   -5.8040 C.3   157  GLN157      0.0905
     48  CD       -32.0610   31.1700   -6.9980 C.2   157  GLN157      0.2608
     49  OE1      -31.2540   32.0900   -6.8340 O.2   157  GLN157     -0.2717
     50  NE2      -32.4410   30.7670   -8.1940 N.am  157  GLN157     -0.0878
     51  N        -28.7560   22.8710   -8.5650 N.3   170  GLU170     -0.1245
     52  CA       -29.5630   23.8860   -7.9040 C.3   170  GLU170      0.1567
     53  C        -30.8240   23.2740   -7.2830 C.2   170  GLU170      0.2260
     54  O        -31.6450   22.6880   -7.9910 O.2   170  GLU170     -0.2867
     55  CB       -29.9520   24.9510   -8.9130 C.3   170  GLU170      0.0388
     56  CG       -30.7720   26.1120   -8.3390 C.3   170  GLU170      0.1160
     57  CD       -31.2260   27.0660   -9.4380 C.2   170  GLU170      0.3649
     58  OE1      -30.4780   27.2420  -10.4270 O.co2 170  GLU170     -0.2457
     59  OE2      -32.3390   27.6110   -9.3370 O.co2 170  GLU170     -0.2457
     60  N        -34.2810   24.1930   -4.9060 N.3   172  LEU172     -0.1245
     61  CA       -35.1700   25.2390   -4.3930 C.3   172  LEU172      0.1561
     62  C        -35.8050   24.8130   -3.0570 C.2   172  LEU172      0.2260
     63  O        -36.4040   23.7400   -2.9700 O.2   172  LEU172     -0.2867
     64  CB       -36.2710   25.5400   -5.4090 C.3   172  LEU172      0.0270
     65  CG       -35.8110   26.0030   -6.8100 C.3   172  LEU172      0.0019
     66  CD1      -37.0360   26.2790   -7.6600 C.3   172  LEU172      0.0001
     67  CD2      -34.9110   27.2240   -6.7240 C.3   172  LEU172      0.0001
     68  N        -38.6890   25.7070   -0.3960 N.3   174  PHE174     -0.1241
     69  CA       -39.9620   26.3990   -0.2130 C.3   174  PHE174      0.1605
     70  C        -40.4150   26.2150    1.2390 C.2   174  PHE174      0.2264
     71  O        -40.8210   25.1190    1.6470 O.2   174  PHE174     -0.2867
     72  CB       -41.0200   25.8880   -1.2110 C.3   174  PHE174      0.0534
     73  CG       -40.7970   26.3560   -2.6360 C.ar  174  PHE174     -0.0203
     74  CD1      -41.3150   27.5850   -3.0380 C.ar  174  PHE174     -0.0042
     75  CD2      -40.0740   25.6130   -3.5490 C.ar  174  PHE174     -0.0042
     76  CE1      -41.1270   28.0500   -4.3190 C.ar  174  PHE174     -0.0003
     77  CE2      -39.8800   26.1000   -4.8570 C.ar  174  PHE174     -0.0003
     78  CZ       -40.3990   27.3070   -5.2120 C.ar  174  PHE174     -0.0000
     79  N        -47.0220   28.5690   -5.9440 N.3   197  LYS197     -0.1245
     80  CA       -45.6160   28.9570   -6.1380 C.3   197  LYS197      0.1561
     81  C        -44.7050   27.7440   -6.3090 C.2   197  LYS197      0.2260
     82  O        -43.7700   27.7700   -7.1200 O.2   197  LYS197     -0.2867
     83  CB       -45.1170   29.8080   -4.9580 C.3   197  LYS197      0.0271
     84  CG       -45.8510   31.1320   -4.8120 C.3   197  LYS197      0.0035
     85  CD       -45.6080   32.0820   -6.0020 C.3   197  LYS197      0.0206
     86  CE       -46.2440   33.4550   -5.7490 C.3   197  LYS197      0.1093
     87  NZ       -46.1610   34.3690   -6.9240 N.3   197  LYS197     -0.1314
     88  N        -45.3610   26.4780   -9.8740 N.3   200  GLU200     -0.1231
     89  CA       -44.7980   27.3440  -10.9080 C.3   200  GLU200      0.1699
     90  C        -43.2990   27.1780  -11.0660 C.2   200  GLU200      0.2592
     91  O        -42.7730   27.4500  -12.1460 O.2   200  GLU200     -0.2718
     92  CB       -45.1290   28.8010  -10.5990 C.3   200  GLU200      0.0402
     93  CG       -46.5830   29.1330  -10.7830 C.3   200  GLU200      0.1161
     94  CD       -46.9030   30.5620  -10.3810 C.2   200  GLU200      0.3649
     95  OE1      -45.9560   31.3070  -10.0110 O.co2 200  GLU200     -0.2457
     96  OE2      -48.0970   30.9280  -10.4430 O.co2 200  GLU200     -0.2457
     97  N        -42.5950   26.7200  -10.0290 N.am  201  SER201     -0.1952
     98  CA       -41.1510   26.5280  -10.0800 C.3   201  SER201      0.1924
     99  C        -40.6740   25.3330  -10.9010 C.2   201  SER201      0.2314
    100  O        -39.4610   25.2190  -11.1410 O.2   201  SER201     -0.2863
    101  CB       -40.6110   26.3540   -8.6460 C.3   201  SER201      0.2116
    102  OG       -40.8520   25.0380   -8.1540 O.3   201  SER201     -0.2180
@<TRIPOS>BOND
     1    91    90    2
     2    10     9    1
     3   100    99    2
     4    90    89    1
     5    90    97   am
     6    89    92    1
     7    89    88    1
     8    99    98    1
     9    93    92    1
    10    93    94    1
    11    11     9    1
    12     9     8    2
    13    96    94   ar
    14    58    57   ar
    15    94    95   ar
    16    98    97    1
    17    98   101    1
    18     8     7    1
    19     7     6    1
    20    57    59   ar
    21    57    56    1
    22     6     5    1
    23    55    56    1
    24    55    52    1
    25     5     2    1
    26   101   102    1
    27    51    52    1
    28    50    48   am
    29    54    53    2
    30    52    53    1
    31    66    65    1
    32     2     1    1
    33     2     3    1
    34    82    81    2
    35    48    49    2
    36    48    47    1
    37    87    86    1
    38    65    67    1
    39    65    64    1
    40     3     4    2
    41    81    80    1
    42    80    79    1
    43    80    83    1
    44    85    86    1
    45    85    84    1
    46    47    46    1
    47    64    61    1
    48    78    77   ar
    49    78    76   ar
    50    46    43    1
    51    83    84    1
    52    60    61    1
    53    77    75   ar
    54    61    62    1
    55    76    74   ar
    56    17    16    1
    57    43    44    1
    58    43    42    1
    59    16    13    1
    60    34    32   ar
    61    75    73   ar
    62    40    39    1
    63    44    45    2
    64    62    63    2
    65    74    73   ar
    66    73    72    1
    67    12    13    1
    68    32    31    1
    69    32    33   ar
    70    41    39    1
    71    13    14    1
    72    39    36    1
    73    31    28    1
    74    14    15    2
    75    14    18   am
    76    72    69    1
    77    38    37    2
    78    18    19    1
    79    37    36    1
    80    36    35    1
    81    28    27    1
    82    28    29    1
    83    27    20   am
    84    21    20    2
    85    68    69    1
    86    20    19    1
    87    69    70    1
    88    19    22    1
    89    30    29    2
    90    70    71    2
    91    22    23    1
    92    23    24    1
    93    24    26   ar
    94    24    25   ar
