@<TRIPOS>MOLECULE
tmp/5qdsA00.pdb
 89 82 0 0 0
SMALL
GASTEIGER

@<TRIPOS>ATOM
      1  N        -48.9820    8.6380   -7.4190 N.3    74  MET74      -0.1230
      2  CA       -50.3970    8.7930   -7.7530 C.3    74  MET74       0.1702
      3  C        -50.5550    8.5650   -9.2580 C.2    74  MET74       0.2592
      4  O        -50.1550    9.4060  -10.0710 O.2    74  MET74      -0.2718
      5  CB       -50.9240   10.1550   -7.3300 C.3    74  MET74       0.0401
      6  CG       -50.8040   10.3900   -5.8190 C.3    74  MET74       0.0596
      7  SD       -51.5790    9.0980   -4.7760 S.3    74  MET74      -0.1393
      8  CE       -53.1670    9.5330   -5.0810 C.3    74  MET74       0.0692
      9  N        -51.1420    7.4260   -9.6200 N.am   75  GLU75      -0.1966
     10  CA       -51.0540    6.9330  -10.9990 C.3    75  GLU75       0.1733
     11  C        -51.9240    7.7640  -11.9470 C.2    75  GLU75       0.2616
     12  O        -51.4350    8.3000  -12.9470 O.2    75  GLU75      -0.2715
     13  CB       -51.4210    5.4310  -11.0030 C.3    75  GLU75       0.0429
     14  CG       -51.2500    4.7090  -12.3260 C.3    75  GLU75       0.1163
     15  CD       -51.4020    3.1890  -12.2000 C.2    75  GLU75       0.3649
     16  OE1      -52.0820    2.7080  -11.2570 O.co2  75  GLU75      -0.2457
     17  OE2      -50.8280    2.4720  -13.0520 O.co2  75  GLU75      -0.2457
     18  N        -53.2010    7.9510  -11.6200 N.am   76  GLU76      -0.1963
     19  CA       -54.0790    8.7200  -12.5090 C.3    76  GLU76       0.1733
     20  C        -53.6470   10.1790  -12.6200 C.2    76  GLU76       0.2616
     21  O        -53.7260   10.7840  -13.6900 O.2    76  GLU76      -0.2715
     22  CB       -55.5230    8.6460  -12.0100 C.3    76  GLU76       0.0429
     23  CG       -56.4920    9.3210  -12.9680 C.3    76  GLU76       0.1163
     24  CD       -57.9070    9.5010  -12.4430 C.2    76  GLU76       0.3649
     25  OE1      -58.2760    8.9710  -11.3640 O.co2  76  GLU76      -0.2457
     26  OE2      -58.6770   10.2030  -13.1530 O.co2  76  GLU76      -0.2457
     27  N        -53.2380   10.7870  -11.5090 N.am   77  ALA77      -0.1977
     28  CA       -52.8270   12.1860  -11.5410 C.3    77  ALA77       0.1597
     29  C        -51.4510   12.3890  -12.1510 C.2    77  ALA77       0.2287
     30  O        -51.0900   13.5240  -12.4600 O.2    77  ALA77      -0.2864
     31  CB       -52.8230   12.7430  -10.0970 C.3    77  ALA77       0.0319
     32  N        -56.6640   16.1950  -10.4460 N.3   234  LEU234     -0.1245
     33  CA       -57.7060   15.3140  -10.9770 C.3   234  LEU234      0.1561
     34  C        -58.9350   16.1000  -11.4290 C.2   234  LEU234      0.2260
     35  O        -59.5820   15.7220  -12.4080 O.2   234  LEU234     -0.2867
     36  CB       -58.1240   14.2680   -9.9440 C.3   234  LEU234      0.0270
     37  CG       -57.0430   13.2490   -9.5600 C.3   234  LEU234      0.0019
     38  CD1      -57.4590   12.4500   -8.3270 C.3   234  LEU234      0.0001
     39  CD2      -56.7410   12.3180  -10.6860 C.3   234  LEU234      0.0001
     40  N        -60.3100   15.3850  -15.4470 N.3   238  ARG238     -0.1245
     41  CA       -61.4990   14.5490  -15.6680 C.3   238  ARG238      0.1563
     42  C        -62.6220   15.3060  -16.3740 C.2   238  ARG238      0.2260
     43  O        -62.7630   16.5260  -16.2420 O.2   238  ARG238     -0.2867
     44  CB       -62.0460   14.0160  -14.3360 C.3   238  ARG238      0.0307
     45  CG       -61.2320   12.8680  -13.7180 C.3   238  ARG238      0.0489
     46  CD       -61.9140   12.3200  -12.4850 C.3   238  ARG238      0.2205
     47  NE       -61.0750   11.3310  -11.8220 N.pl3 238  ARG238     -0.0865
     48  CZ       -61.3980   10.7280  -10.6890 C.cat 238  ARG238      0.5346
     49  NH1      -62.5350   11.0260  -10.0850 N.pl3 238  ARG238      0.1354
     50  NH2      -60.5620    9.8510  -10.1510 N.pl3 238  ARG238      0.1354
     51  N        -66.7510   14.1980   -9.6910 N.3   243  SER243     -0.1217
     52  CA       -66.4860   12.8030   -9.3890 C.3   243  SER243      0.1889
     53  C        -65.2670   12.6000   -8.4960 C.2   243  SER243      0.2288
     54  O        -65.0130   11.4630   -8.0900 O.2   243  SER243     -0.2866
     55  CB       -66.2750   11.9940  -10.6790 C.3   243  SER243      0.2089
     56  OG       -65.0350   12.3070  -11.3050 O.3   243  SER243     -0.2183
     57  N        -63.2830   12.2150   -5.3200 N.3   245  ASP245     -0.1239
     58  CA       -63.7100   11.8470   -3.9720 C.3   245  ASP245      0.1674
     59  C        -62.5060   11.9550   -3.0370 C.2   245  ASP245      0.2266
     60  O        -61.6450   11.0760   -3.0390 O.2   245  ASP245     -0.2867
     61  CB       -64.2730   10.4320   -3.9810 C.3   245  ASP245      0.1410
     62  CG       -64.8440   10.0070   -2.6360 C.2   245  ASP245      0.3668
     63  OD1      -64.4130   10.5170   -1.5780 O.co2 245  ASP245     -0.2456
     64  OD2      -65.7350    9.1400   -2.6460 O.co2 245  ASP245     -0.2456
     65  N        -61.5350    8.9840   -0.8570 N.3   248  LYS248     -0.1231
     66  CA       -60.9250    7.8890   -1.6100 C.3   248  LYS248      0.1693
     67  C        -59.4880    8.2030   -2.0020 C.2   248  LYS248      0.2591
     68  O        -58.6380    7.3060   -2.0250 O.2   248  LYS248     -0.2718
     69  CB       -61.7410    7.5910   -2.8750 C.3   248  LYS248      0.0285
     70  CG       -63.0410    6.8530   -2.5770 C.3   248  LYS248      0.0035
     71  CD       -63.8860    6.6750   -3.8380 C.3   248  LYS248      0.0206
     72  CE       -65.1650    5.8930   -3.5500 C.3   248  LYS248      0.1093
     73  NZ       -66.1150    5.9500   -4.7020 N.3   248  LYS248     -0.1314
     74  N        -59.2080    9.4460   -2.3680 N.am  249  VAL249     -0.1980
     75  CA       -57.8250    9.8180   -2.7110 C.3   249  VAL249      0.1595
     76  C        -56.9260    9.6730   -1.4830 C.2   249  VAL249      0.2287
     77  O        -55.8110    9.1500   -1.5720 O.2   249  VAL249     -0.2864
     78  CB       -57.7890   11.2390   -3.3070 C.3   249  VAL249      0.0276
     79  CG1      -56.3450   11.6830   -3.6040 C.3   249  VAL249      0.0022
     80  CG2      -58.6210   11.3000   -4.6180 C.3   249  VAL249      0.0022
     81  N        -56.1270    6.0670   -0.8400 N.3   252  GLU252     -0.1245
     82  CA       -55.1050    5.6120   -1.7780 C.3   252  GLU252      0.1567
     83  C        -53.7250    6.0580   -1.3030 C.2   252  GLU252      0.2260
     84  O        -52.7670    5.2870   -1.3300 O.2   252  GLU252     -0.2867
     85  CB       -55.4000    6.1550   -3.1870 C.3   252  GLU252      0.0388
     86  CG       -54.3830    5.7690   -4.3090 C.3   252  GLU252      0.1160
     87  CD       -54.3600    4.2830   -4.6770 C.2   252  GLU252      0.3649
     88  OE1      -55.3880    3.5850   -4.4650 O.co2 252  GLU252     -0.2457
     89  OE2      -53.3120    3.8220   -5.1860 O.co2 252  GLU252     -0.2457
@<TRIPOS>BOND
     1    42    43    2
     2    42    41    1
     3    41    40    1
     4    41    44    1
     5    44    45    1
     6    45    46    1
     7    21    20    2
     8    26    24   ar
     9    17    15   ar
    10    23    24    1
    11    23    22    1
    12    12    11    2
    13    20    19    1
    14    20    27   am
    15    19    22    1
    16    19    18    1
    17    46    47    1
    18    30    29    2
    19    24    25   ar
    20    35    34    2
    21    14    15    1
    22    14    13    1
    23    15    16   ar
    24    29    28    1
    25    11    18   am
    26    11    10    1
    27    47    48    2
    28    28    27    1
    29    28    31    1
    30    34    33    1
    31    56    55    1
    32    13    10    1
    33    10     9    1
    34    33    32    1
    35    33    36    1
    36    48    50    1
    37    48    49    1
    38    39    37    1
    39    55    52    1
    40     4     3    2
    41    36    37    1
    42    51    52    1
    43     9     3   am
    44    37    38    1
    45    52    53    1
    46     3     2    1
    47    53    54    2
    48     2     1    1
    49     2     5    1
    50     5     6    1
    51     6     7    1
    52    57    58    1
    53    89    87   ar
    54     8     7    1
    55    73    72    1
    56    87    88   ar
    57    87    86    1
    58    80    78    1
    59    86    85    1
    60    61    58    1
    61    61    62    1
    62    58    59    1
    63    71    72    1
    64    71    70    1
    65    79    78    1
    66    78    75    1
    67    85    82    1
    68    60    59    2
    69    69    70    1
    70    69    66    1
    71    75    74    1
    72    75    76    1
    73    64    62   ar
    74    62    63   ar
    75    74    67   am
    76    68    67    2
    77    67    66    1
    78    82    83    1
    79    82    81    1
    80    66    65    1
    81    77    76    2
    82    84    83    2
