@<TRIPOS>MOLECULE
tmp/5qdsA01.pdb
 84 77 0 0 0
SMALL
GASTEIGER

@<TRIPOS>ATOM
      1  N        -35.8140   18.4410   -7.4220 N.3   105  ARG105     -0.1245
      2  CA       -35.5320   19.8570   -7.6350 C.3   105  ARG105      0.1563
      3  C        -35.8820   20.6940   -6.4110 C.2   105  ARG105      0.2260
      4  O        -35.1530   21.6400   -6.0810 O.2   105  ARG105     -0.2867
      5  CB       -36.3050   20.3660   -8.8510 C.3   105  ARG105      0.0307
      6  CG       -36.1150   21.8480   -9.1630 C.3   105  ARG105      0.0489
      7  CD       -34.8580   22.1060   -9.9880 C.3   105  ARG105      0.2205
      8  NE       -34.5720   23.5370  -10.0840 N.pl3 105  ARG105     -0.0865
      9  CZ       -35.3280   24.4140  -10.7350 C.cat 105  ARG105      0.5346
     10  NH1      -36.4310   24.0200  -11.3680 N.pl3 105  ARG105      0.1354
     11  NH2      -34.9830   25.6970  -10.7500 N.pl3 105  ARG105      0.1354
     12  N        -29.3960   32.5400   -2.4680 N.3   146  SER146     -0.1202
     13  CA       -30.2830   33.6870   -2.3250 C.3   146  SER146      0.2020
     14  C        -31.4810   33.2790   -1.4860 C.2   146  SER146      0.2619
     15  O        -31.7610   32.0880   -1.3140 O.2   146  SER146     -0.2717
     16  CB       -30.7490   34.2260   -3.6930 C.3   146  SER146      0.2103
     17  OG       -31.7230   33.3810   -4.2490 O.3   146  SER146     -0.2182
     18  N        -32.1890   34.2890   -0.9700 N.am  147  GLU147     -0.1965
     19  CA       -33.3250   34.1070   -0.0650 C.3   147  GLU147      0.1733
     20  C        -34.3310   35.2150   -0.3490 C.2   147  GLU147      0.2616
     21  O        -33.9420   36.3820   -0.4520 O.2   147  GLU147     -0.2715
     22  CB       -32.8350   34.1480    1.3950 C.3   147  GLU147      0.0429
     23  CG       -33.8760   34.0020    2.4620 C.3   147  GLU147      0.1163
     24  CD       -33.2690   33.7540    3.8220 C.2   147  GLU147      0.3649
     25  OE1      -33.4660   32.6640    4.3790 O.co2 147  GLU147     -0.2457
     26  OE2      -32.5860   34.6540    4.3460 O.co2 147  GLU147     -0.2457
     27  N        -35.6140   34.8660   -0.4770 N.am  148  ASP148     -0.1971
     28  CA       -36.6890   35.8390   -0.6810 C.3   148  ASP148      0.1709
     29  C        -37.7640   35.6250    0.3830 C.2   148  ASP148      0.2293
     30  O        -38.5150   34.6410    0.3210 O.2   148  ASP148     -0.2864
     31  CB       -37.2640   35.7050   -2.0910 C.3   148  ASP148      0.1436
     32  CG       -38.1930   36.8210   -2.4550 C.2   148  ASP148      0.3671
     33  OD1      -38.4410   37.6900   -1.5990 O.co2 148  ASP148     -0.2456
     34  OD2      -38.6910   36.8190   -3.6010 O.co2 148  ASP148     -0.2456
     35  N        -38.7320   31.6280    0.0510 N.3   155  VAL155     -0.1245
     36  CA       -38.1100   30.7820   -0.9750 C.3   155  VAL155      0.1561
     37  C        -36.6190   31.0080   -0.9820 C.2   155  VAL155      0.2260
     38  O        -36.1610   32.1460   -1.1300 O.2   155  VAL155     -0.2867
     39  CB       -38.6270   31.0790   -2.3920 C.3   155  VAL155      0.0252
     40  CG1      -38.0810   30.0520   -3.3470 C.3   155  VAL155      0.0019
     41  CG2      -40.0370   31.1000   -2.4220 C.3   155  VAL155      0.0019
     42  N        -32.8340   29.7570   -2.7920 N.3   157  GLN157     -0.1245
     43  CA       -32.0200   29.0210   -3.7530 C.3   157  GLN157      0.1566
     44  C        -30.7850   28.4780   -3.0520 C.2   157  GLN157      0.2260
     45  O        -30.0510   29.2300   -2.4000 O.2   157  GLN157     -0.2867
     46  CB       -31.6060   29.9060   -4.9410 C.3   157  GLN157      0.0367
     47  CG       -32.7150   30.4540   -5.7680 C.3   157  GLN157      0.0905
     48  CD       -32.1380   31.2370   -6.9370 C.2   157  GLN157      0.2608
     49  OE1      -31.3020   32.1310   -6.7410 O.2   157  GLN157     -0.2717
     50  NE2      -32.5250   30.8690   -8.1500 N.am  157  GLN157     -0.0878
     51  N        -28.8360   22.9540   -8.5410 N.3   170  GLU170     -0.1245
     52  CA       -29.6420   23.9710   -7.8870 C.3   170  GLU170      0.1567
     53  C        -30.9080   23.3560   -7.2850 C.2   170  GLU170      0.2260
     54  O        -31.7240   22.7810   -8.0090 O.2   170  GLU170     -0.2867
     55  CB       -30.0190   25.0410   -8.8950 C.3   170  GLU170      0.0388
     56  CG       -30.8520   26.1880   -8.3270 C.3   170  GLU170      0.1160
     57  CD       -31.2890   27.1430   -9.4210 C.2   170  GLU170      0.3649
     58  OE1      -30.5290   27.3300  -10.3950 O.co2 170  GLU170     -0.2457
     59  OE2      -32.4030   27.6810   -9.3320 O.co2 170  GLU170     -0.2457
     60  N        -34.3770   24.2340   -4.9110 N.3   172  LEU172     -0.1245
     61  CA       -35.2720   25.2740   -4.3940 C.3   172  LEU172      0.1561
     62  C        -35.9110   24.8390   -3.0680 C.2   172  LEU172      0.2260
     63  O        -36.5240   23.7660   -2.9930 O.2   172  LEU172     -0.2867
     64  CB       -36.3770   25.5940   -5.4090 C.3   172  LEU172      0.0270
     65  CG       -35.8930   26.0670   -6.7960 C.3   172  LEU172      0.0019
     66  CD1      -37.1140   26.3190   -7.7010 C.3   172  LEU172      0.0001
     67  CD2      -35.0220   27.3050   -6.7090 C.3   172  LEU172      0.0001
     68  N        -38.8110   25.7110   -0.4730 N.3   174  PHE174     -0.1241
     69  CA       -40.0860   26.4010   -0.2840 C.3   174  PHE174      0.1605
     70  C        -40.5350   26.2010    1.1630 C.2   174  PHE174      0.2264
     71  O        -40.9180   25.0890    1.5660 O.2   174  PHE174     -0.2867
     72  CB       -41.1370   25.8950   -1.2820 C.3   174  PHE174      0.0534
     73  CG       -40.9100   26.3870   -2.6930 C.ar  174  PHE174     -0.0203
     74  CD1      -41.4180   27.6200   -3.0780 C.ar  174  PHE174     -0.0042
     75  CD2      -40.1690   25.6630   -3.6010 C.ar  174  PHE174     -0.0042
     76  CE1      -41.2110   28.1020   -4.3620 C.ar  174  PHE174     -0.0003
     77  CE2      -39.9610   26.1550   -4.9040 C.ar  174  PHE174     -0.0003
     78  CZ       -40.4750   27.3640   -5.2600 C.ar  174  PHE174     -0.0000
     79  N        -42.6500   26.7480  -10.0540 N.3   201  SER201     -0.1217
     80  CA       -41.2060   26.5570  -10.0980 C.3   201  SER201      0.1889
     81  C        -40.7360   25.3700  -10.9320 C.2   201  SER201      0.2288
     82  O        -39.5310   25.2830  -11.2110 O.2   201  SER201     -0.2866
     83  CB       -40.6740   26.3670   -8.6600 C.3   201  SER201      0.2089
     84  OG       -40.9430   25.0460   -8.2000 O.3   201  SER201     -0.2183
@<TRIPOS>BOND
     1    10     9    1
     2    82    81    2
     3    81    80    1
     4    11     9    1
     5     9     8    2
     6    58    57   ar
     7    80    79    1
     8    80    83    1
     9     8     7    1
    10     7     6    1
    11    57    59   ar
    12    57    56    1
    13     6     5    1
    14    55    56    1
    15    55    52    1
    16     5     2    1
    17    83    84    1
    18    51    52    1
    19    50    48   am
    20    54    53    2
    21    52    53    1
    22    66    65    1
    23     2     1    1
    24     2     3    1
    25    48    49    2
    26    48    47    1
    27    65    67    1
    28    65    64    1
    29     3     4    2
    30    47    46    1
    31    64    61    1
    32    78    77   ar
    33    78    76   ar
    34    46    43    1
    35    60    61    1
    36    77    75   ar
    37    61    62    1
    38    76    74   ar
    39    17    16    1
    40    43    44    1
    41    43    42    1
    42    16    13    1
    43    75    73   ar
    44    34    32   ar
    45    40    39    1
    46    74    73   ar
    47    62    63    2
    48    44    45    2
    49    73    72    1
    50    12    13    1
    51    32    31    1
    52    32    33   ar
    53    41    39    1
    54    39    36    1
    55    13    14    1
    56    31    28    1
    57    14    15    2
    58    14    18   am
    59    72    69    1
    60    38    37    2
    61    37    36    1
    62    36    35    1
    63    18    19    1
    64    28    27    1
    65    28    29    1
    66    27    20   am
    67    68    69    1
    68    21    20    2
    69    20    19    1
    70    69    70    1
    71    19    22    1
    72    30    29    2
    73    70    71    2
    74    22    23    1
    75    23    24    1
    76    24    26   ar
    77    24    25   ar
