@<TRIPOS>MOLECULE
tmp/5qdtA00.pdb
 82 78 0 0 0
SMALL
GASTEIGER

@<TRIPOS>ATOM
      1  N        -56.1530   30.4650    2.0230 N.3   189  ALA189     -0.1245
      2  CA       -55.6880   31.2800    0.9090 C.3   189  ALA189      0.1562
      3  C        -54.1720   31.3230    0.8190 C.2   189  ALA189      0.2260
      4  O        -53.6200   31.2060   -0.2800 O.2   189  ALA189     -0.2867
      5  CB       -56.2680   32.6980    1.0100 C.3   189  ALA189      0.0290
      6  N        -52.7370   27.8200   -0.2970 N.3   192  LEU192     -0.1231
      7  CA       -52.9270   27.6190   -1.7470 C.3   192  LEU192      0.1693
      8  C        -51.9770   28.4770   -2.5730 C.2   192  LEU192      0.2592
      9  O        -51.3950   27.9950   -3.5480 O.2   192  LEU192     -0.2718
     10  CB       -54.3720   27.9350   -2.1350 C.3   192  LEU192      0.0284
     11  CG       -55.4330   26.9290   -1.7210 C.3   192  LEU192      0.0019
     12  CD1      -56.8050   27.5630   -1.8340 C.3   192  LEU192      0.0001
     13  CD2      -55.3500   25.6700   -2.5600 C.3   192  LEU192      0.0001
     14  N        -51.8030   29.7510   -2.1980 N.am  193  ASN193     -0.1974
     15  CA       -50.8160   30.5950   -2.8710 C.3   193  ASN193      0.1688
     16  C        -49.4290   29.9610   -2.8320 C.2   193  ASN193      0.2292
     17  O        -48.6890   29.9990   -3.8240 O.2   193  ASN193     -0.2864
     18  CB       -50.7950   31.9790   -2.2150 C.3   193  ASN193      0.1181
     19  CG       -49.9340   32.9780   -2.9690 C.2   193  ASN193      0.2629
     20  OD1      -50.1890   33.2770   -4.1340 O.2   193  ASN193     -0.2716
     21  ND2      -48.9220   33.5140   -2.2970 N.am  193  ASN193     -0.0877
     22  N        -49.2190   26.9700   -5.2730 N.3   196  PHE196     -0.1227
     23  CA       -49.0680   27.4540   -6.6450 C.3   196  PHE196      0.1736
     24  C        -47.6390   27.9210   -6.9130 C.2   196  PHE196      0.2595
     25  O        -47.0950   27.6780   -7.9920 O.2   196  PHE196     -0.2718
     26  CB       -50.0900   28.5700   -6.9120 C.3   196  PHE196      0.0547
     27  CG       -51.5240   28.1230   -6.8050 C.ar  196  PHE196     -0.0202
     28  CD1      -51.8670   26.7770   -6.9430 C.ar  196  PHE196     -0.0042
     29  CD2      -52.5400   29.0500   -6.5640 C.ar  196  PHE196     -0.0042
     30  CE1      -53.1870   26.3540   -6.8350 C.ar  196  PHE196     -0.0003
     31  CE2      -53.8680   28.6420   -6.4590 C.ar  196  PHE196     -0.0003
     32  CZ       -54.1920   27.2900   -6.5980 C.ar  196  PHE196     -0.0000
     33  N        -46.9810   28.5270   -5.9200 N.am  197  LYS197     -0.1980
     34  CA       -45.5730   28.9200   -6.1030 C.3   197  LYS197      0.1596
     35  C        -44.6600   27.7130   -6.2640 C.2   197  LYS197      0.2287
     36  O        -43.7180   27.7460   -7.0650 O.2   197  LYS197     -0.2864
     37  CB       -45.0760   29.7870   -4.9270 C.3   197  LYS197      0.0298
     38  CG       -45.7960   31.1090   -4.8020 C.3   197  LYS197      0.0038
     39  CD       -45.5450   32.0540   -5.9880 C.3   197  LYS197      0.0206
     40  CE       -46.1840   33.4270   -5.7300 C.3   197  LYS197      0.1093
     41  NZ       -46.1040   34.3450   -6.9040 N.3   197  LYS197     -0.1314
     42  N        -45.3210   26.4680   -9.8400 N.3   200  GLU200     -0.1245
     43  CA       -44.7570   27.3320  -10.8710 C.3   200  GLU200      0.1567
     44  C        -43.2530   27.1690  -11.0300 C.2   200  GLU200      0.2260
     45  O        -42.7280   27.4260  -12.1160 O.2   200  GLU200     -0.2867
     46  CB       -45.0980   28.7850  -10.5630 C.3   200  GLU200      0.0388
     47  CG       -46.5390   29.1100  -10.7440 C.3   200  GLU200      0.1160
     48  CD       -46.8620   30.5350  -10.3380 C.2   200  GLU200      0.3649
     49  OE1      -45.9130   31.2890   -9.9940 O.co2 200  GLU200     -0.2457
     50  OE2      -48.0620   30.8890  -10.3750 O.co2 200  GLU200     -0.2457
     51  N        -61.8310   25.8190   -2.2940 N.3   276  GLU276     -0.1231
     52  CA       -61.4990   27.1880   -2.6820 C.3   276  GLU276      0.1699
     53  C        -60.5520   27.2080   -3.8670 C.2   276  GLU276      0.2592
     54  O        -60.5960   28.0970   -4.7270 O.2   276  GLU276     -0.2718
     55  CB       -60.8800   27.9130   -1.4980 C.3   276  GLU276      0.0402
     56  CG       -60.6480   29.3830   -1.7520 C.3   276  GLU276      0.1161
     57  CD       -61.9240   30.1190   -2.0810 C.2   276  GLU276      0.3649
     58  OE1      -63.0060   29.6700   -1.6450 O.co2 276  GLU276     -0.2457
     59  OE2      -61.8480   31.1420   -2.7930 O.co2 276  GLU276     -0.2457
     60  N        -59.6580   26.2360   -3.8970 N.am  277  GLY277     -0.1957
     61  CA       -58.7000   26.1530   -4.9710 C.3   277  GLY277      0.1869
     62  C        -59.3520   25.8450   -6.3040 C.2   277  GLY277      0.2309
     63  O        -58.8910   26.2950   -7.3520 O.2   277  GLY277     -0.2863
     64  N        -60.4620   29.0930   -8.0890 N.3   280  PHE280     -0.1227
     65  CA       -59.4250   29.9640   -8.5920 C.3   280  PHE280      0.1736
     66  C        -58.8200   29.4160   -9.8580 C.2   280  PHE280      0.2595
     67  O        -58.3300   30.1860  -10.6820 O.2   280  PHE280     -0.2718
     68  CB       -58.3360   30.1160   -7.5430 C.3   280  PHE280      0.0547
     69  CG       -57.4660   31.2920   -7.7540 C.ar  280  PHE280     -0.0202
     70  CD1      -57.9320   32.5640   -7.4800 C.ar  280  PHE280     -0.0042
     71  CD2      -56.1790   31.1300   -8.2160 C.ar  280  PHE280     -0.0042
     72  CE1      -57.1220   33.6550   -7.6650 C.ar  280  PHE280     -0.0003
     73  CE2      -55.3650   32.2150   -8.4020 C.ar  280  PHE280     -0.0003
     74  CZ       -55.8360   33.4820   -8.1290 C.ar  280  PHE280     -0.0000
     75  N        -58.8360   28.0940  -10.0110 N.am  281  ILE281     -0.1980
     76  CA       -58.2060   27.4700  -11.1600 C.3   281  ILE281      0.1595
     77  C        -58.8960   27.9230  -12.4340 C.2   281  ILE281      0.2287
     78  O        -58.2500   28.1070  -13.4750 O.2   281  ILE281     -0.2864
     79  CB       -58.2280   25.9350  -10.9970 C.3   281  ILE281      0.0276
     80  CG1      -57.0700   25.2870  -11.7550 C.3   281  ILE281      0.0022
     81  CG2      -59.5550   25.3490  -11.4650 C.3   281  ILE281      0.0022
     82  CD1      -56.1200   24.5390  -10.8460 C.3   281  ILE281      0.0001
@<TRIPOS>BOND
     1    78    77    2
     2    77    76    1
     3    45    44    2
     4    80    79    1
     5    80    82    1
     6    81    79    1
     7    76    79    1
     8    76    75    1
     9    44    43    1
    10    43    46    1
    11    43    42    1
    12    47    46    1
    13    47    48    1
    14    67    66    2
    15    50    48   ar
    16    48    49   ar
    17    75    66   am
    18    66    65    1
    19    65    64    1
    20    65    68    1
    21    73    71   ar
    22    73    74   ar
    23    71    69   ar
    24    74    72   ar
    25    25    24    2
    26    69    68    1
    27    69    70   ar
    28    72    70   ar
    29    63    62    2
    30    36    35    2
    31    28    30   ar
    32    28    27   ar
    33    24    23    1
    34    24    33   am
    35    26    27    1
    36    26    23    1
    37    41    40    1
    38    30    32   ar
    39    27    29   ar
    40    23    22    1
    41    32    31   ar
    42    29    31   ar
    43    62    61    1
    44    35    34    1
    45    34    33    1
    46    34    37    1
    47    39    40    1
    48    39    38    1
    49    61    60    1
    50    37    38    1
    51    54    53    2
    52    20    19    2
    53    60    53   am
    54    53    52    1
    55    17    16    2
    56     9     8    2
    57    19    21   am
    58    19    18    1
    59    15    16    1
    60    15    18    1
    61    15    14    1
    62    59    57   ar
    63    52    51    1
    64    52    55    1
    65     8    14   am
    66     8     7    1
    67    13    11    1
    68    10     7    1
    69    10    11    1
    70    57    56    1
    71    57    58   ar
    72    12    11    1
    73    56    55    1
    74     7     6    1
    75     4     3    2
    76     3     2    1
    77     2     5    1
    78     2     1    1
