@<TRIPOS>MOLECULE
tmp/5qdvA00.pdb
 91 86 0 0 0
SMALL
GASTEIGER

@<TRIPOS>ATOM
      1  N        -43.5090   14.0570  -16.1480 N.3   189  ALA189     -0.1245
      2  CA       -44.4420   14.0760  -17.2670 C.3   189  ALA189      0.1562
      3  C        -45.2340   15.3780  -17.3420 C.2   189  ALA189      0.2260
      4  O        -45.4290   15.9210  -18.4280 O.2   189  ALA189     -0.2867
      5  CB       -45.3840   12.8710  -17.1870 C.3   189  ALA189      0.0290
      6  N        -42.9760   18.3690  -18.4400 N.3   192  LEU192     -0.1231
      7  CA       -42.6950   18.3160  -19.8810 C.3   192  LEU192      0.1693
      8  C        -43.9050   18.7340  -20.7000 C.2   192  LEU192      0.2592
      9  O        -43.7700   19.4960  -21.6590 O.2   192  LEU192     -0.2718
     10  CB       -42.2350   16.9080  -20.2810 C.3   192  LEU192      0.0284
     11  CG       -40.8290   16.4930  -19.8710 C.3   192  LEU192      0.0019
     12  CD1      -40.6780   14.9860  -20.0200 C.3   192  LEU192      0.0001
     13  CD2      -39.7750   17.2200  -20.7190 C.3   192  LEU192      0.0001
     14  N        -45.0970   18.2380  -20.3350 N.am  193  ASN193     -0.1974
     15  CA       -46.3200   18.6700  -21.0100 C.3   193  ASN193      0.1688
     16  C        -46.4670   20.1920  -20.9640 C.2   193  ASN193      0.2292
     17  O        -46.8690   20.8240  -21.9510 O.2   193  ASN193     -0.2864
     18  CB       -47.5230   17.9780  -20.3630 C.3   193  ASN193      0.1181
     19  CG       -48.8140   18.2180  -21.1110 C.2   193  ASN193      0.2629
     20  OD1      -48.9400   17.8580  -22.2820 O.2   193  ASN193     -0.2716
     21  ND2      -49.7940   18.7990  -20.4300 N.am  193  ASN193     -0.0877
     22  N        -43.9580   22.4390  -20.6010 N.3   195  LEU195     -0.1231
     23  CA       -42.9390   23.0280  -21.4840 C.3   195  LEU195      0.1693
     24  C        -43.4160   23.0230  -22.9390 C.2   195  LEU195      0.2592
     25  O        -43.3040   24.0250  -23.6480 O.2   195  LEU195     -0.2718
     26  CB       -41.6190   22.2570  -21.3510 C.3   195  LEU195      0.0284
     27  CG       -40.5510   22.5360  -22.4250 C.3   195  LEU195      0.0019
     28  CD1      -40.1310   24.0000  -22.3760 C.3   195  LEU195      0.0001
     29  CD2      -39.3590   21.6320  -22.2400 C.3   195  LEU195      0.0001
     30  N        -43.9760   21.8940  -23.3740 N.am  196  PHE196     -0.1976
     31  CA       -44.4660   21.7870  -24.7470 C.3   196  PHE196      0.1639
     32  C        -45.5940   22.7750  -25.0140 C.2   196  PHE196      0.2290
     33  O        -45.6870   23.3380  -26.1080 O.2   196  PHE196     -0.2864
     34  CB       -44.9170   20.3490  -25.0300 C.3   196  PHE196      0.0560
     35  CG       -43.8150   19.3370  -24.9280 C.ar  196  PHE196     -0.0200
     36  CD1      -42.4800   19.7200  -25.0640 C.ar  196  PHE196     -0.0042
     37  CD2      -44.1030   17.9980  -24.6810 C.ar  196  PHE196     -0.0042
     38  CE1      -41.4540   18.7910  -24.9490 C.ar  196  PHE196     -0.0003
     39  CE2      -43.0860   17.0600  -24.5720 C.ar  196  PHE196     -0.0003
     40  CZ       -41.7600   17.4560  -24.7090 C.ar  196  PHE196     -0.0000
     41  N        -43.9290   26.1170  -25.6460 N.3   199  ARG199     -0.1245
     42  CA       -43.3380   26.1130  -26.9900 C.3   199  ARG199      0.1563
     43  C        -44.4030   26.3340  -28.0620 C.2   199  ARG199      0.2260
     44  O        -44.2500   27.1790  -28.9500 O.2   199  ARG199     -0.2867
     45  CB       -42.6320   24.7780  -27.2330 C.3   199  ARG199      0.0307
     46  CG       -41.2440   24.6070  -26.6270 C.3   199  ARG199      0.0489
     47  CD       -40.6710   23.2640  -27.0860 C.3   199  ARG199      0.2205
     48  NE       -39.2800   23.0660  -26.6810 N.pl3 199  ARG199     -0.0865
     49  CZ       -38.4650   22.1510  -27.1870 C.cat 199  ARG199      0.5346
     50  NH1      -38.8850   21.3270  -28.1520 N.pl3 199  ARG199      0.1354
     51  NH2      -37.2210   22.0660  -26.7340 N.pl3 199  ARG199      0.1354
     52  N        -33.0370   19.5990  -24.8460 N.3   232  LEU232     -0.1245
     53  CA       -33.8760   18.9450  -25.8550 C.3   232  LEU232      0.1561
     54  C        -33.7200   19.5780  -27.2410 C.2   232  LEU232      0.2260
     55  O        -33.7150   18.8670  -28.2550 O.2   232  LEU232     -0.2867
     56  CB       -35.3360   18.9860  -25.4040 C.3   232  LEU232      0.0270
     57  CG       -35.6210   18.1000  -24.2020 C.3   232  LEU232      0.0019
     58  CD1      -37.0220   18.4230  -23.6060 C.3   232  LEU232      0.0001
     59  CD2      -35.5140   16.6060  -24.5340 C.3   232  LEU232      0.0001
     60  N        -36.6370   11.5480  -20.5030 N.3   276  GLU276     -0.1231
     61  CA       -37.9770   11.1340  -20.9000 C.3   276  GLU276      0.1699
     62  C        -38.4710   11.9490  -22.0840 C.2   276  GLU276      0.2592
     63  O        -39.1760   11.4500  -22.9660 O.2   276  GLU276     -0.2718
     64  CB       -38.9280   11.2870  -19.7210 C.3   276  GLU276      0.0402
     65  CG       -40.3080   10.7400  -19.9780 C.3   276  GLU276      0.1161
     66  CD       -40.2930    9.2660  -20.3100 C.2   276  GLU276      0.3649
     67  OE1      -39.3590    8.5620  -19.8670 O.co2 276  GLU276     -0.2457
     68  OE2      -41.2100    8.8140  -21.0270 O.co2 276  GLU276     -0.2457
     69  N        -38.1200   13.2150  -22.0830 N.am  277  GLY277     -0.1957
     70  CA       -38.5190   14.1020  -23.1480 C.3   277  GLY277      0.1869
     71  C        -37.9290   13.7110  -24.4800 C.2   277  GLY277      0.2309
     72  O        -38.5490   13.9250  -25.5170 O.2   277  GLY277     -0.2863
     73  N        -40.1670   11.1270  -26.3110 N.3   280  PHE280     -0.1227
     74  CA       -41.4460   11.5830  -26.8050 C.3   280  PHE280      0.1736
     75  C        -41.2830   12.3980  -28.0620 C.2   280  PHE280      0.2595
     76  O        -42.1910   12.4340  -28.8920 O.2   280  PHE280     -0.2718
     77  CB       -42.1250   12.4280  -25.7420 C.3   280  PHE280      0.0547
     78  CG       -43.5780   12.5870  -25.9480 C.ar  280  PHE280     -0.0202
     79  CD1      -44.4410   11.5380  -25.6890 C.ar  280  PHE280     -0.0042
     80  CD2      -44.0910   13.7890  -26.3850 C.ar  280  PHE280     -0.0042
     81  CE1      -45.7910   11.6880  -25.8680 C.ar  280  PHE280     -0.0003
     82  CE2      -45.4370   13.9470  -26.5650 C.ar  280  PHE280     -0.0003
     83  CZ       -46.2920   12.8940  -26.3090 C.ar  280  PHE280     -0.0000
     84  N        -40.1380   13.0600  -28.2030 N.am  281  ILE281     -0.1980
     85  CA       -39.9130   13.9300  -29.3430 C.3   281  ILE281      0.1595
     86  C        -39.9490   13.1180  -30.6260 C.2   281  ILE281      0.2287
     87  O        -40.4330   13.5910  -31.6630 O.2   281  ILE281     -0.2864
     88  CB       -38.5770   14.6800  -29.1550 C.3   281  ILE281      0.0276
     89  CG1      -38.5650   15.9880  -29.9450 C.3   281  ILE281      0.0022
     90  CG2      -37.3940   13.8010  -29.5520 C.3   281  ILE281      0.0022
     91  CD1      -38.3750   17.2050  -29.0620 C.3   281  ILE281      0.0001
@<TRIPOS>BOND
     1    87    86    2
     2    86    85    1
     3    89    88    1
     4    89    91    1
     5    90    88    1
     6    85    88    1
     7    85    84    1
     8    44    43    2
     9    76    75    2
    10    55    54    2
    11    84    75   am
    12    50    49    1
    13    75    74    1
    14    43    42    1
    15    54    53    1
    16    45    42    1
    17    45    46    1
    18    49    51    1
    19    49    48    2
    20    47    48    1
    21    47    46    1
    22    42    41    1
    23    74    73    1
    24    74    77    1
    25    82    80   ar
    26    82    83   ar
    27    80    78   ar
    28    83    81   ar
    29    33    32    2
    30    78    77    1
    31    78    79   ar
    32    81    79   ar
    33    53    56    1
    34    53    52    1
    35    72    71    2
    36    56    57    1
    37    36    38   ar
    38    36    35   ar
    39    34    35    1
    40    34    31    1
    41    32    31    1
    42    38    40   ar
    43    35    37   ar
    44    31    30    1
    45    40    39   ar
    46    37    39   ar
    47    59    57    1
    48    71    70    1
    49    57    58    1
    50    25    24    2
    51    30    24   am
    52    70    69    1
    53    63    62    2
    54    24    23    1
    55    27    28    1
    56    27    29    1
    57    27    26    1
    58    20    19    2
    59    62    69   am
    60    62    61    1
    61    17    16    2
    62     9     8    2
    63    23    26    1
    64    23    22    1
    65    19    21   am
    66    19    18    1
    67    68    66   ar
    68    15    16    1
    69    15    18    1
    70    15    14    1
    71    61    60    1
    72    61    64    1
    73    13    11    1
    74     8    14   am
    75     8     7    1
    76    66    65    1
    77    66    67   ar
    78    10     7    1
    79    10    11    1
    80    12    11    1
    81    65    64    1
    82     7     6    1
    83     4     3    2
    84     3     2    1
    85     2     5    1
    86     2     1    1
