@<TRIPOS>MOLECULE
tmp/5qdwA00.pdb
 98 92 0 0 0
SMALL
GASTEIGER

@<TRIPOS>ATOM
      1  N        -35.7360   18.4180   -7.3550 N.3   105  ARG105     -0.1245
      2  CA       -35.4680   19.8280   -7.5990 C.3   105  ARG105      0.1563
      3  C        -35.8260   20.6880   -6.3830 C.2   105  ARG105      0.2260
      4  O        -35.1130   21.6280   -6.0570 O.2   105  ARG105     -0.2867
      5  CB       -36.2580   20.3180   -8.8210 C.3   105  ARG105      0.0307
      6  CG       -36.0800   21.8140   -9.1520 C.3   105  ARG105      0.0489
      7  CD       -34.8240   22.0790   -9.9730 C.3   105  ARG105      0.2205
      8  NE       -34.5430   23.5100  -10.0840 N.pl3 105  ARG105     -0.0865
      9  CZ       -35.3050   24.3850  -10.7340 C.cat 105  ARG105      0.5346
     10  NH1      -36.4250   23.9980  -11.3470 N.pl3 105  ARG105      0.1354
     11  NH2      -34.9470   25.6610  -10.7610 N.pl3 105  ARG105      0.1354
     12  N        -29.3180   32.5850   -2.4880 N.3   146  SER146     -0.1202
     13  CA       -30.2080   33.7350   -2.3610 C.3   146  SER146      0.2020
     14  C        -31.3990   33.3010   -1.5270 C.2   146  SER146      0.2619
     15  O        -31.6380   32.1120   -1.3320 O.2   146  SER146     -0.2717
     16  CB       -30.6970   34.2710   -3.7160 C.3   146  SER146      0.2103
     17  OG       -31.7310   33.4640   -4.2330 O.3   146  SER146     -0.2182
     18  N        -32.1500   34.2920   -1.0610 N.am  147  GLU147     -0.1965
     19  CA       -33.2380   34.1180   -0.1080 C.3   147  GLU147      0.1733
     20  C        -34.2320   35.2390   -0.3830 C.2   147  GLU147      0.2616
     21  O        -33.8270   36.3920   -0.5450 O.2   147  GLU147     -0.2715
     22  CB       -32.7070   34.1760    1.3380 C.3   147  GLU147      0.0429
     23  CG       -33.7400   34.0250    2.4210 C.3   147  GLU147      0.1163
     24  CD       -33.1080   33.8030    3.7890 C.2   147  GLU147      0.3649
     25  OE1      -33.3210   32.7350    4.3840 O.co2 147  GLU147     -0.2457
     26  OE2      -32.3980   34.7010    4.2730 O.co2 147  GLU147     -0.2457
     27  N        -35.5160   34.9000   -0.4780 N.am  148  ASP148     -0.1971
     28  CA       -36.5890   35.8700   -0.7190 C.3   148  ASP148      0.1709
     29  C        -37.6810   35.6870    0.3330 C.2   148  ASP148      0.2293
     30  O        -38.4690   34.7420    0.2520 O.2   148  ASP148     -0.2864
     31  CB       -37.1560   35.6950   -2.1220 C.3   148  ASP148      0.1436
     32  CG       -38.1280   36.7800   -2.5060 C.2   148  ASP148      0.3671
     33  OD1      -38.3380   37.7060   -1.6930 O.co2 148  ASP148     -0.2456
     34  OD2      -38.6730   36.7060   -3.6340 O.co2 148  ASP148     -0.2456
     35  N        -41.0510   36.5570    2.2190 N.3   150  LYS150     -0.1245
     36  CA       -42.3770   37.1370    2.0450 C.3   150  LYS150      0.1561
     37  C        -43.1750   36.9740    3.3310 C.2   150  LYS150      0.2260
     38  O        -42.7080   36.3950    4.3170 O.2   150  LYS150     -0.2867
     39  CB       -43.1080   36.4980    0.8600 C.3   150  LYS150      0.0271
     40  CG       -42.3240   36.5110   -0.4690 C.3   150  LYS150      0.0035
     41  CD       -42.4840   37.7940   -1.2550 C.3   150  LYS150      0.0206
     42  CE       -42.7020   37.5110   -2.7390 C.3   150  LYS150      0.1093
     43  NZ       -41.5670   36.7580   -3.3640 N.3   150  LYS150     -0.1314
     44  N        -38.6460   31.6420    0.0200 N.3   155  VAL155     -0.1231
     45  CA       -38.0050   30.8000   -0.9860 C.3   155  VAL155      0.1692
     46  C        -36.5070   31.0120   -0.9600 C.2   155  VAL155      0.2592
     47  O        -36.0380   32.1470   -1.0780 O.2   155  VAL155     -0.2718
     48  CB       -38.5040   31.1120   -2.4020 C.3   155  VAL155      0.0266
     49  CG1      -37.9870   30.0570   -3.3740 C.3   155  VAL155      0.0020
     50  CG2      -39.9330   31.1500   -2.4290 C.3   155  VAL155      0.0020
     51  N        -35.7620   29.9230   -0.9710 N.am  156  ARG156     -0.1966
     52  CA       -34.3120   29.9960   -1.0020 C.3   156  ARG156      0.1729
     53  C        -33.7750   29.2050   -2.1750 C.2   156  ARG156      0.2616
     54  O        -34.2560   28.1070   -2.4640 O.2   156  ARG156     -0.2715
     55  CB       -33.7090   29.4460    0.2870 C.3   156  ARG156      0.0348
     56  CG       -34.2820   30.0740    1.5320 C.3   156  ARG156      0.0492
     57  CD       -33.6640   29.5160    2.8250 C.3   156  ARG156      0.2205
     58  NE       -34.2200   30.2070    3.9870 N.pl3 156  ARG156     -0.0865
     59  CZ       -35.2740   29.7900    4.6830 C.cat 156  ARG156      0.5346
     60  NH1      -35.8970   28.6440    4.3750 N.pl3 156  ARG156      0.1354
     61  NH2      -35.7040   30.5160    5.7030 N.pl3 156  ARG156      0.1354
     62  N        -32.7580   29.7550   -2.8260 N.am  157  GLN157     -0.1977
     63  CA       -31.9700   29.0160   -3.7940 C.3   157  GLN157      0.1601
     64  C        -30.7260   28.4980   -3.1140 C.2   157  GLN157      0.2287
     65  O        -30.0160   29.2660   -2.4670 O.2   157  GLN157     -0.2864
     66  CB       -31.5560   29.8800   -4.9860 C.3   157  GLN157      0.0394
     67  CG       -32.6590   30.4360   -5.8200 C.3   157  GLN157      0.0908
     68  CD       -32.0880   31.2050   -7.0170 C.2   157  GLN157      0.2608
     69  OE1      -31.2320   32.0830   -6.8580 O.2   157  GLN157     -0.2717
     70  NE2      -32.5310   30.8500   -8.2140 N.am  157  GLN157     -0.0878
     71  N        -28.7530   22.9600   -8.5070 N.3   170  GLU170     -0.1245
     72  CA       -29.5520   23.9770   -7.8530 C.3   170  GLU170      0.1567
     73  C        -30.8150   23.3720   -7.2380 C.2   170  GLU170      0.2260
     74  O        -31.6720   22.8770   -7.9690 O.2   170  GLU170     -0.2867
     75  CB       -29.9450   25.0300   -8.8790 C.3   170  GLU170      0.0388
     76  CG       -30.8120   26.1720   -8.3290 C.3   170  GLU170      0.1160
     77  CD       -31.2780   27.1180   -9.4400 C.2   170  GLU170      0.3649
     78  OE1      -30.5160   27.3380  -10.4070 O.co2 170  GLU170     -0.2457
     79  OE2      -32.4210   27.6150   -9.3720 O.co2 170  GLU170     -0.2457
     80  N        -34.3040   24.2400   -4.9390 N.3   172  LEU172     -0.1245
     81  CA       -35.2010   25.2720   -4.4290 C.3   172  LEU172      0.1561
     82  C        -35.8300   24.8360   -3.0960 C.2   172  LEU172      0.2260
     83  O        -36.4240   23.7610   -3.0120 O.2   172  LEU172     -0.2867
     84  CB       -36.3070   25.5650   -5.4550 C.3   172  LEU172      0.0270
     85  CG       -35.8650   26.0340   -6.8490 C.3   172  LEU172      0.0019
     86  CD1      -37.0850   26.2970   -7.7150 C.3   172  LEU172      0.0001
     87  CD2      -35.0120   27.2690   -6.7530 C.3   172  LEU172      0.0001
     88  N        -38.7200   25.7720   -0.4220 N.3   174  PHE174     -0.1241
     89  CA       -39.9860   26.4700   -0.2570 C.3   174  PHE174      0.1605
     90  C        -40.4640   26.2620    1.1750 C.2   174  PHE174      0.2264
     91  O        -40.8580   25.1570    1.5460 O.2   174  PHE174     -0.2867
     92  CB       -41.0140   25.9610   -1.2650 C.3   174  PHE174      0.0534
     93  CG       -40.7730   26.4310   -2.6690 C.ar  174  PHE174     -0.0203
     94  CD1      -41.2890   27.6580   -3.0770 C.ar  174  PHE174     -0.0042
     95  CD2      -40.0800   25.6580   -3.5870 C.ar  174  PHE174     -0.0042
     96  CE1      -41.1060   28.1170   -4.3560 C.ar  174  PHE174     -0.0003
     97  CE2      -39.8770   26.1230   -4.8910 C.ar  174  PHE174     -0.0003
     98  CZ       -40.4010   27.3540   -5.2650 C.ar  174  PHE174     -0.0000
@<TRIPOS>BOND
     1    10     9    1
     2    11     9    1
     3     9     8    2
     4    78    77   ar
     5     8     7    1
     6     7     6    1
     7    77    79   ar
     8    77    76    1
     9     6     5    1
    10    75    76    1
    11    75    72    1
    12     5     2    1
    13    71    72    1
    14    70    68   am
    15    74    73    2
    16    72    73    1
    17    86    85    1
    18     2     1    1
    19     2     3    1
    20    68    69    2
    21    68    67    1
    22    85    87    1
    23    85    84    1
    24     3     4    2
    25    67    66    1
    26    84    81    1
    27    98    97   ar
    28    98    96   ar
    29    66    63    1
    30    80    81    1
    31    97    95   ar
    32    81    82    1
    33    96    94   ar
    34    17    16    1
    35    63    64    1
    36    63    62    1
    37    16    13    1
    38    34    32   ar
    39    95    93   ar
    40    49    48    1
    41    43    42    1
    42    64    65    2
    43    82    83    2
    44    94    93   ar
    45    62    53   am
    46    42    41    1
    47    93    92    1
    48    32    31    1
    49    32    33   ar
    50    12    13    1
    51    54    53    2
    52    50    48    1
    53    48    45    1
    54    13    14    1
    55    53    52    1
    56    31    28    1
    57    14    15    2
    58    14    18   am
    59    92    89    1
    60    41    40    1
    61    47    46    2
    62    18    19    1
    63    52    51    1
    64    52    55    1
    65    45    46    1
    66    45    44    1
    67    51    46   am
    68    28    27    1
    69    28    29    1
    70    21    20    2
    71    27    20   am
    72    40    39    1
    73    88    89    1
    74    20    19    1
    75    89    90    1
    76    19    22    1
    77    30    29    2
    78    55    56    1
    79    39    36    1
    80    90    91    2
    81    22    23    1
    82    56    57    1
    83    36    35    1
    84    36    37    1
    85    23    24    1
    86    57    58    1
    87    37    38    2
    88    24    26   ar
    89    24    25   ar
    90    58    59    2
    91    60    59    1
    92    59    61    1
