@<TRIPOS>MOLECULE
tmp/5qe0A00.pdb
 100 94 0 0 0
SMALL
GASTEIGER

@<TRIPOS>ATOM
      1  N        -63.3110   11.0470   10.5300 N.3    20  TYR20      -0.1241
      2  CA       -61.8670   10.8260   10.6000 C.3    20  TYR20       0.1605
      3  C        -61.5570    9.4560   11.2010 C.2    20  TYR20       0.2264
      4  O        -60.6820    8.7410   10.7010 O.2    20  TYR20      -0.2867
      5  CB       -61.1910   11.9810   11.3740 C.3    20  TYR20       0.0534
      6  CG       -59.6810   11.8310   11.5520 C.ar   20  TYR20      -0.0201
      7  CD1      -58.8090   11.8740   10.4600 C.ar   20  TYR20      -0.0009
      8  CD2      -59.1410   11.6680   12.8160 C.ar   20  TYR20      -0.0009
      9  CE1      -57.4310   11.7170   10.6270 C.ar   20  TYR20       0.0417
     10  CE2      -57.7840   11.5130   13.0150 C.ar   20  TYR20       0.0417
     11  CZ       -56.9110   11.5360   11.9210 C.ar   20  TYR20       0.1957
     12  OH       -55.5820   11.3920   12.2420 O.3    20  TYR20      -0.2866
     13  N        -59.2790    6.1950    9.8180 N.3    24  ARG24      -0.1245
     14  CA       -58.2540    5.4890   10.5830 C.3    24  ARG24       0.1563
     15  C        -58.5230    3.9900   10.6240 C.2    24  ARG24       0.2260
     16  O        -57.5930    3.1820   10.5370 O.2    24  ARG24      -0.2867
     17  CB       -58.1600    6.0610   11.9980 C.3    24  ARG24       0.0307
     18  CG       -57.6000    7.4760   12.0310 C.3    24  ARG24       0.0489
     19  CD       -57.3080    7.9740   13.4380 C.3    24  ARG24       0.2205
     20  NE       -56.3440    7.1130   14.1240 N.pl3  24  ARG24      -0.0865
     21  CZ       -55.6370    7.4710   15.1920 C.cat  24  ARG24       0.5346
     22  NH1      -55.7620    8.6920   15.7090 N.pl3  24  ARG24       0.1354
     23  NH2      -54.7860    6.6070   15.7370 N.pl3  24  ARG24       0.1354
     24  N        -39.7020    9.6030   15.9370 N.3    46  TYR46      -0.1241
     25  CA       -40.8530    9.1770   16.7310 C.3    46  TYR46       0.1605
     26  C        -40.9970    7.6660   16.5730 C.2    46  TYR46       0.2264
     27  O        -40.9200    7.1460   15.4520 O.2    46  TYR46      -0.2867
     28  CB       -42.1650    9.8800   16.3030 C.3    46  TYR46       0.0534
     29  CG       -42.1470   11.4060   16.3780 C.ar   46  TYR46      -0.0201
     30  CD1      -42.2450   12.0700   17.5990 C.ar   46  TYR46      -0.0009
     31  CD2      -42.0590   12.1800   15.2190 C.ar   46  TYR46      -0.0009
     32  CE1      -42.2360   13.4620   17.6650 C.ar   46  TYR46       0.0417
     33  CE2      -42.0530   13.5540   15.2780 C.ar   46  TYR46       0.0417
     34  CZ       -42.1400   14.1970   16.5080 C.ar   46  TYR46       0.1957
     35  OH       -42.1220   15.5740   16.5970 O.3    46  TYR46      -0.2866
     36  N        -43.5550    5.7190   16.8970 N.3    48  ASP48      -0.1225
     37  CA       -44.8050    5.2750   16.2880 C.3    48  ASP48       0.1805
     38  C        -45.0180    5.8140   14.8730 C.2    48  ASP48       0.2597
     39  O        -46.1180    5.6600   14.3350 O.2    48  ASP48      -0.2718
     40  CB       -45.9940    5.6780   17.1700 C.3    48  ASP48       0.1424
     41  CG       -46.0800    7.1820   17.3970 C.2    48  ASP48       0.3668
     42  OD1      -45.0200    7.8480   17.4310 O.co2  48  ASP48      -0.2456
     43  OD2      -47.2100    7.6990   17.5510 O.co2  48  ASP48      -0.2456
     44  N        -44.0080    6.4420   14.2640 N.am   49  VAL49      -0.1980
     45  CA       -44.0920    6.8980   12.8660 C.3    49  VAL49       0.1595
     46  C        -42.9330    6.2820   12.0990 C.2    49  VAL49       0.2287
     47  O        -41.7800    6.7100   12.2550 O.2    49  VAL49      -0.2864
     48  CB       -44.0700    8.4260   12.7370 C.3    49  VAL49       0.0276
     49  CG1      -44.1950    8.8480   11.2160 C.3    49  VAL49       0.0022
     50  CG2      -45.1980    9.0550   13.5460 C.3    49  VAL49       0.0022
     51  N        -42.4660   17.8110    7.5590 N.3   215  CYS215     -0.1221
     52  CA       -42.7890   18.6710    8.6930 C.3   215  CYS215      0.1808
     53  C        -41.9890   18.0980    9.8560 C.2   215  CYS215      0.2602
     54  O        -40.8230   17.7420    9.6700 O.2   215  CYS215     -0.2717
     55  CB       -44.3030   18.7250    8.9300 C.3   215  CYS215      0.0970
     56  SG       -45.2070   17.0860    8.8480 S.3   215  CYS215     -0.0800
     57  N        -42.5760   17.9170   11.0380 N.am  216  SER216     -0.1938
     58  CA       -41.7890   17.2410   12.0610 C.3   216  SER216      0.2055
     59  C        -41.8270   15.7180   11.8920 C.2   216  SER216      0.2642
     60  O        -40.7730   15.0760   11.7760 O.2   216  SER216     -0.2714
     61  CB       -42.2470   17.6630   13.4600 C.3   216  SER216      0.2130
     62  OG       -41.2610   17.2450   14.4080 O.3   216  SER216     -0.2179
     63  N        -43.0230   15.1110   11.8830 N.am  217  ALA217     -0.1977
     64  CA       -43.1100   13.6570   11.6760 C.3   217  ALA217      0.1597
     65  C        -43.2680   13.2590   10.2050 C.2   217  ALA217      0.2287
     66  O        -43.0990   12.0740    9.8680 O.2   217  ALA217     -0.2864
     67  CB       -44.2800   13.0810   12.4840 C.3   217  ALA217      0.0319
     68  N        -46.1900   13.4070    8.3700 N.3   219  ILE219     -0.1231
     69  CA       -47.4910   12.7780    8.1050 C.3   219  ILE219      0.1692
     70  C        -48.6750   13.7400    8.2020 C.2   219  ILE219      0.2592
     71  O        -49.6810   13.5570    7.5100 O.2   219  ILE219     -0.2718
     72  CB       -47.7260   11.5660    9.0290 C.3   219  ILE219      0.0266
     73  CG1      -47.7340   11.9530   10.5050 C.3   219  ILE219      0.0019
     74  CG2      -46.6880   10.5100    8.7330 C.3   219  ILE219      0.0020
     75  CD1      -48.0470   10.7600   11.4400 C.3   219  ILE219      0.0001
     76  N        -48.5730   14.7840    9.0290 N.am  220  GLY220     -0.1957
     77  CA       -49.7020   15.6730    9.2540 C.3   220  GLY220      0.1869
     78  C        -49.8550   16.8220    8.2690 C.2   220  GLY220      0.2309
     79  O        -50.6640   16.7360    7.3400 O.2   220  GLY220     -0.2863
     80  N        -48.0530    5.5970    6.6060 N.3   258  MET258     -0.1230
     81  CA       -49.0460    5.6000    7.6660 C.3   258  MET258      0.1702
     82  C        -49.3690    7.0050    8.1860 C.2   258  MET258      0.2592
     83  O        -48.5390    7.9200    8.1860 O.2   258  MET258     -0.2718
     84  CB       -48.5520    4.7420    8.8450 C.3   258  MET258      0.0401
     85  CG       -47.2580    5.2710    9.5240 C.3   258  MET258      0.0596
     86  SD       -46.7800    4.4050   11.0920 S.3   258  MET258     -0.1393
     87  CE       -46.3620    2.7460   10.4390 C.3   258  MET258      0.0692
     88  N        -50.5890    7.1570    8.6830 N.am  259  GLY259     -0.1957
     89  CA       -50.9280    8.2960    9.5270 C.3   259  GLY259      0.1869
     90  C        -51.1520    9.6310    8.8380 C.2   259  GLY259      0.2309
     91  O        -51.3070   10.6440    9.5320 O.2   259  GLY259     -0.2863
     92  N        -53.3800   14.0160   10.5960 N.3   262  GLN262     -0.1245
     93  CA       -53.2310   13.5670   11.9880 C.3   262  GLN262      0.1566
     94  C        -54.4210   13.9010   12.8740 C.2   262  GLN262      0.2260
     95  O        -54.5330   13.3420   13.9740 O.2   262  GLN262     -0.2867
     96  CB       -51.9870   14.2000   12.6260 C.3   262  GLN262      0.0367
     97  CG       -50.6780   13.5720   12.2520 C.3   262  GLN262      0.0905
     98  CD       -49.5050   14.3330   12.8800 C.2   262  GLN262      0.2608
     99  OE1      -49.2530   15.5020   12.5560 O.2   262  GLN262     -0.2717
    100  NE2      -48.8020   13.6800   13.7980 N.am  262  GLN262     -0.0878
@<TRIPOS>BOND
     1    80    81    1
     2    79    78    2
     3    71    70    2
     4    51    52    1
     5    81    82    1
     6    81    84    1
     7    69    70    1
     8    69    68    1
     9    69    72    1
    10    82    83    2
    11    82    88   am
    12    70    76   am
    13    78    77    1
    14    88    89    1
    15    52    55    1
    16    52    53    1
    17    74    72    1
    18    90    89    1
    19    90    91    2
    20    84    85    1
    21    56    55    1
    22    72    73    1
    23    76    77    1
    24    85    86    1
    25    54    53    2
    26    13    14    1
    27    53    57   am
    28    66    65    2
    29    65    64    1
    30    87    86    1
    31     7     9   ar
    32     7     6   ar
    33    73    75    1
    34     1     2    1
    35    16    15    2
    36    14    15    1
    37    14    17    1
    38    92    93    1
    39     2     3    1
    40     2     5    1
    41     9    11   ar
    42     4     3    2
    43    57    58    1
    44    49    48    1
    45     5     6    1
    46     6     8   ar
    47    64    63    1
    48    64    67    1
    49    60    59    2
    50    63    59   am
    51    59    58    1
    52    11    12    1
    53    11    10   ar
    54    93    96    1
    55    93    94    1
    56    17    18    1
    57    18    19    1
    58    58    61    1
    59    46    47    2
    60    46    45    1
    61    97    96    1
    62    97    98    1
    63    99    98    2
    64    48    45    1
    65    48    50    1
    66     8    10   ar
    67    45    44    1
    68    94    95    2
    69    98   100   am
    70    19    20    1
    71    61    62    1
    72    20    21    2
    73    44    38   am
    74    39    38    2
    75    38    37    1
    76    21    22    1
    77    21    23    1
    78    31    33   ar
    79    31    29   ar
    80    33    34   ar
    81    27    26    2
    82    24    25    1
    83    37    36    1
    84    37    40    1
    85    28    29    1
    86    28    25    1
    87    29    30   ar
    88    34    35    1
    89    34    32   ar
    90    26    25    1
    91    40    41    1
    92    41    42   ar
    93    41    43   ar
    94    30    32   ar
