@<TRIPOS>MOLECULE
tmp/5qe0A01.pdb
 84 82 0 0 0
SMALL
GASTEIGER

@<TRIPOS>ATOM
      1  N        -32.7960   12.6330   -7.4180 N.3   103  LYS103     -0.1231
      2  CA       -32.8620   13.6930   -8.4540 C.3   103  LYS103      0.1693
      3  C        -33.9710   14.7180   -8.2000 C.2   103  LYS103      0.2593
      4  O        -34.5080   15.3380   -9.1250 O.2   103  LYS103     -0.2718
      5  CB       -32.9770   13.0840   -9.8620 C.3   103  LYS103      0.0285
      6  CG       -31.7890   12.1670  -10.1820 C.3   103  LYS103      0.0035
      7  CD       -31.9050   11.5040  -11.5560 C.3   103  LYS103      0.0206
      8  CE       -30.5420   11.0470  -12.0860 C.3   103  LYS103      0.1093
      9  NZ       -29.8360   10.1200  -11.1630 N.3   103  LYS103     -0.1314
     10  N        -34.2920   14.9660   -6.9380 N.am  104  SER104     -0.1938
     11  CA       -35.2750   15.9860   -6.5960 C.3   104  SER104      0.2055
     12  C        -34.7840   17.3990   -6.9450 C.2   104  SER104      0.2642
     13  O        -33.5960   17.6920   -6.8780 O.2   104  SER104     -0.2714
     14  CB       -35.5880   15.9180   -5.1020 C.3   104  SER104      0.2130
     15  OG       -35.9140   14.6100   -4.7040 O.3   104  SER104     -0.2179
     16  N        -35.7210   18.2480   -7.3660 N.am  105  ARG105     -0.1977
     17  CA       -35.4520   19.6630   -7.5900 C.3   105  ARG105      0.1597
     18  C        -35.8070   20.5020   -6.3670 C.2   105  ARG105      0.2287
     19  O        -35.0700   21.4330   -6.0270 O.2   105  ARG105     -0.2864
     20  CB       -36.2330   20.1660   -8.8080 C.3   105  ARG105      0.0334
     21  CG       -36.0440   21.6630   -9.1360 C.3   105  ARG105      0.0492
     22  CD       -34.7930   21.9260   -9.9800 C.3   105  ARG105      0.2205
     23  NE       -34.5140   23.3570  -10.0900 N.pl3 105  ARG105     -0.0865
     24  CZ       -35.2850   24.2360  -10.7270 C.cat 105  ARG105      0.5346
     25  NH1      -36.4150   23.8490  -11.3250 N.pl3 105  ARG105      0.1354
     26  NH2      -34.9370   25.5160  -10.7550 N.pl3 105  ARG105      0.1354
     27  N        -22.5890   19.4450   -9.6470 N.3   168  THR168     -0.1203
     28  CA       -23.3940   20.3810   -8.8640 C.3   168  THR168      0.1994
     29  C        -24.8250   20.4540   -9.3890 C.2   168  THR168      0.2618
     30  O        -25.0730   20.2790  -10.5830 O.2   168  THR168     -0.2717
     31  CB       -22.8110   21.8290   -8.8770 C.3   168  THR168      0.1784
     32  OG1      -22.8730   22.4030  -10.1950 O.3   168  THR168     -0.2211
     33  CG2      -21.3930   21.8550   -8.3340 C.3   168  THR168      0.0376
     34  N        -25.7690   20.7810   -8.4980 N.am  169  ARG169     -0.1965
     35  CA       -27.1750   20.9610   -8.8580 C.3   169  ARG169      0.1729
     36  C        -27.8040   22.0700   -8.0280 C.2   169  ARG169      0.2616
     37  O        -27.4130   22.3180   -6.8870 O.2   169  ARG169     -0.2715
     38  CB       -28.0140   19.7050   -8.6300 C.3   169  ARG169      0.0348
     39  CG       -27.9200   18.6600   -9.6900 C.3   169  ARG169      0.0492
     40  CD       -28.7020   17.4280   -9.2770 C.3   169  ARG169      0.2205
     41  NE       -28.0750   16.2210   -9.8050 N.pl3 169  ARG169     -0.0865
     42  CZ       -28.3210   14.9960   -9.3640 C.cat 169  ARG169      0.5346
     43  NH1      -29.2110   14.8030   -8.3880 N.pl3 169  ARG169      0.1354
     44  NH2      -27.6800   13.9680   -9.9050 N.pl3 169  ARG169      0.1354
     45  N        -28.8020   22.7050   -8.6160 N.am  170  GLU170     -0.1963
     46  CA       -29.5700   23.7370   -7.9500 C.3   170  GLU170      0.1733
     47  C        -30.8260   23.1320   -7.3120 C.2   170  GLU170      0.2616
     48  O        -31.6570   22.5500   -8.0050 O.2   170  GLU170     -0.2715
     49  CB       -29.9440   24.8110   -8.9580 C.3   170  GLU170      0.0429
     50  CG       -30.7590   25.9610   -8.4000 C.3   170  GLU170      0.1163
     51  CD       -31.2270   26.9020   -9.5000 C.2   170  GLU170      0.3649
     52  OE1      -30.4740   27.1120  -10.4790 O.co2 170  GLU170     -0.2457
     53  OE2      -32.3650   27.4010   -9.4040 O.co2 170  GLU170     -0.2457
     54  N        -30.9900   23.3190   -6.0040 N.am  171  ILE171     -0.1977
     55  CA       -32.1770   22.8640   -5.2670 C.3   171  ILE171      0.1596
     56  C        -32.9730   24.0710   -4.7760 C.2   171  ILE171      0.2287
     57  O        -32.4040   25.0110   -4.2110 O.2   171  ILE171     -0.2864
     58  CB       -31.7530   21.9920   -4.0720 C.3   171  ILE171      0.0276
     59  CG1      -30.7910   20.8850   -4.4910 C.3   171  ILE171      0.0022
     60  CG2      -32.9760   21.4230   -3.3440 C.3   171  ILE171      0.0022
     61  CD1      -31.3550   19.8660   -5.4560 C.3   171  ILE171      0.0001
     62  N        -40.2390   16.0300  -15.2560 N.3   207  GLU207     -0.1231
     63  CA       -38.8480   16.1040  -15.7100 C.3   207  GLU207      0.1699
     64  C        -37.8510   16.1070  -14.5570 C.2   207  GLU207      0.2592
     65  O        -36.6430   16.2120  -14.7940 O.2   207  GLU207     -0.2718
     66  CB       -38.6260   17.3540  -16.5860 C.3   207  GLU207      0.0402
     67  CG       -38.8240   18.7120  -15.8830 C.3   207  GLU207      0.1161
     68  CD       -40.0700   19.4790  -16.3480 C.2   207  GLU207      0.3649
     69  OE1      -41.0290   18.8500  -16.8520 O.co2 207  GLU207     -0.2457
     70  OE2      -40.0990   20.7220  -16.1890 O.co2 207  GLU207     -0.2457
     71  N        -38.3300   16.0520  -13.3230 N.am  208  HIS208     -0.1962
     72  CA       -37.4710   15.9560  -12.1540 C.3   208  HIS208      0.1787
     73  C        -37.8810   14.7440  -11.3250 C.2   208  HIS208      0.2620
     74  O        -38.9910   14.2240  -11.4680 O.2   208  HIS208     -0.2715
     75  CB       -37.5910   17.2380  -11.3080 C.3   208  HIS208      0.0785
     76  CG       -37.2010   18.4870  -12.0450 C.ar  208  HIS208      0.0821
     77  ND1      -35.9100   18.7190  -12.4790 N.ar  208  HIS208     -0.2267
     78  CD2      -37.9240   19.5720  -12.4150 C.ar  208  HIS208      0.1154
     79  CE1      -35.8580   19.8880  -13.0960 C.ar  208  HIS208      0.1986
     80  NE2      -37.0660   20.4260  -13.0650 N.ar  208  HIS208     -0.2212
     81  N        -37.0070   14.3340  -10.4180 N.am  209  GLY209     -0.1954
     82  CA       -37.3800   13.3830   -9.3900 C.3   209  GLY209      0.1869
     83  C        -38.4790   13.9310   -8.4820 C.2   209  GLY209      0.2309
     84  O        -38.8510   15.1210   -8.5510 O.2   209  GLY209     -0.2863
@<TRIPOS>BOND
     1    69    68   ar
     2    66    67    1
     3    66    63    1
     4    68    70   ar
     5    68    67    1
     6    63    62    1
     7    63    64    1
     8    65    64    2
     9    64    71   am
    10    71    72    1
    11    79    80   ar
    12    79    77   ar
    13    80    78   ar
    14    77    76   ar
    15    78    76   ar
    16    72    73    1
    17    72    75    1
    18     8     7    1
    19     8     9    1
    20    76    75    1
    21     7     6    1
    22    74    73    2
    23    73    81   am
    24    25    24    1
    25    26    24    1
    26    24    23    2
    27    30    29    2
    28    52    51   ar
    29    81    82    1
    30    32    31    1
    31     6     5    1
    32    23    22    1
    33    22    21    1
    34    44    42    1
    35     5     2    1
    36    41    42    2
    37    41    40    1
    38    39    40    1
    39    39    38    1
    40    27    28    1
    41    51    53   ar
    42    51    50    1
    43    82    83    1
    44    29    28    1
    45    29    34   am
    46    42    43    1
    47    21    20    1
    48     4     3    2
    49    49    50    1
    50    49    46    1
    51    31    28    1
    52    31    33    1
    53    35    38    1
    54    35    34    1
    55    35    36    1
    56    20    17    1
    57    45    36   am
    58    45    46    1
    59    84    83    2
    60     2     3    1
    61     2     1    1
    62     3    10   am
    63    36    37    2
    64    48    47    2
    65    46    47    1
    66    17    16    1
    67    17    18    1
    68    16    12   am
    69    47    54   am
    70    12    13    2
    71    12    11    1
    72    10    11    1
    73    11    14    1
    74    18    19    2
    75    54    55    1
    76    61    59    1
    77    55    56    1
    78    55    58    1
    79    14    15    1
    80    56    57    2
    81    59    58    1
    82    58    60    1
