@<TRIPOS>MOLECULE
tmp/5qe2A00.pdb
 101 95 0 0 0
SMALL
GASTEIGER

@<TRIPOS>ATOM
      1  N         22.7290   -8.8540  -21.8100 N.3     2  GLU2       -0.1231
      2  CA        24.1040   -9.1360  -22.2030 C.3     2  GLU2        0.1699
      3  C         24.8500   -9.5950  -20.9540 C.2     2  GLU2        0.2592
      4  O         24.2860   -9.5920  -19.8540 O.2     2  GLU2       -0.2718
      5  CB        24.7640   -7.9010  -22.8310 C.3     2  GLU2        0.0402
      6  CG        26.2560   -8.0550  -23.1480 C.3     2  GLU2        0.1161
      7  CD        26.9240   -6.7670  -23.5360 C.2     2  GLU2        0.3649
      8  OE1       27.4850   -6.7110  -24.6470 O.co2   2  GLU2       -0.2457
      9  OE2       26.9060   -5.8140  -22.7260 O.co2   2  GLU2       -0.2457
     10  N         26.1050  -10.0010  -21.1030 N.am    3  MET3       -0.1965
     11  CA        26.8860  -10.5050  -19.9860 C.3     3  MET3        0.1736
     12  C         27.6050   -9.4160  -19.1920 C.2     3  MET3        0.2616
     13  O         27.4710   -9.3710  -17.9650 O.2     3  MET3       -0.2715
     14  CB        27.8920  -11.5230  -20.5070 C.3     3  MET3        0.0427
     15  CG        28.5850  -12.2910  -19.4130 C.3     3  MET3        0.0599
     16  SD        29.5460  -13.6400  -20.0810 S.3     3  MET3       -0.1393
     17  CE        29.9910  -12.9840  -21.6880 C.3     3  MET3        0.0692
     18  N         28.3890   -8.5590  -19.8550 N.am    4  GLU4       -0.1977
     19  CA        29.2280   -7.6060  -19.1250 C.3     4  GLU4        0.1602
     20  C         28.4030   -6.6040  -18.3290 C.2     4  GLU4        0.2287
     21  O         28.8560   -6.1160  -17.2850 O.2     4  GLU4       -0.2864
     22  CB        30.1590   -6.8520  -20.0760 C.3     4  GLU4        0.0415
     23  CG        30.9190   -5.7130  -19.3930 C.3     4  GLU4        0.1163
     24  CD        32.3320   -5.5190  -19.9310 C.2     4  GLU4        0.3649
     25  OE1       32.5320   -5.6740  -21.1550 O.co2   4  GLU4       -0.2457
     26  OE2       33.2450   -5.2130  -19.1270 O.co2   4  GLU4       -0.2457
     27  N         32.8290  -19.3990  -24.5550 N.3   232  LEU232     -0.1245
     28  CA        33.6710  -18.7410  -25.5630 C.3   232  LEU232      0.1561
     29  C         33.5140  -19.3540  -26.9610 C.2   232  LEU232      0.2260
     30  O         33.5160  -18.6290  -27.9650 O.2   232  LEU232     -0.2867
     31  CB        35.1270  -18.7850  -25.1050 C.3   232  LEU232      0.0270
     32  CG        35.4430  -17.9290  -23.8850 C.3   232  LEU232      0.0019
     33  CD1       36.8470  -18.2790  -23.3390 C.3   232  LEU232      0.0001
     34  CD2       35.3480  -16.4500  -24.2130 C.3   232  LEU232      0.0001
     35  N         30.3000  -18.0590  -28.4650 N.3   235  MET235     -0.1230
     36  CA        30.4010  -16.6620  -28.8960 C.3   235  MET235      0.1702
     37  C         31.0930  -16.5360  -30.2500 C.2   235  MET235      0.2592
     38  O         30.8100  -15.5870  -30.9980 O.2   235  MET235     -0.2718
     39  CB        31.1350  -15.8310  -27.8380 C.3   235  MET235      0.0401
     40  CG        30.3040  -15.6150  -26.6020 C.3   235  MET235      0.0596
     41  SD        31.1230  -14.7010  -25.2320 S.3   235  MET235     -0.1393
     42  CE        31.0060  -13.0500  -25.8370 C.3   235  MET235      0.0692
     43  N         31.9570  -17.4880  -30.6000 N.am  236  ASP236     -0.1974
     44  CA        32.6170  -17.5170  -31.9110 C.3   236  ASP236      0.1709
     45  C         31.7220  -18.0540  -33.0210 C.2   236  ASP236      0.2293
     46  O         31.9160  -17.7030  -34.1880 O.2   236  ASP236     -0.2864
     47  CB        33.8640  -18.4000  -31.8730 C.3   236  ASP236      0.1436
     48  CG        35.1250  -17.6310  -31.5660 C.2   236  ASP236      0.3671
     49  OD1       35.1010  -16.3850  -31.6090 O.co2 236  ASP236     -0.2456
     50  OD2       36.1460  -18.2890  -31.2790 O.co2 236  ASP236     -0.2456
     51  N         26.9360  -12.7210  -30.6970 N.3   241  PRO241     -0.2102
     52  CA        27.5970  -13.2490  -29.4820 C.3   241  PRO241      0.1504
     53  C         26.9480  -12.8000  -28.1810 C.2   241  PRO241      0.2576
     54  O         27.0630  -13.4950  -27.1670 O.2   241  PRO241     -0.2718
     55  CB        29.0300  -12.7150  -29.6020 C.3   241  PRO241      0.0282
     56  CG        29.2210  -12.4700  -31.0610 C.3   241  PRO241      0.0208
     57  CD        27.8850  -12.0440  -31.5880 C.3   241  PRO241      0.0893
     58  N         26.2730  -11.6590  -28.1670 N.am  242  SER242     -0.1953
     59  CA        25.6330  -11.2180  -26.9300 C.3   242  SER242      0.1924
     60  C         24.4260  -12.0680  -26.5680 C.2   242  SER242      0.2314
     61  O         23.8550  -11.8720  -25.4870 O.2   242  SER242     -0.2863
     62  CB        25.2120   -9.7550  -27.0510 C.3   242  SER242      0.2116
     63  OG        24.0680   -9.6250  -27.8880 O.3   242  SER242     -0.2180
     64  N         34.0750  -12.8850  -19.9890 N.3   275  ILE275     -0.1245
     65  CA        34.0960  -11.4830  -20.4150 C.3   275  ILE275      0.1561
     66  C         35.4760  -11.0730  -20.9170 C.2   275  ILE275      0.2260
     67  O         35.6130  -10.4630  -21.9810 O.2   275  ILE275     -0.2867
     68  CB        33.6400  -10.5940  -19.2540 C.3   275  ILE275      0.0252
     69  CG1       32.1710  -10.8450  -18.9930 C.3   275  ILE275      0.0019
     70  CG2       33.8650   -9.1680  -19.5730 C.3   275  ILE275      0.0019
     71  CD1       31.6830  -10.2560  -17.7300 C.3   275  ILE275      0.0001
     72  N         36.5820  -12.9940  -24.1360 N.3   278  ALA278     -0.1231
     73  CA        35.9550  -12.6340  -25.4060 C.3   278  ALA278      0.1694
     74  C         36.6590  -11.4600  -26.0790 C.2   278  ALA278      0.2591
     75  O         36.5480  -11.2950  -27.2900 O.2   278  ALA278     -0.2718
     76  CB        34.4790  -12.2960  -25.1910 C.3   278  ALA278      0.0304
     77  N         37.4140  -10.6740  -25.3230 N.am  279  LYS279     -0.1980
     78  CA        38.1200   -9.5260  -25.8860 C.3   279  LYS279      0.1596
     79  C         39.4330   -9.9420  -26.5000 C.2   279  LYS279      0.2287
     80  O         39.8880   -9.3510  -27.4800 O.2   279  LYS279     -0.2864
     81  CB        38.3760   -8.4980  -24.7940 C.3   279  LYS279      0.0298
     82  CG        37.1330   -8.1490  -24.0320 C.3   279  LYS279      0.0038
     83  CD        37.4590   -7.3950  -22.7740 C.3   279  LYS279      0.0206
     84  CE        36.2890   -6.5010  -22.3590 C.3   279  LYS279      0.1093
     85  NZ        36.3260   -6.1500  -20.9010 N.3   279  LYS279     -0.1314
     86  N         39.9930  -12.9060  -27.8670 N.3   281  ILE281     -0.1231
     87  CA        39.7680  -13.7620  -29.0270 C.3   281  ILE281      0.1692
     88  C         39.8240  -12.9350  -30.3040 C.2   281  ILE281      0.2591
     89  O         40.3310  -13.3890  -31.3400 O.2   281  ILE281     -0.2718
     90  CB        38.4310  -14.5050  -28.8670 C.3   281  ILE281      0.0266
     91  CG1       38.4530  -15.8490  -29.5940 C.3   281  ILE281      0.0019
     92  CG2       37.2640  -13.6560  -29.3640 C.3   281  ILE281      0.0020
     93  CD1       38.1760  -17.0160  -28.6640 C.3   281  ILE281      0.0001
     94  N         39.3410  -11.7020  -30.2390 N.am  282  MET282     -0.1979
     95  CA        39.2740  -10.8500  -31.4200 C.3   282  MET282      0.1605
     96  C         40.4550   -9.8840  -31.4760 C.2   282  MET282      0.2287
     97  O         40.9150   -9.5100  -32.5610 O.2   282  MET282     -0.2864
     98  CB        37.9610  -10.0730  -31.4330 C.3   282  MET282      0.0413
     99  CG        36.7350  -10.9190  -31.0920 C.3   282  MET282      0.0598
    100  SD        35.1900   -9.9910  -31.1740 S.3   282  MET282     -0.1393
    101  CE        33.9820  -11.3240  -30.9970 C.3   282  MET282      0.0692
@<TRIPOS>BOND
     1    46    45    2
     2    45    44    1
     3    97    96    2
     4    44    47    1
     5    44    43    1
     6    47    48    1
     7    49    48   ar
     8    57    56    1
     9    57    51    1
    10    48    50   ar
    11    96    95    1
    12    98    95    1
    13    98    99    1
    14    95    94    1
    15    89    88    2
    16   100    99    1
    17   100   101    1
    18    56    55    1
    19    38    37    2
    20    51    52    1
    21    43    37   am
    22    88    94   am
    23    88    87    1
    24    37    36    1
    25    55    52    1
    26    91    90    1
    27    91    93    1
    28    52    53    1
    29    92    90    1
    30    87    90    1
    31    87    86    1
    32    36    35    1
    33    36    39    1
    34    53    58   am
    35    53    54    2
    36    58    59    1
    37    30    29    2
    38    63    62    1
    39    39    40    1
    40    80    79    2
    41    75    74    2
    42    62    59    1
    43    29    28    1
    44    59    60    1
    45    40    41    1
    46    60    61    2
    47    79    78    1
    48    74    73    1
    49    74    77   am
    50    78    77    1
    51    78    81    1
    52    42    41    1
    53    28    31    1
    54    28    27    1
    55    73    76    1
    56    73    72    1
    57    31    32    1
    58    81    82    1
    59     8     7   ar
    60    34    32    1
    61    82    83    1
    62    32    33    1
    63     7     6    1
    64     7     9   ar
    65     6     5    1
    66     5     2    1
    67    83    84    1
    68    84    85    1
    69     2     1    1
    70     2     3    1
    71    67    66    2
    72    17    16    1
    73    25    24   ar
    74    10     3   am
    75    10    11    1
    76     3     4    2
    77    66    65    1
    78    14    11    1
    79    14    15    1
    80    65    64    1
    81    65    68    1
    82    16    15    1
    83    22    23    1
    84    22    19    1
    85    11    12    1
    86    24    23    1
    87    24    26   ar
    88    18    12   am
    89    18    19    1
    90    70    68    1
    91    68    69    1
    92    12    13    2
    93    19    20    1
    94    69    71    1
    95    20    21    2
