@<TRIPOS>MOLECULE
tmp/5qe5A01.pdb
 84 79 0 0 0
SMALL
GASTEIGER

@<TRIPOS>ATOM
      1  N        -70.8810   15.1910   -4.0990 N.3     2  GLU2       -0.1245
      2  CA       -69.9500   16.2450   -4.4890 C.3     2  GLU2        0.1567
      3  C        -69.1860   16.6620   -3.2350 C.2     2  GLU2        0.2260
      4  O        -69.4700   16.1710   -2.1360 O.2     2  GLU2       -0.2867
      5  CB       -70.6910   17.4330   -5.1260 C.3     2  GLU2        0.0388
      6  CG       -69.8100   18.6450   -5.4320 C.3     2  GLU2        0.1160
      7  CD       -70.5960   19.8770   -5.8290 C.2     2  GLU2        0.3649
      8  OE1      -70.3700   20.3850   -6.9470 O.co2   2  GLU2       -0.2457
      9  OE2      -71.4310   20.3540   -5.0270 O.co2   2  GLU2       -0.2457
     10  N        -56.6940   18.6850   -6.7970 N.3   232  LEU232     -0.1245
     11  CA       -56.8500   19.7500   -7.7930 C.3   232  LEU232      0.1561
     12  C        -56.3950   19.3090   -9.1860 C.2   232  LEU232      0.2260
     13  O        -57.0280   19.6640  -10.1920 O.2   232  LEU232     -0.2867
     14  CB       -56.0830   20.9950   -7.3350 C.3   232  LEU232      0.0270
     15  CG       -56.6990   21.6990   -6.1240 C.3   232  LEU232      0.0019
     16  CD1      -55.7050   22.7320   -5.5590 C.3   232  LEU232      0.0001
     17  CD2      -58.0240   22.3560   -6.4590 C.3   232  LEU232      0.0001
     18  N        -59.0980   17.1810  -10.7110 N.3   235  MET235     -0.1230
     19  CA       -60.2620   17.9580  -11.1320 C.3   235  MET235      0.1702
     20  C        -60.0310   18.6190  -12.4860 C.2   235  MET235      0.2592
     21  O        -60.9920   18.8240  -13.2370 O.2   235  MET235     -0.2718
     22  CB       -60.6280   19.0040  -10.0770 C.3   235  MET235      0.0401
     23  CG       -61.2290   18.3860   -8.8510 C.3   235  MET235      0.0596
     24  SD       -61.5960   19.5250   -7.4720 S.3   235  MET235     -0.1393
     25  CE       -63.0920   20.2630   -8.0710 C.3   235  MET235      0.0692
     26  N        -58.7790   18.9160  -12.8290 N.am  236  ASP236     -0.1974
     27  CA       -58.4320   19.4520  -14.1510 C.3   236  ASP236      0.1709
     28  C        -58.4040   18.3910  -15.2490 C.2   236  ASP236      0.2293
     29  O        -58.6150   18.7140  -16.4230 O.2   236  ASP236     -0.2864
     30  CB       -57.0490   20.1000  -14.1190 C.3   236  ASP236      0.1436
     31  CG       -57.0920   21.5760  -13.7980 C.2   236  ASP236      0.3671
     32  OD1      -58.1830   22.1830  -13.8550 O.co2 236  ASP236     -0.2456
     33  OD2      -56.0140   22.1350  -13.4970 O.co2 236  ASP236     -0.2456
     34  N        -65.5260   14.9030  -15.5450 N.3   240  ASP240     -0.1225
     35  CA       -66.4720   15.3060  -14.5090 C.3   240  ASP240      0.1790
     36  C        -65.7220   15.6420  -13.2310 C.2   240  ASP240      0.2440
     37  O        -65.4130   14.7320  -12.4500 O.2   240  ASP240     -0.2733
     38  CB       -67.4780   14.1910  -14.2580 C.3   240  ASP240      0.1423
     39  CG       -68.4510   14.5190  -13.1430 C.2   240  ASP240      0.3668
     40  OD1      -68.5010   15.6940  -12.6850 O.co2 240  ASP240     -0.2456
     41  OD2      -69.1800   13.5890  -12.7320 O.co2 240  ASP240     -0.2456
     42  N        -65.4060   16.9160  -12.9680 N.am  241  PRO241     -0.2718
     43  CA       -64.6060   17.2320  -11.7660 C.3   241  PRO241      0.1535
     44  C        -65.3050   16.8930  -10.4630 C.2   241  PRO241      0.2599
     45  O        -64.6240   16.6520   -9.4640 O.2   241  PRO241     -0.2715
     46  CB       -64.3590   18.7400  -11.8920 C.3   241  PRO241      0.0310
     47  CG       -64.4910   19.0250  -13.3330 C.3   241  PRO241      0.0237
     48  CD       -65.5240   18.0730  -13.8620 C.3   241  PRO241      0.0939
     49  N        -66.6380   16.8620  -10.4340 N.am  242  SER242     -0.1950
     50  CA       -67.3430   16.5260   -9.1970 C.3   242  SER242      0.1924
     51  C        -67.2020   15.0550   -8.8230 C.2   242  SER242      0.2314
     52  O        -67.6580   14.6610   -7.7440 O.2   242  SER242     -0.2863
     53  CB       -68.8270   16.8850   -9.3260 C.3   242  SER242      0.2116
     54  OG       -69.4990   15.9430  -10.1480 O.3   242  SER242     -0.2180
     55  N        -60.3810   25.1140   -6.3920 N.3   278  ALA278     -0.1231
     56  CA       -61.0220   24.7580   -7.6560 C.3   278  ALA278      0.1694
     57  C        -61.6950   25.9580   -8.3260 C.2   278  ALA278      0.2591
     58  O        -61.9380   25.9240   -9.5320 O.2   278  ALA278     -0.2718
     59  CB       -62.0420   23.6450   -7.4320 C.3   278  ALA278      0.0304
     60  N        -61.9990   27.0160   -7.5750 N.am  279  LYS279     -0.1980
     61  CA       -62.6380   28.1990   -8.1460 C.3   279  LYS279      0.1596
     62  C        -61.6200   29.1280   -8.7690 C.2   279  LYS279      0.2287
     63  O        -61.9110   29.8170   -9.7490 O.2   279  LYS279     -0.2864
     64  CB       -63.4020   28.9360   -7.0580 C.3   279  LYS279      0.0298
     65  CG       -64.3250   28.0310   -6.3010 C.3   279  LYS279      0.0038
     66  CD       -64.8180   28.6890   -5.0450 C.3   279  LYS279      0.0206
     67  CE       -66.1740   28.1270   -4.6230 C.3   279  LYS279      0.1093
     68  NZ       -66.4590   28.3390   -3.1810 N.3   279  LYS279     -0.1314
     69  N        -58.7710   28.1350  -10.1330 N.3   281  ILE281     -0.1231
     70  CA       -58.1370   27.5100  -11.2830 C.3   281  ILE281      0.1692
     71  C        -58.8230   27.9690  -12.5630 C.2   281  ILE281      0.2591
     72  O        -58.1760   28.1720  -13.5990 O.2   281  ILE281     -0.2718
     73  CB       -58.1650   25.9780  -11.1230 C.3   281  ILE281      0.0266
     74  CG1      -57.0420   25.3280  -11.9310 C.3   281  ILE281      0.0019
     75  CG2      -59.5140   25.4050  -11.5360 C.3   281  ILE281      0.0020
     76  CD1      -56.0670   24.5600  -11.0700 C.3   281  ILE281      0.0001
     77  N        -60.1330   28.1760  -12.4990 N.am  282  MET282     -0.1979
     78  CA       -60.9010   28.5480  -13.6780 C.3   282  MET282      0.1605
     79  C        -61.1380   30.0560  -13.7300 C.2   282  MET282      0.2287
     80  O        -61.2050   30.6480  -14.8110 O.2   282  MET282     -0.2864
     81  CB       -62.2330   27.8030  -13.6900 C.3   282  MET282      0.0413
     82  CG       -62.1060   26.3210  -13.3480 C.3   282  MET282      0.0598
     83  SD       -63.6770   25.4390  -13.4740 S.3   282  MET282     -0.1393
     84  CE       -63.1260   23.7380  -13.2710 C.3   282  MET282      0.0692
@<TRIPOS>BOND
     1    29    28    2
     2    34    35    1
     3    28    27    1
     4    80    79    2
     5    35    38    1
     6    35    36    1
     7    38    39    1
     8    27    30    1
     9    27    26    1
    10    30    31    1
    11    48    47    1
    12    48    42    1
    13    32    31   ar
    14    31    33   ar
    15    79    78    1
    16    81    78    1
    17    81    82    1
    18    78    77    1
    19    72    71    2
    20    83    82    1
    21    83    84    1
    22    47    46    1
    23    21    20    2
    24    36    42   am
    25    36    37    2
    26    39    41   ar
    27    39    40   ar
    28    42    43    1
    29    26    20   am
    30    71    77   am
    31    71    70    1
    32    20    19    1
    33    74    73    1
    34    74    76    1
    35    46    43    1
    36    43    44    1
    37    75    73    1
    38    70    73    1
    39    70    69    1
    40    19    18    1
    41    19    22    1
    42    44    49   am
    43    44    45    2
    44    49    50    1
    45    13    12    2
    46    54    53    1
    47    22    23    1
    48    63    62    2
    49    58    57    2
    50    53    50    1
    51    50    51    1
    52    12    11    1
    53    23    24    1
    54    51    52    2
    55    62    61    1
    56    57    56    1
    57    57    60   am
    58    61    60    1
    59    61    64    1
    60    25    24    1
    61    11    14    1
    62    11    10    1
    63    56    59    1
    64    56    55    1
    65    14    15    1
    66    64    65    1
    67     8     7   ar
    68    17    15    1
    69    65    66    1
    70    15    16    1
    71     7     6    1
    72     7     9   ar
    73     6     5    1
    74     5     2    1
    75    66    67    1
    76    67    68    1
    77     2     1    1
    78     2     3    1
    79     3     4    2
