@<TRIPOS>MOLECULE
tmp/5qe5A00.pdb
 78 76 0 0 0
SMALL
GASTEIGER

@<TRIPOS>ATOM
      1  N        -58.0940   30.5940    7.0060 N.3   187  SER187     -0.1203
      2  CA       -58.3460   30.6130    5.5730 C.3   187  SER187      0.2005
      3  C        -57.2740   29.7970    4.8530 C.2   187  SER187      0.2461
      4  O        -56.1150   29.8240    5.2810 O.2   187  SER187     -0.2732
      5  CB       -58.3130   32.0520    5.0380 C.3   187  SER187      0.2103
      6  OG       -58.1390   32.0810    3.6360 O.3   187  SER187     -0.2182
      7  N        -57.6200   29.0810    3.7730 N.am  188  PRO188     -0.2717
      8  CA       -56.6080   28.3660    2.9880 C.3   188  PRO188      0.1535
      9  C        -55.8910   29.2200    1.9630 C.2   188  PRO188      0.2598
     10  O        -55.0820   28.6800    1.2120 O.2   188  PRO188     -0.2715
     11  CB       -57.4330   27.2760    2.2710 C.3   188  PRO188      0.0310
     12  CG       -58.7390   27.9400    2.0150 C.3   188  PRO188      0.0237
     13  CD       -58.9820   28.7550    3.3030 C.3   188  PRO188      0.0939
     14  N        -56.1400   30.5290    1.9250 N.am  189  ALA189     -0.1978
     15  CA       -55.6570   31.3400    0.8160 C.3   189  ALA189      0.1597
     16  C        -54.1350   31.3690    0.7440 C.2   189  ALA189      0.2287
     17  O        -53.5590   31.2400   -0.3360 O.2   189  ALA189     -0.2864
     18  CB       -56.2370   32.7580    0.9190 C.3   189  ALA189      0.0319
     19  N        -52.7300   27.8940   -0.3670 N.3   192  LEU192     -0.1231
     20  CA       -52.9230   27.6900   -1.8150 C.3   192  LEU192      0.1693
     21  C        -51.9470   28.5240   -2.6280 C.2   192  LEU192      0.2592
     22  O        -51.3390   28.0280   -3.5740 O.2   192  LEU192     -0.2718
     23  CB       -54.3650   28.0220   -2.2100 C.3   192  LEU192      0.0284
     24  CG       -55.4190   27.0050   -1.8050 C.3   192  LEU192      0.0019
     25  CD1      -56.7880   27.6260   -1.9560 C.3   192  LEU192      0.0001
     26  CD2      -55.3140   25.7360   -2.6370 C.3   192  LEU192      0.0001
     27  N        -51.7790   29.8090   -2.2700 N.am  193  ASN193     -0.1974
     28  CA       -50.7940   30.6490   -2.9470 C.3   193  ASN193      0.1688
     29  C        -49.4080   30.0140   -2.9050 C.2   193  ASN193      0.2292
     30  O        -48.6660   30.0390   -3.8960 O.2   193  ASN193     -0.2864
     31  CB       -50.7760   32.0370   -2.2990 C.3   193  ASN193      0.1181
     32  CG       -49.9090   33.0320   -3.0510 C.2   193  ASN193      0.2629
     33  OD1      -50.1410   33.3110   -4.2250 O.2   193  ASN193     -0.2716
     34  ND2      -48.9160   33.5860   -2.3690 N.am  193  ASN193     -0.0877
     35  N        -49.1810   27.0240   -5.3270 N.3   196  PHE196     -0.1241
     36  CA       -49.0340   27.4940   -6.7030 C.3   196  PHE196      0.1605
     37  C        -47.6120   27.9640   -6.9830 C.2   196  PHE196      0.2264
     38  O        -47.0920   27.7580   -8.0800 O.2   196  PHE196     -0.2867
     39  CB       -50.0540   28.6060   -6.9920 C.3   196  PHE196      0.0534
     40  CG       -51.4780   28.1670   -6.8740 C.ar  196  PHE196     -0.0203
     41  CD1      -51.8240   26.8220   -7.0040 C.ar  196  PHE196     -0.0042
     42  CD2      -52.4870   29.0910   -6.6220 C.ar  196  PHE196     -0.0042
     43  CE1      -53.1380   26.4080   -6.8770 C.ar  196  PHE196     -0.0003
     44  CE2      -53.8080   28.6860   -6.5000 C.ar  196  PHE196     -0.0003
     45  CZ       -54.1340   27.3400   -6.6300 C.ar  196  PHE196     -0.0000
     46  N        -61.8000   25.8720   -2.4140 N.3   276  GLU276     -0.1231
     47  CA       -61.4800   27.2400   -2.8120 C.3   276  GLU276      0.1699
     48  C        -60.5220   27.2510   -3.9910 C.2   276  GLU276      0.2592
     49  O        -60.5870   28.1190   -4.8650 O.2   276  GLU276     -0.2718
     50  CB       -60.8690   27.9790   -1.6290 C.3   276  GLU276      0.0402
     51  CG       -60.6470   29.4480   -1.8880 C.3   276  GLU276      0.1161
     52  CD       -61.9300   30.1730   -2.2240 C.2   276  GLU276      0.3649
     53  OE1      -63.0120   29.7080   -1.8020 O.co2 276  GLU276     -0.2457
     54  OE2      -61.8550   31.2030   -2.9240 O.co2 276  GLU276     -0.2457
     55  N        -59.6150   26.3030   -3.9900 N.am  277  GLY277     -0.1957
     56  CA       -58.6530   26.1930   -5.0600 C.3   277  GLY277      0.1869
     57  C        -59.3050   25.8890   -6.3910 C.2   277  GLY277      0.2309
     58  O        -58.8240   26.3320   -7.4310 O.2   277  GLY277     -0.2863
     59  N        -61.9990   27.0160   -7.5750 N.3   279  LYS279     -0.1231
     60  CA       -62.6380   28.1990   -8.1460 C.3   279  LYS279      0.1693
     61  C        -61.6200   29.1280   -8.7690 C.2   279  LYS279      0.2592
     62  O        -61.9110   29.8170   -9.7490 O.2   279  LYS279     -0.2718
     63  CB       -63.4020   28.9360   -7.0580 C.3   279  LYS279      0.0285
     64  CG       -64.3250   28.0310   -6.3010 C.3   279  LYS279      0.0035
     65  CD       -64.8180   28.6890   -5.0450 C.3   279  LYS279      0.0206
     66  CE       -66.1740   28.1270   -4.6230 C.3   279  LYS279      0.1093
     67  NZ       -66.4590   28.3390   -3.1810 N.3   279  LYS279     -0.1314
     68  N        -60.4210   29.1350   -8.2260 N.am  280  PHE280     -0.1976
     69  CA       -59.3850   30.0070   -8.7280 C.3   280  PHE280      0.1639
     70  C        -58.7760   29.4590   -9.9930 C.2   280  PHE280      0.2290
     71  O        -58.2920   30.2300  -10.8260 O.2   280  PHE280     -0.2864
     72  CB       -58.2990   30.1580   -7.6790 C.3   280  PHE280      0.0560
     73  CG       -57.4320   31.3370   -7.8860 C.ar  280  PHE280     -0.0200
     74  CD1      -57.9040   32.6110   -7.6200 C.ar  280  PHE280     -0.0042
     75  CD2      -56.1390   31.1780   -8.3370 C.ar  280  PHE280     -0.0042
     76  CE1      -57.0940   33.7050   -7.8010 C.ar  280  PHE280     -0.0003
     77  CE2      -55.3260   32.2660   -8.5150 C.ar  280  PHE280     -0.0003
     78  CZ       -55.8040   33.5330   -8.2510 C.ar  280  PHE280     -0.0000
@<TRIPOS>BOND
     1    71    70    2
     2    70    69    1
     3    62    61    2
     4    61    68   am
     5    61    60    1
     6    69    68    1
     7    69    72    1
     8    77    75   ar
     9    77    78   ar
    10    75    73   ar
    11    78    76   ar
    12    60    59    1
    13    60    63    1
    14    38    37    2
    15    73    72    1
    16    73    74   ar
    17    76    74   ar
    18    58    57    2
    19    63    64    1
    20    41    43   ar
    21    41    40   ar
    22    39    40    1
    23    39    36    1
    24    37    36    1
    25    43    45   ar
    26    40    42   ar
    27    36    35    1
    28    45    44   ar
    29    42    44   ar
    30    57    56    1
    31    64    65    1
    32    56    55    1
    33    65    66    1
    34    49    48    2
    35    66    67    1
    36    33    32    2
    37    48    55   am
    38    48    47    1
    39    30    29    2
    40    22    21    2
    41    32    34   am
    42    32    31    1
    43    28    29    1
    44    28    31    1
    45    28    27    1
    46    54    52   ar
    47    47    46    1
    48    47    50    1
    49    26    24    1
    50    21    27   am
    51    21    20    1
    52    52    51    1
    53    52    53   ar
    54    23    20    1
    55    23    24    1
    56    25    24    1
    57    51    50    1
    58    20    19    1
    59    17    16    2
    60    16    15    1
    61    15    18    1
    62    15    14    1
    63    10     9    2
    64    14     9   am
    65     9     8    1
    66    12    11    1
    67    12    13    1
    68    11     8    1
    69     8     7    1
    70    13     7    1
    71     6     5    1
    72     7     3   am
    73     3     4    2
    74     3     2    1
    75     5     2    1
    76     2     1    1
