@<TRIPOS>MOLECULE
tmp/5qe6A00.pdb
 123 117 0 0 0
SMALL
GASTEIGER

@<TRIPOS>ATOM
      1  N         45.7680  -28.9780   -6.1280 N.3   112  ARG112     -0.1231
      2  CA        47.0250  -29.5630   -5.6730 C.3   112  ARG112      0.1694
      3  C         46.7230  -30.8220   -4.8660 C.2   112  ARG112      0.2592
      4  O         45.6290  -30.9830   -4.3230 O.2   112  ARG112     -0.2718
      5  CB        47.8370  -28.5410   -4.8510 C.3   112  ARG112      0.0321
      6  CG        48.3450  -27.3560   -5.6590 C.3   112  ARG112      0.0489
      7  CD        48.9000  -26.1860   -4.8320 C.3   112  ARG112      0.2205
      8  NE        47.9490  -25.5760   -3.8970 N.pl3 112  ARG112     -0.0865
      9  CZ        47.0090  -24.7010   -4.2590 C.cat 112  ARG112      0.5346
     10  NH1       46.8720  -24.3490   -5.5370 N.pl3 112  ARG112      0.1354
     11  NH2       46.1830  -24.1820   -3.3500 N.pl3 112  ARG112      0.1354
     12  N         47.6890  -31.7460   -4.8170 N.am  113  VAL113     -0.1966
     13  CA        47.4840  -33.0140   -4.1280 C.3   113  VAL113      0.1727
     14  C         47.1610  -32.7710   -2.6400 C.2   113  VAL113      0.2616
     15  O         46.2760  -33.4210   -2.0770 O.2   113  VAL113     -0.2715
     16  CB        48.7210  -33.9220   -4.3080 C.3   113  VAL113      0.0290
     17  CG1       48.7330  -35.0710   -3.3450 C.3   113  VAL113      0.0023
     18  CG2       48.8110  -34.4710   -5.7690 C.3   113  VAL113      0.0023
     19  N         47.8250  -31.7980   -2.0120 N.am  114  MET114     -0.1977
     20  CA        47.5190  -31.3680   -0.6430 C.3   114  MET114      0.1605
     21  C         47.0770  -29.9050   -0.6350 C.2   114  MET114      0.2287
     22  O         47.7710  -29.0290   -1.1850 O.2   114  MET114     -0.2864
     23  CB        48.7150  -31.5380    0.3170 C.3   114  MET114      0.0413
     24  CG        48.3690  -31.0140    1.7250 C.3   114  MET114      0.0598
     25  SD        49.4820  -31.5530    3.0870 S.3   114  MET114     -0.1393
     26  CE        48.9980  -33.2590    3.1730 C.3   114  MET114      0.0692
     27  N         48.2730  -39.3390   -5.4940 N.3   123  GLN123     -0.1245
     28  CA        49.3820  -39.0430   -6.4130 C.3   123  GLN123      0.1566
     29  C         49.2780  -40.0720   -7.5250 C.2   123  GLN123      0.2260
     30  O         49.8190  -41.1740   -7.4370 O.2   123  GLN123     -0.2867
     31  CB        50.7350  -39.0870   -5.6890 C.3   123  GLN123      0.0367
     32  CG        51.9720  -38.7720   -6.5910 C.3   123  GLN123      0.0905
     33  CD        51.9530  -37.3830   -7.1580 C.2   123  GLN123      0.2608
     34  OE1       51.8350  -36.3760   -6.4260 O.2   123  GLN123     -0.2717
     35  NE2       52.0590  -37.2960   -8.4740 N.am  123  GLN123     -0.0878
     36  N         50.0470  -39.9710  -10.9150 N.3   125  TRP125     -0.1241
     37  CA        50.9620  -39.9860  -12.0450 C.3   125  TRP125      0.1605
     38  C         52.3970  -40.0380  -11.5110 C.2   125  TRP125      0.2264
     39  O         52.6460  -39.6690  -10.3570 O.2   125  TRP125     -0.2867
     40  CB        50.7680  -38.7580  -12.9610 C.3   125  TRP125      0.0550
     41  CG        51.2790  -37.4610  -12.3580 C.ar  125  TRP125      0.0003
     42  CD1       52.5490  -36.8810  -12.5510 C.ar  125  TRP125      0.0946
     43  CD2       50.5960  -36.5980  -11.4520 C.ar  125  TRP125      0.0152
     44  NE1       52.6530  -35.7280  -11.8210 N.ar  125  TRP125     -0.2442
     45  CE2       51.4760  -35.5310  -11.1280 C.ar  125  TRP125      0.0810
     46  CE3       49.3230  -36.6230  -10.8610 C.ar  125  TRP125      0.0012
     47  CZ2       51.1170  -34.5060  -10.2480 C.ar  125  TRP125      0.0191
     48  CZ3       48.9740  -35.6080   -9.9850 C.ar  125  TRP125      0.0001
     49  CH2       49.8630  -34.5550   -9.6890 C.ar  125  TRP125      0.0015
     50  N         56.3580  -39.1370  -10.8320 N.3   127  GLN127     -0.1245
     51  CA        57.0660  -37.8710  -10.6790 C.3   127  GLN127      0.1566
     52  C         58.4940  -37.9010  -11.2270 C.2   127  GLN127      0.2260
     53  O         59.1010  -36.8290  -11.3680 O.2   127  GLN127     -0.2867
     54  CB        57.0870  -37.4560   -9.2080 C.3   127  GLN127      0.0367
     55  CG        55.7010  -37.1610   -8.6800 C.3   127  GLN127      0.0905
     56  CD        55.6690  -36.8700   -7.2010 C.2   127  GLN127      0.2608
     57  OE1       55.7380  -37.7790   -6.3660 O.2   127  GLN127     -0.2717
     58  NE2       55.5540  -35.5950   -6.8650 N.am  127  GLN127     -0.0878
     59  N         57.5200  -26.9530  -16.1690 N.3   149  ILE149     -0.1231
     60  CA        56.9850  -26.2130  -15.0160 C.3   149  ILE149      0.1692
     61  C         57.0140  -24.7160  -15.2870 C.2   149  ILE149      0.2592
     62  O         58.0910  -24.1350  -15.4660 O.2   149  ILE149     -0.2718
     63  CB        57.7760  -26.5230  -13.7450 C.3   149  ILE149      0.0266
     64  CG1       57.7660  -28.0240  -13.4540 C.3   149  ILE149      0.0019
     65  CG2       57.1960  -25.7510  -12.5910 C.3   149  ILE149      0.0020
     66  CD1       58.6600  -28.4260  -12.3120 C.3   149  ILE149      0.0001
     67  N         55.8500  -24.0810  -15.2610 N.am  150  LYS150     -0.1966
     68  CA        55.7020  -22.6490  -15.4630 C.3   150  LYS150      0.1728
     69  C         55.1710  -22.0290  -14.1800 C.2   150  LYS150      0.2616
     70  O         54.9000  -22.7120  -13.1980 O.2   150  LYS150     -0.2715
     71  CB        54.7950  -22.3440  -16.6670 C.3   150  LYS150      0.0311
     72  CG        55.2130  -23.0020  -18.0040 C.3   150  LYS150      0.0038
     73  CD        56.2520  -22.1980  -18.7820 C.3   150  LYS150      0.0206
     74  CE        55.8980  -22.1190  -20.2690 C.3   150  LYS150      0.1093
     75  NZ        55.7860  -23.4600  -20.9160 N.3   150  LYS150     -0.1314
     76  N         55.0220  -20.7160  -14.1930 N.am  151  SER151     -0.1950
     77  CA        54.6950  -20.0040  -12.9680 C.3   151  SER151      0.1924
     78  C         53.2890  -20.3270  -12.4570 C.2   151  SER151      0.2314
     79  O         53.0740  -20.3690  -11.2400 O.2   151  SER151     -0.2863
     80  CB        54.8420  -18.4840  -13.1750 C.3   151  SER151      0.2116
     81  OG        54.2930  -18.0210  -14.4070 O.3   151  SER151     -0.2180
     82  N         51.7770  -26.4240  -14.8410 N.3   154  THR154     -0.1218
     83  CA        52.7500  -27.4020  -15.3210 C.3   154  THR154      0.1862
     84  C         52.1010  -28.2650  -16.4090 C.2   154  THR154      0.2287
     85  O         50.9410  -28.6650  -16.2630 O.2   154  THR154     -0.2866
     86  CB        53.2260  -28.2820  -14.1530 C.3   154  THR154      0.1770
     87  OG1       53.9180  -27.4620  -13.1970 O.3   154  THR154     -0.2211
     88  CG2       54.1280  -29.4100  -14.6080 C.3   154  THR154      0.0375
     89  N         52.7060  -31.8740  -18.5680 N.3   156  ARG156     -0.1245
     90  CA        53.4420  -33.1280  -18.6360 C.3   156  ARG156      0.1563
     91  C         53.0110  -33.9530  -19.8370 C.2   156  ARG156      0.2260
     92  O         51.8260  -34.0170  -20.1790 O.2   156  ARG156     -0.2867
     93  CB        53.2480  -33.9350  -17.3600 C.3   156  ARG156      0.0307
     94  CG        53.5770  -33.1680  -16.0910 C.3   156  ARG156      0.0489
     95  CD        53.3470  -33.9800  -14.8020 C.3   156  ARG156      0.2205
     96  NE        53.6950  -33.1580  -13.6440 N.pl3 156  ARG156     -0.0865
     97  CZ        52.8390  -32.4270  -12.9310 C.cat 156  ARG156      0.5346
     98  NH1       51.5330  -32.4220  -13.2070 N.pl3 156  ARG156      0.1354
     99  NH2       53.2810  -31.7170  -11.9130 N.pl3 156  ARG156      0.1354
    100  N         48.1560  -29.1140  -15.6010 N.3   175  HIS175     -0.1241
    101  CA        48.0040  -28.9840  -14.1530 C.3   175  HIS175      0.1621
    102  C         48.0670  -27.5190  -13.7490 C.2   175  HIS175      0.2264
    103  O         49.1460  -26.8950  -13.7660 O.2   175  HIS175     -0.2867
    104  CB        49.0700  -29.8150  -13.4430 C.3   175  HIS175      0.0745
    105  CG        48.8920  -29.8900  -11.9570 C.ar  175  HIS175      0.0817
    106  ND1       49.7860  -30.5410  -11.1430 N.ar  175  HIS175     -0.2268
    107  CD2       47.8950  -29.4490  -11.1510 C.ar  175  HIS175      0.1154
    108  CE1       49.3650  -30.4790   -9.8880 C.ar  175  HIS175      0.1986
    109  NE2       48.2200  -29.8120   -9.8590 N.ar  175  HIS175     -0.2212
    110  N         48.2410  -24.9800  -11.0510 N.3   177  THR177     -0.1203
    111  CA        48.8540  -25.1630   -9.7290 C.3   177  THR177      0.1994
    112  C         48.6400  -24.0010   -8.7690 C.2   177  THR177      0.2618
    113  O         49.0790  -24.0870   -7.6120 O.2   177  THR177     -0.2717
    114  CB        50.3720  -25.4340   -9.8820 C.3   177  THR177      0.1784
    115  OG1       50.9960  -24.3830  -10.6370 O.3   177  THR177     -0.2211
    116  CG2       50.6220  -26.7450  -10.5870 C.3   177  THR177      0.0376
    117  N         47.9370  -22.9410   -9.1690 N.am  178  THR178     -0.1952
    118  CA        47.9070  -21.7240   -8.3660 C.3   178  THR178      0.1897
    119  C         46.5080  -21.2790   -7.9280 C.2   178  THR178      0.2313
    120  O         46.3460  -20.1380   -7.4810 O.2   178  THR178     -0.2863
    121  CB        48.6300  -20.6100   -9.1310 C.3   178  THR178      0.1794
    122  OG1       48.1060  -20.4840  -10.4610 O.3   178  THR178     -0.2208
    123  CG2       50.1350  -20.9300   -9.2400 C.3   178  THR178      0.0378
@<TRIPOS>BOND
     1    75    74    1
     2    74    73    1
     3    92    91    2
     4    91    90    1
     5    73    72    1
     6    90    89    1
     7    90    93    1
     8    72    71    1
     9    93    94    1
    10    71    68    1
    11    84    85    2
    12    84    83    1
    13    59    60    1
    14    94    95    1
    15   100   101    1
    16    62    61    2
    17    68    67    1
    18    68    69    1
    19    83    82    1
    20    83    86    1
    21    61    67   am
    22    61    60    1
    23    60    63    1
    24    95    96    1
    25    88    86    1
    26    81    80    1
    27    76    69   am
    28    76    77    1
    29    69    70    2
    30   101   102    1
    31   101   104    1
    32    86    87    1
    33   103   102    2
    34    63    64    1
    35    63    65    1
    36    96    97    2
    37    64    66    1
    38   104   105    1
    39    98    97    1
    40    80    77    1
    41    77    78    1
    42    40    41    1
    43    40    37    1
    44    97    99    1
    45    42    41   ar
    46    42    44   ar
    47    78    79    2
    48    41    43   ar
    49    37    38    1
    50    37    36    1
    51   105   107   ar
    52   105   106   ar
    53    44    45   ar
    54    38    39    2
    55    43    45   ar
    56    43    46   ar
    57    53    52    2
    58    52    51    1
    59   107   109   ar
    60   106   108   ar
    61    45    47   ar
    62   110   111    1
    63    46    48   ar
    64    50    51    1
    65    51    54    1
    66   115   114    1
    67   116   114    1
    68   122   121    1
    69    47    49   ar
    70    48    49   ar
    71   108   109   ar
    72   114   111    1
    73   111   112    1
    74   123   121    1
    75    54    55    1
    76   117   112   am
    77   117   118    1
    78   121   118    1
    79   112   113    2
    80    55    56    1
    81    35    33   am
    82   118   119    1
    83   119   120    2
    84    29    30    2
    85    29    28    1
    86    56    58   am
    87    56    57    2
    88    33    32    1
    89    33    34    2
    90    32    31    1
    91    28    31    1
    92    28    27    1
    93     1     2    1
    94    18    16    1
    95     2     3    1
    96     2     5    1
    97     6     5    1
    98     6     7    1
    99    10     9    1
   100     3    12   am
   101     3     4    2
   102     7     8    1
   103    12    13    1
   104    16    13    1
   105    16    17    1
   106     9     8    2
   107     9    11    1
   108    13    14    1
   109    14    15    2
   110    14    19   am
   111    19    20    1
   112    22    21    2
   113    20    21    1
   114    20    23    1
   115    23    24    1
   116    24    25    1
   117    25    26    1
