@<TRIPOS>MOLECULE
tmp/5qe8A02.pdb
 76 74 0 0 0
SMALL
GASTEIGER

@<TRIPOS>ATOM
      1  N         43.2520  -43.6330   -3.4990 N.3    89  PRO89      -0.2116
      2  CA        44.2480  -44.7170   -3.5200 C.3    89  PRO89       0.1372
      3  C         43.7490  -45.9850   -4.1710 C.2    89  PRO89       0.2244
      4  O         44.5280  -46.6840   -4.8350 O.2    89  PRO89      -0.2868
      5  CB        44.5690  -44.9380   -2.0250 C.3    89  PRO89       0.0268
      6  CG        44.2210  -43.6640   -1.3570 C.3    89  PRO89       0.0207
      7  CD        43.1000  -43.0380   -2.1600 C.3    89  PRO89       0.0892
      8  N         43.1220  -45.3150   -8.6080 N.3    92  VAL92      -0.1231
      9  CA        44.0810  -44.8080   -9.6000 C.3    92  VAL92       0.1692
     10  C         44.1220  -45.7030  -10.8410 C.2    92  VAL92       0.2592
     11  O         44.2830  -45.2170  -11.9750 O.2    92  VAL92      -0.2718
     12  CB        45.4750  -44.6300   -8.9460 C.3    92  VAL92       0.0266
     13  CG1       46.4820  -44.2790  -10.0130 C.3    92  VAL92       0.0020
     14  CG2       45.4400  -43.4870   -7.9370 C.3    92  VAL92       0.0020
     15  N         44.0160  -47.0210  -10.6620 N.am   93  GLY93      -0.1957
     16  CA        43.9900  -47.9190  -11.8120 C.3    93  GLY93       0.1869
     17  C         42.7410  -47.7550  -12.6640 C.2    93  GLY93       0.2309
     18  O         42.8160  -47.7900  -13.8900 O.2    93  GLY93      -0.2863
     19  N         45.1290  -38.5730   -4.8780 N.3   122  ALA122     -0.1231
     20  CA        46.3090  -39.4330   -4.8440 C.3   122  ALA122      0.1694
     21  C         47.3830  -38.9220   -5.8110 C.2   122  ALA122      0.2591
     22  O         47.0840  -38.2510   -6.7860 O.2   122  ALA122     -0.2718
     23  CB        45.9290  -40.8660   -5.2220 C.3   122  ALA122      0.0304
     24  N         48.6480  -39.2800   -5.5400 N.am  123  GLN123     -0.1979
     25  CA        49.7540  -38.9980   -6.4660 C.3   123  GLN123      0.1601
     26  C         49.6630  -40.0600   -7.5550 C.2   123  GLN123      0.2287
     27  O         50.1970  -41.1570   -7.4050 O.2   123  GLN123     -0.2864
     28  CB        51.1110  -39.0390   -5.7380 C.3   123  GLN123      0.0394
     29  CG        52.3550  -38.7280   -6.6370 C.3   123  GLN123      0.0908
     30  CD        52.3340  -37.3400   -7.2400 C.2   123  GLN123      0.2608
     31  OE1       52.1630  -36.3190   -6.5340 O.2   123  GLN123     -0.2717
     32  NE2       52.4700  -37.2820   -8.5520 N.am  123  GLN123     -0.0878
     33  N         55.2320  -46.3030  -13.1760 N.3   133  MET133     -0.1230
     34  CA        54.1590  -46.8550  -12.3490 C.3   133  MET133      0.1702
     35  C         53.4690  -47.9780  -13.1050 C.2   133  MET133      0.2592
     36  O         53.2360  -47.8720  -14.3170 O.2   133  MET133     -0.2718
     37  CB        53.1050  -45.7860  -11.9920 C.3   133  MET133      0.0401
     38  CG        53.5800  -44.7200  -11.0480 C.3   133  MET133      0.0596
     39  SD        52.3580  -43.4270  -10.7710 S.3   133  MET133     -0.1393
     40  CE        51.3220  -44.1940   -9.5690 C.3   133  MET133      0.0692
     41  N         53.1730  -49.0560  -12.3960 N.am  134  ILE134     -0.1966
     42  CA        52.4030  -50.1720  -12.9210 C.3   134  ILE134      0.1727
     43  C         51.1410  -50.3060  -12.0760 C.2   134  ILE134      0.2616
     44  O         51.2130  -50.3090  -10.8430 O.2   134  ILE134     -0.2715
     45  CB        53.2200  -51.4770  -12.9240 C.3   134  ILE134      0.0290
     46  CG1       54.4020  -51.3350  -13.8970 C.3   134  ILE134      0.0022
     47  CG2       52.3430  -52.6550  -13.3550 C.3   134  ILE134      0.0023
     48  CD1       55.3620  -52.4900  -13.8740 C.3   134  ILE134      0.0001
     49  N         49.9890  -50.3870  -12.7430 N.am  135  PHE135     -0.1960
     50  CA        48.6780  -50.5480  -12.1080 C.3   135  PHE135      0.1771
     51  C         48.2520  -51.9860  -12.3860 C.2   135  PHE135      0.2619
     52  O         47.8010  -52.3150  -13.4910 O.2   135  PHE135     -0.2715
     53  CB        47.6790  -49.5150  -12.6470 C.3   135  PHE135      0.0574
     54  CG        48.1640  -48.1020  -12.5020 C.ar  135  PHE135     -0.0200
     55  CD1       48.1400  -47.4780  -11.2750 C.ar  135  PHE135     -0.0042
     56  CD2       48.6750  -47.4230  -13.5860 C.ar  135  PHE135     -0.0042
     57  CE1       48.6120  -46.1960  -11.1200 C.ar  135  PHE135     -0.0003
     58  CE2       49.1590  -46.1420  -13.4360 C.ar  135  PHE135     -0.0003
     59  CZ        49.1180  -45.5290  -12.2080 C.ar  135  PHE135     -0.0000
     60  N         48.4330  -52.8540  -11.3920 N.am  136  GLU136     -0.1963
     61  CA        48.2670  -54.2800  -11.6510 C.3   136  GLU136      0.1733
     62  C         46.8040  -54.6570  -11.8030 C.2   136  GLU136      0.2616
     63  O         46.4900  -55.5780  -12.5670 O.2   136  GLU136     -0.2715
     64  CB        48.9090  -55.1050  -10.5350 C.3   136  GLU136      0.0429
     65  CG        50.4230  -54.9260  -10.4470 C.3   136  GLU136      0.1163
     66  CD        51.0830  -55.8320   -9.4120 C.2   136  GLU136      0.3649
     67  OE1       50.3820  -56.3510   -8.5140 O.co2 136  GLU136     -0.2457
     68  OE2       52.3150  -56.0230   -9.5030 O.co2 136  GLU136     -0.2457
     69  N         45.8990  -53.9580  -11.1090 N.am  137  ASP137     -0.1971
     70  CA        44.4850  -54.3220  -11.2020 C.3   137  ASP137      0.1709
     71  C         43.9090  -54.0860  -12.6030 C.2   137  ASP137      0.2293
     72  O         43.0060  -54.8180  -13.0160 O.2   137  ASP137     -0.2864
     73  CB        43.6610  -53.5960  -10.1130 C.3   137  ASP137      0.1436
     74  CG        43.7480  -52.0590  -10.1730 C.2   137  ASP137      0.3671
     75  OD1       44.7140  -51.4760  -10.7250 O.co2 137  ASP137     -0.2456
     76  OD2       42.8320  -51.4180   -9.6180 O.co2 137  ASP137     -0.2456
@<TRIPOS>BOND
     1    36    35    2
     2    46    48    1
     3    46    45    1
     4    18    17    2
     5    56    58   ar
     6    56    54   ar
     7    52    51    2
     8    58    59   ar
     9    47    45    1
    10    33    34    1
    11    35    41   am
    12    35    34    1
    13    72    71    2
    14    45    42    1
    15    42    41    1
    16    42    43    1
    17    49    50    1
    18    49    43   am
    19    17    16    1
    20    53    54    1
    21    53    50    1
    22    71    70    1
    23    63    62    2
    24    54    55   ar
    25    51    50    1
    26    51    60   am
    27    34    37    1
    28    59    57   ar
    29    43    44    2
    30    37    38    1
    31    11    10    2
    32    16    15    1
    33    62    61    1
    34    62    69   am
    35    61    60    1
    36    61    64    1
    37    55    57   ar
    38    70    69    1
    39    70    73    1
    40    38    39    1
    41    10    15   am
    42    10     9    1
    43    39    40    1
    44    75    74   ar
    45    64    65    1
    46    65    66    1
    47    74    73    1
    48    74    76   ar
    49    13    12    1
    50     9    12    1
    51     9     8    1
    52    68    66   ar
    53    66    67   ar
    54    12    14    1
    55    32    30   am
    56    26    27    2
    57    26    25    1
    58    30    29    1
    59    30    31    2
    60    22    21    2
    61    29    28    1
    62    25    28    1
    63    25    24    1
    64    21    24   am
    65    21    20    1
    66    23    20    1
    67    19    20    1
    68     4     3    2
    69     3     2    1
    70     2     1    1
    71     2     5    1
    72     1     7    1
    73     7     6    1
    74     5     6    1
