@<TRIPOS>MOLECULE
tmp/5qe9A00.pdb
 75 70 0 0 0
SMALL
GASTEIGER

@<TRIPOS>ATOM
      1  N        -70.8690   15.2020   -4.1950 N.3     2  GLU2       -0.1245
      2  CA       -69.9320   16.2530   -4.5520 C.3     2  GLU2        0.1567
      3  C        -69.1740   16.6770   -3.2900 C.2     2  GLU2        0.2260
      4  O        -69.4470   16.2090   -2.1810 O.2     2  GLU2       -0.2867
      5  CB       -70.6700   17.4330   -5.1930 C.3     2  GLU2        0.0388
      6  CG       -69.7930   18.6520   -5.5110 C.3     2  GLU2        0.1160
      7  CD       -70.5850   19.8680   -5.9270 C.2     2  GLU2        0.3649
      8  OE1      -70.3370   20.3800   -7.0380 O.co2   2  GLU2       -0.2457
      9  OE2      -71.4440   20.3220   -5.1420 O.co2   2  GLU2       -0.2457
     10  N        -56.6650   18.6870   -6.8650 N.3   232  LEU232     -0.1245
     11  CA       -56.8190   19.7460   -7.8670 C.3   232  LEU232      0.1561
     12  C        -56.3460   19.3010   -9.2560 C.2   232  LEU232      0.2260
     13  O        -56.9840   19.6510  -10.2650 O.2   232  LEU232     -0.2867
     14  CB       -56.0540   20.9890   -7.4220 C.3   232  LEU232      0.0270
     15  CG       -56.6570   21.6910   -6.2180 C.3   232  LEU232      0.0019
     16  CD1      -55.6510   22.7360   -5.6660 C.3   232  LEU232      0.0001
     17  CD2      -57.9970   22.3490   -6.5430 C.3   232  LEU232      0.0001
     18  N        -59.0740   17.1670  -10.7570 N.3   235  MET235     -0.1230
     19  CA       -60.2400   17.9400  -11.1910 C.3   235  MET235      0.1702
     20  C        -60.0030   18.5960  -12.5500 C.2   235  MET235      0.2592
     21  O        -60.9580   18.7790  -13.3210 O.2   235  MET235     -0.2718
     22  CB       -60.6100   18.9870  -10.1430 C.3   235  MET235      0.0401
     23  CG       -61.1770   18.3800   -8.9130 C.3   235  MET235      0.0596
     24  SD       -61.5190   19.5950   -7.5890 S.3   235  MET235     -0.1393
     25  CE       -63.0530   20.2780   -8.1700 C.3   235  MET235      0.0692
     26  N        -58.7480   18.8840  -12.8880 N.am  236  ASP236     -0.1974
     27  CA       -58.3920   19.4280  -14.2050 C.3   236  ASP236      0.1709
     28  C        -58.3500   18.3720  -15.3040 C.2   236  ASP236      0.2293
     29  O        -58.5670   18.6960  -16.4750 O.2   236  ASP236     -0.2864
     30  CB       -57.0160   20.0910  -14.1680 C.3   236  ASP236      0.1436
     31  CG       -57.0750   21.5720  -13.8620 C.2   236  ASP236      0.3671
     32  OD1      -58.1690   22.1730  -13.9250 O.co2 236  ASP236     -0.2456
     33  OD2      -56.0020   22.1340  -13.5590 O.co2 236  ASP236     -0.2456
     34  N        -65.4910   14.8760  -15.5760 N.3   240  ASP240     -0.1225
     35  CA       -66.4330   15.2910  -14.5390 C.3   240  ASP240      0.1790
     36  C        -65.6830   15.6220  -13.2580 C.2   240  ASP240      0.2440
     37  O        -65.3770   14.7110  -12.4790 O.2   240  ASP240     -0.2733
     38  CB       -67.4450   14.1810  -14.2900 C.3   240  ASP240      0.1423
     39  CG       -68.4240   14.5140  -13.1720 C.2   240  ASP240      0.3668
     40  OD1      -68.4660   15.6790  -12.6850 O.co2 240  ASP240     -0.2456
     41  OD2      -69.1730   13.5920  -12.7850 O.co2 240  ASP240     -0.2456
     42  N        -65.3570   16.8900  -13.0000 N.am  241  PRO241     -0.2718
     43  CA       -64.5720   17.2150  -11.7910 C.3   241  PRO241      0.1535
     44  C        -65.2820   16.8840  -10.4970 C.2   241  PRO241      0.2599
     45  O        -64.6180   16.6390   -9.4810 O.2   241  PRO241     -0.2715
     46  CB       -64.3260   18.7250  -11.9290 C.3   241  PRO241      0.0310
     47  CG       -64.4510   18.9970  -13.3850 C.3   241  PRO241      0.0237
     48  CD       -65.4840   18.0420  -13.9020 C.3   241  PRO241      0.0939
     49  N        -66.6140   16.8570  -10.4890 N.am  242  SER242     -0.1950
     50  CA       -67.3230   16.5220   -9.2590 C.3   242  SER242      0.1924
     51  C        -67.1750   15.0520   -8.8800 C.2   242  SER242      0.2314
     52  O        -67.6330   14.6610   -7.8010 O.2   242  SER242     -0.2863
     53  CB       -68.8060   16.8770   -9.3990 C.3   242  SER242      0.2116
     54  OG       -69.4730   15.9300  -10.2220 O.3   242  SER242     -0.2180
     55  N        -60.3290   25.1210   -6.4770 N.3   278  ALA278     -0.1245
     56  CA       -60.9530   24.7660   -7.7540 C.3   278  ALA278      0.1562
     57  C        -61.6170   25.9650   -8.4310 C.2   278  ALA278      0.2260
     58  O        -61.8310   25.9360   -9.6420 O.2   278  ALA278     -0.2867
     59  CB       -61.9800   23.6530   -7.5530 C.3   278  ALA278      0.0290
     60  N        -58.6890   28.1420  -10.2250 N.3   281  ILE281     -0.1231
     61  CA       -58.0620   27.5280  -11.3850 C.3   281  ILE281      0.1692
     62  C        -58.7590   27.9910  -12.6580 C.2   281  ILE281      0.2591
     63  O        -58.1150   28.2230  -13.6920 O.2   281  ILE281     -0.2718
     64  CB       -58.0820   25.9950  -11.2300 C.3   281  ILE281      0.0266
     65  CG1      -56.9430   25.3510  -12.0190 C.3   281  ILE281      0.0019
     66  CG2      -59.4260   25.4100  -11.6590 C.3   281  ILE281      0.0020
     67  CD1      -55.9540   24.6290  -11.1310 C.3   281  ILE281      0.0001
     68  N        -60.0740   28.1660  -12.5960 N.am  282  MET282     -0.1979
     69  CA       -60.8470   28.5240  -13.7780 C.3   282  MET282      0.1605
     70  C        -61.0920   30.0320  -13.8420 C.2   282  MET282      0.2287
     71  O        -61.1510   30.6160  -14.9310 O.2   282  MET282     -0.2864
     72  CB       -62.1800   27.7740  -13.7900 C.3   282  MET282      0.0413
     73  CG       -62.0630   26.2900  -13.4500 C.3   282  MET282      0.0598
     74  SD       -63.6400   25.4150  -13.5590 S.3   282  MET282     -0.1393
     75  CE       -63.0910   23.7070  -13.3650 C.3   282  MET282      0.0692
@<TRIPOS>BOND
     1    29    28    2
     2    34    35    1
     3    28    27    1
     4    71    70    2
     5    35    38    1
     6    35    36    1
     7    38    39    1
     8    27    30    1
     9    27    26    1
    10    30    31    1
    11    32    31   ar
    12    48    47    1
    13    48    42    1
    14    31    33   ar
    15    70    69    1
    16    72    69    1
    17    72    73    1
    18    69    68    1
    19    63    62    2
    20    74    73    1
    21    74    75    1
    22    47    46    1
    23    21    20    2
    24    36    42   am
    25    36    37    2
    26    39    41   ar
    27    39    40   ar
    28    42    43    1
    29    26    20   am
    30    62    68   am
    31    62    61    1
    32    20    19    1
    33    65    64    1
    34    65    67    1
    35    46    43    1
    36    43    44    1
    37    66    64    1
    38    61    64    1
    39    61    60    1
    40    19    18    1
    41    19    22    1
    42    44    49   am
    43    44    45    2
    44    49    50    1
    45    13    12    2
    46    54    53    1
    47    22    23    1
    48    58    57    2
    49    53    50    1
    50    50    51    1
    51    12    11    1
    52    23    24    1
    53    51    52    2
    54    57    56    1
    55    25    24    1
    56    11    14    1
    57    11    10    1
    58    56    59    1
    59    56    55    1
    60    14    15    1
    61     8     7   ar
    62    17    15    1
    63    15    16    1
    64     7     6    1
    65     7     9   ar
    66     6     5    1
    67     5     2    1
    68     2     1    1
    69     2     3    1
    70     3     4    2
