@<TRIPOS>MOLECULE
tmp/5qecA00.pdb
 75 70 0 0 0
SMALL
GASTEIGER

@<TRIPOS>ATOM
      1  N         22.5860   -8.8770  -21.6890 N.3     2  GLU2       -0.1231
      2  CA        23.9660   -9.1480  -22.0750 C.3     2  GLU2        0.1699
      3  C         24.7090   -9.6050  -20.8230 C.2     2  GLU2        0.2592
      4  O         24.1370   -9.6130  -19.7270 O.2     2  GLU2       -0.2718
      5  CB        24.6170   -7.9050  -22.7030 C.3     2  GLU2        0.0402
      6  CG        26.1090   -8.0510  -23.0170 C.3     2  GLU2        0.1161
      7  CD        26.7770   -6.7580  -23.3840 C.2     2  GLU2        0.3649
      8  OE1       27.3350   -6.6830  -24.4970 O.co2   2  GLU2       -0.2457
      9  OE2       26.7810   -5.8280  -22.5490 O.co2   2  GLU2       -0.2457
     10  N         25.9700   -9.9960  -20.9660 N.am    3  MET3       -0.1979
     11  CA        26.7460  -10.5080  -19.8490 C.3     3  MET3        0.1605
     12  C         27.4640   -9.4290  -19.0370 C.2     3  MET3        0.2287
     13  O         27.3560   -9.4160  -17.8050 O.2     3  MET3       -0.2864
     14  CB        27.7550  -11.5210  -20.3720 C.3     3  MET3        0.0413
     15  CG        28.4340  -12.2960  -19.2690 C.3     3  MET3        0.0598
     16  SD        29.3810  -13.6750  -19.9050 S.3     3  MET3       -0.1393
     17  CE        29.8570  -13.0150  -21.5240 C.3     3  MET3        0.0692
     18  N         32.7640  -19.4050  -24.4360 N.3   232  LEU232     -0.1245
     19  CA        33.6140  -18.7240  -25.4270 C.3   232  LEU232      0.1561
     20  C         33.4660  -19.3320  -26.8220 C.2   232  LEU232      0.2260
     21  O         33.4610  -18.5980  -27.8210 O.2   232  LEU232     -0.2867
     22  CB        35.0700  -18.7450  -24.9690 C.3   232  LEU232      0.0270
     23  CG        35.3590  -17.8650  -23.7600 C.3   232  LEU232      0.0019
     24  CD1       36.7540  -18.1990  -23.1810 C.3   232  LEU232      0.0001
     25  CD2       35.2510  -16.3840  -24.0660 C.3   232  LEU232      0.0001
     26  N         30.2580  -18.0330  -28.3630 N.3   235  MET235     -0.1230
     27  CA        30.3550  -16.6310  -28.7750 C.3   235  MET235      0.1702
     28  C         31.0380  -16.5020  -30.1280 C.2   235  MET235      0.2592
     29  O         30.7210  -15.5800  -30.8890 O.2   235  MET235     -0.2718
     30  CB        31.0840  -15.8060  -27.7160 C.3   235  MET235      0.0401
     31  CG        30.2520  -15.6100  -26.4840 C.3   235  MET235      0.0596
     32  SD        31.1340  -14.7630  -25.1150 S.3   235  MET235     -0.1393
     33  CE        30.9420  -13.0760  -25.6750 C.3   235  MET235      0.0692
     34  N         31.9130  -17.4450  -30.4700 N.am  236  ASP236     -0.1974
     35  CA        32.5650  -17.4670  -31.7880 C.3   236  ASP236      0.1709
     36  C         31.6800  -18.0290  -32.8960 C.2   236  ASP236      0.2293
     37  O         31.8650  -17.6780  -34.0690 O.2   236  ASP236     -0.2864
     38  CB        33.8250  -18.3270  -31.7490 C.3   236  ASP236      0.1436
     39  CG        35.0830  -17.5360  -31.4670 C.2   236  ASP236      0.3671
     40  OD1       35.0420  -16.2880  -31.4690 O.co2 236  ASP236     -0.2456
     41  OD2       36.1280  -18.1820  -31.2460 O.co2 236  ASP236     -0.2456
     42  N         26.8440  -12.7460  -30.5900 N.3   241  PRO241     -0.2102
     43  CA        27.5140  -13.2690  -29.3820 C.3   241  PRO241      0.1504
     44  C         26.8610  -12.8220  -28.0840 C.2   241  PRO241      0.2576
     45  O         26.9860  -13.5170  -27.0710 O.2   241  PRO241     -0.2718
     46  CB        28.9410  -12.7220  -29.5050 C.3   241  PRO241      0.0282
     47  CG        29.1310  -12.4580  -30.9520 C.3   241  PRO241      0.0208
     48  CD        27.7830  -12.0420  -31.4760 C.3   241  PRO241      0.0893
     49  N         26.1720  -11.6810  -28.0750 N.am  242  SER242     -0.1953
     50  CA        25.5280  -11.2250  -26.8440 C.3   242  SER242      0.1924
     51  C         24.3240  -12.0750  -26.4590 C.2   242  SER242      0.2314
     52  O         23.7580  -11.8640  -25.3790 O.2   242  SER242     -0.2863
     53  CB        25.1020   -9.7610  -26.9880 C.3   242  SER242      0.2116
     54  OG        23.9730   -9.6430  -27.8410 O.3   242  SER242     -0.2180
     55  N         36.4550  -12.9700  -23.9620 N.3   278  ALA278     -0.1245
     56  CA        35.8300  -12.5850  -25.2250 C.3   278  ALA278      0.1562
     57  C         36.5270  -11.3940  -25.8820 C.2   278  ALA278      0.2260
     58  O         36.3880  -11.2000  -27.0890 O.2   278  ALA278     -0.2867
     59  CB        34.3470  -12.2590  -25.0120 C.3   278  ALA278      0.0290
     60  N         39.8860  -12.8220  -27.6640 N.3   281  ILE281     -0.1231
     61  CA        39.6580  -13.6680  -28.8260 C.3   281  ILE281      0.1692
     62  C         39.6960  -12.8370  -30.0990 C.2   281  ILE281      0.2591
     63  O         40.1550  -13.3090  -31.1470 O.2   281  ILE281     -0.2718
     64  CB        38.3210  -14.4190  -28.6650 C.3   281  ILE281      0.0266
     65  CG1       38.3230  -15.7250  -29.4630 C.3   281  ILE281      0.0019
     66  CG2       37.1460  -13.5520  -29.0930 C.3   281  ILE281      0.0020
     67  CD1       38.1170  -16.9490  -28.5940 C.3   281  ILE281      0.0001
     68  N         39.2390  -11.5920  -30.0290 N.am  282  MET282     -0.1979
     69  CA        39.1790  -10.7400  -31.2120 C.3   282  MET282      0.1605
     70  C         40.3560   -9.7690  -31.2620 C.2   282  MET282      0.2287
     71  O         40.8390   -9.4210  -32.3450 O.2   282  MET282     -0.2864
     72  CB        37.8620   -9.9660  -31.2390 C.3   282  MET282      0.0413
     73  CG        36.6390  -10.8160  -30.9180 C.3   282  MET282      0.0598
     74  SD        35.0920   -9.8940  -31.0300 S.3   282  MET282     -0.1393
     75  CE        33.8920  -11.2300  -30.8540 C.3   282  MET282      0.0692
@<TRIPOS>BOND
     1    37    36    2
     2    36    35    1
     3    71    70    2
     4    35    38    1
     5    35    34    1
     6    38    39    1
     7    48    47    1
     8    48    42    1
     9    40    39   ar
    10    39    41   ar
    11    70    69    1
    12    72    69    1
    13    72    73    1
    14    69    68    1
    15    63    62    2
    16    74    73    1
    17    74    75    1
    18    47    46    1
    19    29    28    2
    20    42    43    1
    21    34    28   am
    22    28    27    1
    23    62    68   am
    24    62    61    1
    25    46    43    1
    26    65    64    1
    27    65    67    1
    28    43    44    1
    29    66    64    1
    30    61    64    1
    31    61    60    1
    32    27    26    1
    33    27    30    1
    34    44    49   am
    35    44    45    2
    36    49    50    1
    37    54    53    1
    38    21    20    2
    39    30    31    1
    40    58    57    2
    41    53    50    1
    42    50    51    1
    43    20    19    1
    44    31    32    1
    45    51    52    2
    46    57    56    1
    47    33    32    1
    48    19    22    1
    49    19    18    1
    50    56    59    1
    51    56    55    1
    52    22    23    1
    53     8     7   ar
    54    25    23    1
    55    23    24    1
    56     7     6    1
    57     7     9   ar
    58     6     5    1
    59     5     2    1
    60     2     1    1
    61     2     3    1
    62    17    16    1
    63    10     3   am
    64    10    11    1
    65     3     4    2
    66    14    11    1
    67    14    15    1
    68    16    15    1
    69    11    12    1
    70    12    13    2
