@<TRIPOS>MOLECULE
tmp/5qeeA00.pdb
 116 111 0 0 0
SMALL
GASTEIGER

@<TRIPOS>ATOM
      1  N        -41.4040   25.0360   11.5970 N.3   112  ARG112     -0.1231
      2  CA       -40.2470   25.8110   12.0410 C.3   112  ARG112      0.1694
      3  C        -39.3050   24.9060   12.8270 C.2   112  ARG112      0.2592
      4  O        -39.6960   23.8560   13.3420 O.2   112  ARG112     -0.2718
      5  CB       -40.6840   27.0290   12.8750 C.3   112  ARG112      0.0321
      6  CG       -41.4800   28.0590   12.0750 C.3   112  ARG112      0.0489
      7  CD       -42.2090   29.1500   12.9000 C.3   112  ARG112      0.2205
      8  NE       -43.2270   28.6540   13.8380 N.pl3 112  ARG112     -0.0865
      9  CZ       -44.4480   28.2610   13.4690 C.cat 112  ARG112      0.5346
     10  NH1      -44.8160   28.3010   12.1900 N.pl3 112  ARG112      0.1354
     11  NH2      -45.3080   27.8060   14.3760 N.pl3 112  ARG112      0.1354
     12  N        -38.0310   25.3070   12.8990 N.am  113  VAL113     -0.1966
     13  CA       -37.0290   24.4890   13.5840 C.3   113  VAL113      0.1727
     14  C        -37.3880   24.3220   15.0720 C.2   113  VAL113      0.2616
     15  O        -37.2370   23.2310   15.6470 O.2   113  VAL113     -0.2715
     16  CB       -35.6270   25.1050   13.3910 C.3   113  VAL113      0.0290
     17  CG1      -34.6310   24.5240   14.3230 C.3   113  VAL113      0.0023
     18  CG2      -35.1320   24.8970   11.9400 C.3   113  VAL113      0.0023
     19  N        -37.9000   25.3800   15.7000 N.am  114  MET114     -0.1977
     20  CA       -38.4280   25.3220   17.0640 C.3   114  MET114      0.1605
     21  C        -39.9150   25.6710   17.0710 C.2   114  MET114      0.2287
     22  O        -40.3230   26.7140   16.5350 O.2   114  MET114     -0.2864
     23  CB       -37.6840   26.2770   18.0180 C.3   114  MET114      0.0413
     24  CG       -38.3020   26.2500   19.4490 C.3   114  MET114      0.0598
     25  SD       -37.2970   26.9500   20.8080 S.3   114  MET114     -0.1393
     26  CE       -36.0470   25.6840   20.8840 C.3   114  MET114      0.0692
     27  N        -31.2070   21.9990   12.2080 N.3   123  GLN123     -0.1245
     28  CA       -30.8720   23.0850   11.2650 C.3   123  GLN123      0.1566
     29  C        -30.0480   22.4530   10.1510 C.2   123  GLN123      0.2260
     30  O        -28.8280   22.3690   10.2240 O.2   123  GLN123     -0.2867
     31  CB       -30.1270   24.2270   11.9790 C.3   123  GLN123      0.0367
     32  CG       -29.7930   25.4770   11.1000 C.3   123  GLN123      0.0905
     33  CD       -31.0040   26.1490   10.5330 C.2   123  GLN123      0.2608
     34  OE1      -31.9250   26.5630   11.2660 O.2   123  GLN123     -0.2717
     35  NE2      -31.0380   26.2600    9.2100 N.am  123  GLN123     -0.0878
     36  N        -29.7590   23.1750    6.7700 N.3   125  TRP125     -0.1241
     37  CA       -29.2680   23.9650    5.6440 C.3   125  TRP125      0.1605
     38  C        -28.5170   25.1790    6.1830 C.2   125  TRP125      0.2264
     39  O        -28.7350   25.5910    7.3280 O.2   125  TRP125     -0.2867
     40  CB       -30.4220   24.4160    4.7300 C.3   125  TRP125      0.0550
     41  CG       -31.2790   25.5040    5.3290 C.ar  125  TRP125      0.0003
     42  CD1      -31.1590   26.8890    5.1220 C.ar  125  TRP125      0.0946
     43  CD2      -32.3680   25.3370    6.2400 C.ar  125  TRP125      0.0152
     44  NE1      -32.1040   27.5500    5.8550 N.ar  125  TRP125     -0.2442
     45  CE2      -32.8640   26.6360    6.5480 C.ar  125  TRP125      0.0810
     46  CE3      -32.9760   24.2190    6.8340 C.ar  125  TRP125      0.0012
     47  CZ2      -33.9190   26.8410    7.4320 C.ar  125  TRP125      0.0191
     48  CZ3      -34.0220   24.4250    7.7170 C.ar  125  TRP125      0.0001
     49  CH2      -34.4950   25.7270    8.0060 C.ar  125  TRP125      0.0015
     50  N        -27.3140   29.0450    6.8850 N.3   127  GLN127     -0.1245
     51  CA       -28.0330   30.3050    7.0300 C.3   127  GLN127      0.1566
     52  C        -27.2890   31.5100    6.4600 C.2   127  GLN127      0.2260
     53  O        -27.9120   32.5670    6.3000 O.2   127  GLN127     -0.2867
     54  CB       -28.3610   30.5490    8.4990 C.3   127  GLN127      0.0367
     55  CG       -29.3210   29.5070    9.0270 C.3   127  GLN127      0.0905
     56  CD       -29.5800   29.6190   10.5040 C.2   127  GLN127      0.2608
     57  OE1      -28.7470   29.2320   11.3310 O.2   127  GLN127     -0.2717
     58  NE2      -30.7360   30.1580   10.8500 N.am  127  GLN127     -0.0878
     59  N        -37.2540   36.2100    1.5440 N.3   149  ILE149     -0.1231
     60  CA       -38.1600   36.1200    2.6950 C.3   149  ILE149      0.1692
     61  C        -39.4390   36.9020    2.4390 C.2   149  ILE149      0.2592
     62  O        -39.4010   38.1230    2.2570 O.2   149  ILE149     -0.2718
     63  CB       -37.4840   36.6430    3.9630 C.3   149  ILE149      0.0266
     64  CG1      -36.2050   35.8620    4.2380 C.3   149  ILE149      0.0019
     65  CG2      -38.4400   36.5410    5.1290 C.3   149  ILE149      0.0020
     66  CD1      -35.3970   36.4280    5.3740 C.3   149  ILE149      0.0001
     67  N        -40.5730   36.2120    2.4700 N.am  150  LYS150     -0.1966
     68  CA       -41.8790   36.8120    2.2610 C.3   150  LYS150      0.1728
     69  C        -42.6700   36.6820    3.5570 C.2   150  LYS150      0.2616
     70  O        -42.1990   36.1340    4.5590 O.2   150  LYS150     -0.2715
     71  CB       -42.6110   36.1780    1.0640 C.3   150  LYS150      0.0311
     72  CG       -41.8430   36.2060   -0.2860 C.3   150  LYS150      0.0038
     73  CD       -42.0170   37.5060   -1.0630 C.3   150  LYS150      0.0206
     74  CE       -42.2630   37.2380   -2.5530 C.3   150  LYS150      0.1093
     75  NZ       -41.1590   36.4700   -3.1940 N.3   150  LYS150     -0.1314
     76  N        -43.8860   37.2020    3.5390 N.am  151  SER151     -0.1950
     77  CA       -44.6600   37.2820    4.7720 C.3   151  SER151      0.1924
     78  C        -45.0690   35.8990    5.2830 C.2   151  SER151      0.2314
     79  O        -45.0740   35.6630    6.4970 O.2   151  SER151     -0.2863
     80  CB       -45.8990   38.1740    4.5610 C.3   151  SER151      0.2116
     81  OG       -46.5760   37.9410    3.3270 O.3   151  SER151     -0.2180
     82  N        -35.4340   29.5410   -0.8360 N.3   156  ARG156     -0.1245
     83  CA       -33.9850   29.5580   -0.9360 C.3   156  ARG156      0.1563
     84  C        -33.5170   28.7670   -2.1460 C.2   156  ARG156      0.2260
     85  O        -34.1130   27.7440   -2.5100 O.2   156  ARG156     -0.2867
     86  CB       -33.3530   28.9920    0.3370 C.3   156  ARG156      0.0307
     87  CG       -33.8770   29.6290    1.6080 C.3   156  ARG156      0.0489
     88  CD       -33.2490   29.0580    2.9010 C.3   156  ARG156      0.2205
     89  NE       -33.7810   29.7640    4.0810 N.pl3 156  ARG156     -0.0865
     90  CZ       -34.8470   29.3850    4.7880 C.cat 156  ARG156      0.5346
     91  NH1      -35.5000   28.2570    4.5010 N.pl3 156  ARG156      0.1354
     92  NH2      -35.2370   30.1180    5.8190 N.pl3 156  ARG156      0.1354
     93  N        -40.1330   27.0170    2.1390 N.3   175  HIS175     -0.1241
     94  CA       -40.2910   26.9410    3.5920 C.3   175  HIS175      0.1621
     95  C        -41.5150   27.7160    4.0220 C.2   175  HIS175      0.2264
     96  O        -41.5140   28.9600    4.0070 O.2   175  HIS175     -0.2867
     97  CB       -39.0420   27.4780    4.2950 C.3   175  HIS175      0.0745
     98  CG       -39.0530   27.2970    5.7830 C.ar  175  HIS175      0.0817
     99  ND1      -38.0350   27.7390    6.5930 N.ar  175  HIS175     -0.2268
    100  CD2      -39.9340   26.6770    6.6000 C.ar  175  HIS175      0.1154
    101  CE1      -38.2930   27.4070    7.8480 C.ar  175  HIS175      0.1986
    102  NE2      -39.4440   26.7630    7.8820 N.ar  175  HIS175     -0.2212
    103  N        -43.5880   29.1890    6.7040 N.3   177  THR177     -0.1203
    104  CA       -43.1200   29.6050    8.0220 C.3   177  THR177      0.1994
    105  C        -44.2470   29.9980    8.9730 C.2   177  THR177      0.2618
    106  O        -43.9700   30.3110   10.1330 O.2   177  THR177     -0.2717
    107  CB       -42.1240   30.7780    7.8840 C.3   177  THR177      0.1784
    108  OG1      -42.7440   31.8600    7.1810 O.3   177  THR177     -0.2211
    109  CG2      -40.8750   30.3620    7.1080 C.3   177  THR177      0.0376
    110  N        -45.5140   29.9530    8.5500 N.am  178  THR178     -0.1952
    111  CA       -46.5760   30.5400    9.3630 C.3   178  THR178      0.1897
    112  C        -47.6560   29.5480    9.8060 C.2   178  THR178      0.2313
    113  O        -48.7290   29.9750   10.2560 O.2   178  THR178     -0.2863
    114  CB       -47.1960   31.7220    8.6070 C.3   178  THR178      0.1794
    115  OG1      -47.5710   31.3220    7.2810 O.3   178  THR178     -0.2208
    116  CG2      -46.1700   32.8720    8.4960 C.3   178  THR178      0.0378
@<TRIPOS>BOND
     1    75    74    1
     2    74    73    1
     3    85    84    2
     4    84    83    1
     5    73    72    1
     6    83    82    1
     7    83    86    1
     8    72    71    1
     9    86    87    1
    10    71    68    1
    11    59    60    1
    12    87    88    1
    13    93    94    1
    14    62    61    2
    15    68    67    1
    16    68    69    1
    17    61    67   am
    18    61    60    1
    19    60    63    1
    20    88    89    1
    21    81    80    1
    22    76    69   am
    23    76    77    1
    24    69    70    2
    25    94    95    1
    26    94    97    1
    27    63    64    1
    28    63    65    1
    29    96    95    2
    30    89    90    2
    31    64    66    1
    32    97    98    1
    33    91    90    1
    34    80    77    1
    35    40    41    1
    36    40    37    1
    37    77    78    1
    38    90    92    1
    39    42    41   ar
    40    42    44   ar
    41    78    79    2
    42    41    43   ar
    43    37    38    1
    44    37    36    1
    45    98    99   ar
    46    98   100   ar
    47    44    45   ar
    48    38    39    2
    49    43    45   ar
    50    43    46   ar
    51    53    52    2
    52    52    51    1
    53    45    47   ar
    54    99   101   ar
    55   100   102   ar
    56   103   104    1
    57    46    48   ar
    58    50    51    1
    59    51    54    1
    60   109   107    1
    61   108   107    1
    62   115   114    1
    63    47    49   ar
    64    48    49   ar
    65   101   102   ar
    66   107   104    1
    67   104   105    1
    68   116   114    1
    69    54    55    1
    70   110   105   am
    71   110   111    1
    72   114   111    1
    73   105   106    2
    74    55    56    1
    75    35    33   am
    76   111   112    1
    77   112   113    2
    78    29    30    2
    79    29    28    1
    80    56    58   am
    81    56    57    2
    82    33    32    1
    83    33    34    2
    84    32    31    1
    85    28    31    1
    86    28    27    1
    87     1     2    1
    88    18    16    1
    89     2     3    1
    90     2     5    1
    91     6     5    1
    92     6     7    1
    93    10     9    1
    94     3    12   am
    95     3     4    2
    96    12    13    1
    97     7     8    1
    98    16    13    1
    99    16    17    1
   100     9     8    2
   101     9    11    1
   102    13    14    1
   103    14    15    2
   104    14    19   am
   105    19    20    1
   106    22    21    2
   107    20    21    1
   108    20    23    1
   109    23    24    1
   110    24    25    1
   111    25    26    1
