@<TRIPOS>MOLECULE
tmp/5qefA00.pdb
 76 71 0 0 0
SMALL
GASTEIGER

@<TRIPOS>ATOM
      1  N        -70.9170   15.1960   -4.0140 N.3     2  GLU2       -0.1245
      2  CA       -69.9870   16.2470   -4.4060 C.3     2  GLU2        0.1567
      3  C        -69.2150   16.6580   -3.1550 C.2     2  GLU2        0.2260
      4  O        -69.4860   16.1590   -2.0560 O.2     2  GLU2       -0.2867
      5  CB       -70.7300   17.4350   -5.0430 C.3     2  GLU2        0.0388
      6  CG       -69.8470   18.6480   -5.3530 C.3     2  GLU2        0.1160
      7  CD       -70.6320   19.8740   -5.7520 C.2     2  GLU2        0.3649
      8  OE1      -70.4090   20.3880   -6.8700 O.co2   2  GLU2       -0.2457
      9  OE2      -71.4700   20.3430   -4.9520 O.co2   2  GLU2       -0.2457
     10  N        -70.9200   20.3880   -1.0050 N.3     5  LYS5       -0.1245
     11  CA       -72.1710   20.1810   -0.2940 C.3     5  LYS5        0.1561
     12  C        -72.0730   19.0480    0.7100 C.2     5  LYS5        0.2260
     13  O        -72.7100   19.1110    1.7670 O.2     5  LYS5       -0.2867
     14  CB       -73.3000   19.9380   -1.2950 C.3     5  LYS5        0.0271
     15  CG       -73.6370   21.1990   -2.0820 C.3     5  LYS5        0.0035
     16  CD       -74.8310   21.0120   -2.9870 C.3     5  LYS5        0.0206
     17  CE       -74.4640   20.2240   -4.2310 C.3     5  LYS5        0.1093
     18  NZ       -75.6380   19.5210   -4.8020 N.3     5  LYS5       -0.1314
     19  N        -59.1330   17.1660  -10.6800 N.3   235  MET235     -0.1230
     20  CA       -60.2990   17.9420  -11.0990 C.3   235  MET235      0.1702
     21  C        -60.0530   18.5940  -12.4550 C.2   235  MET235      0.2592
     22  O        -61.0020   18.7910  -13.2240 O.2   235  MET235     -0.2718
     23  CB       -60.6580   18.9870  -10.0390 C.3   235  MET235      0.0401
     24  CG       -61.2620   18.3840   -8.7960 C.3   235  MET235      0.0596
     25  SD       -61.5850   19.6190   -7.4850 S.3   235  MET235     -0.1393
     26  CE       -63.1340   20.2710   -8.0360 C.3   235  MET235      0.0692
     27  N        -58.7910   18.8640  -12.7920 N.am  236  ASP236     -0.1974
     28  CA       -58.4250   19.4170  -14.1030 C.3   236  ASP236      0.1709
     29  C        -58.3730   18.3650  -15.2080 C.2   236  ASP236      0.2293
     30  O        -58.5670   18.6990  -16.3860 O.2   236  ASP236     -0.2864
     31  CB       -57.0510   20.0740  -14.0430 C.3   236  ASP236      0.1436
     32  CG       -57.0980   21.5260  -13.6110 C.2   236  ASP236      0.3671
     33  OD1      -58.1870   22.1340  -13.6000 O.co2 236  ASP236     -0.2456
     34  OD2      -56.0230   22.0560  -13.2670 O.co2 236  ASP236     -0.2456
     35  N        -65.5650   14.8730  -15.4830 N.3   240  ASP240     -0.1225
     36  CA       -66.5070   15.2650  -14.4400 C.3   240  ASP240      0.1790
     37  C        -65.7370   15.5840  -13.1680 C.2   240  ASP240      0.2440
     38  O        -65.4630   14.6760  -12.3720 O.2   240  ASP240     -0.2733
     39  CB       -67.5180   14.1560  -14.1840 C.3   240  ASP240      0.1423
     40  CG       -68.4730   14.4870  -13.0580 C.2   240  ASP240      0.3668
     41  OD1      -68.5160   15.6620  -12.6080 O.co2 240  ASP240     -0.2456
     42  OD2      -69.2000   13.5600  -12.6340 O.co2 240  ASP240     -0.2456
     43  N        -65.3890   16.8510  -12.9240 N.am  241  PRO241     -0.2718
     44  CA       -64.6120   17.1710  -11.7110 C.3   241  PRO241      0.1535
     45  C        -65.3230   16.8330  -10.4150 C.2   241  PRO241      0.2599
     46  O        -64.6490   16.5820   -9.4130 O.2   241  PRO241     -0.2715
     47  CB       -64.3690   18.6810  -11.8360 C.3   241  PRO241      0.0310
     48  CG       -64.4980   18.9720  -13.2800 C.3   241  PRO241      0.0237
     49  CD       -65.5280   18.0200  -13.8050 C.3   241  PRO241      0.0939
     50  N        -66.6590   16.8190  -10.3900 N.am  242  SER242     -0.1950
     51  CA       -67.3700   16.5090   -9.1520 C.3   242  SER242      0.1924
     52  C        -67.2360   15.0460   -8.7470 C.2   242  SER242      0.2314
     53  O        -67.6810   14.6810   -7.6510 O.2   242  SER242     -0.2863
     54  CB       -68.8510   16.8760   -9.2880 C.3   242  SER242      0.2116
     55  OG       -69.5300   15.9620  -10.1300 O.3   242  SER242     -0.2180
     56  N        -60.4430   25.0860   -6.3230 N.3   278  ALA278     -0.1245
     57  CA       -61.0810   24.7320   -7.5900 C.3   278  ALA278      0.1562
     58  C        -61.7660   25.9280   -8.2490 C.2   278  ALA278      0.2260
     59  O        -62.0730   25.8760   -9.4400 O.2   278  ALA278     -0.2867
     60  CB       -62.0870   23.6060   -7.3780 C.3   278  ALA278      0.0290
     61  N        -58.7760   28.1050  -10.0500 N.3   281  ILE281     -0.1231
     62  CA       -58.1500   27.4700  -11.1990 C.3   281  ILE281      0.1692
     63  C        -58.8350   27.9210  -12.4760 C.2   281  ILE281      0.2591
     64  O        -58.1840   28.0940  -13.5160 O.2   281  ILE281     -0.2718
     65  CB       -58.1880   25.9370  -11.0350 C.3   281  ILE281      0.0266
     66  CG1      -57.0830   25.2760  -11.8570 C.3   281  ILE281      0.0019
     67  CG2      -59.5450   25.3760  -11.4410 C.3   281  ILE281      0.0020
     68  CD1      -56.0850   24.5120  -11.0070 C.3   281  ILE281      0.0001
     69  N        -60.1410   28.1460  -12.4160 N.am  282  MET282     -0.1979
     70  CA       -60.9020   28.5190  -13.6000 C.3   282  MET282      0.1605
     71  C        -61.1370   30.0270  -13.6470 C.2   282  MET282      0.2287
     72  O        -61.2260   30.6190  -14.7260 O.2   282  MET282     -0.2864
     73  CB       -62.2350   27.7750  -13.6240 C.3   282  MET282      0.0413
     74  CG       -62.1180   26.2910  -13.2850 C.3   282  MET282      0.0598
     75  SD       -63.6910   25.4120  -13.4170 S.3   282  MET282     -0.1393
     76  CE       -63.1460   23.7060  -13.2070 C.3   282  MET282      0.0692
@<TRIPOS>BOND
     1    30    29    2
     2    35    36    1
     3    29    28    1
     4    72    71    2
     5    36    39    1
     6    36    37    1
     7    39    40    1
     8    28    31    1
     9    28    27    1
    10    31    32    1
    11    49    48    1
    12    49    43    1
    13    71    70    1
    14    73    70    1
    15    73    74    1
    16    32    33   ar
    17    32    34   ar
    18    70    69    1
    19    64    63    2
    20    75    74    1
    21    75    76    1
    22    48    47    1
    23    22    21    2
    24    37    43   am
    25    37    38    2
    26    40    42   ar
    27    40    41   ar
    28    43    44    1
    29    27    21   am
    30    63    69   am
    31    63    62    1
    32    21    20    1
    33    66    65    1
    34    66    68    1
    35    47    44    1
    36    44    45    1
    37    67    65    1
    38    62    65    1
    39    62    61    1
    40    20    19    1
    41    20    23    1
    42    45    50   am
    43    45    46    2
    44    50    51    1
    45    55    54    1
    46    23    24    1
    47    59    58    2
    48    54    51    1
    49    51    52    1
    50    24    25    1
    51    52    53    2
    52    58    57    1
    53    26    25    1
    54    57    60    1
    55    57    56    1
    56     8     7   ar
    57     7     6    1
    58     7     9   ar
    59     6     5    1
    60     5     2    1
    61    18    17    1
    62     2     1    1
    63     2     3    1
    64    17    16    1
    65     3     4    2
    66    16    15    1
    67    15    14    1
    68    14    11    1
    69    10    11    1
    70    11    12    1
    71    12    13    2
