@<TRIPOS>MOLECULE
tmp/5qehA00.pdb
 115 110 0 0 0
SMALL
GASTEIGER

@<TRIPOS>ATOM
      1  N        -70.8860   11.4930   -2.9060 N.3     1  MET1       -0.1230
      2  CA       -71.4410   12.8760   -2.9240 C.3     1  MET1        0.1702
      3  C        -70.3780   13.8480   -3.4620 C.2     1  MET1        0.2592
      4  O        -69.1740   13.5430   -3.4610 O.2     1  MET1       -0.2718
      5  CB       -71.9030   13.2850   -1.5160 C.3     1  MET1        0.0401
      6  CG       -72.8360   14.5030   -1.4830 C.3     1  MET1        0.0596
      7  SD       -73.2760   15.0660    0.1670 S.3     1  MET1       -0.1393
      8  CE       -73.5970   13.5260    1.0300 C.3     1  MET1        0.0692
      9  N        -70.8340   15.0090   -3.9350 N.am    2  GLU2       -0.1966
     10  CA       -69.9200   16.0740   -4.3280 C.3     2  GLU2        0.1733
     11  C        -69.1410   16.4730   -3.0790 C.2     2  GLU2        0.2616
     12  O        -69.3920   15.9510   -1.9860 O.2     2  GLU2       -0.2715
     13  CB       -70.6830   17.2620   -4.9410 C.3     2  GLU2        0.0429
     14  CG       -69.8240   18.4900   -5.2520 C.3     2  GLU2        0.1163
     15  CD       -70.6280   19.7050   -5.6280 C.2     2  GLU2        0.3649
     16  OE1      -70.4290   20.2240   -6.7470 O.co2   2  GLU2       -0.2457
     17  OE2      -71.4480   20.1650   -4.8040 O.co2   2  GLU2       -0.2457
     18  N        -68.1970   17.3910   -3.2230 N.am    3  MET3       -0.1977
     19  CA       -67.3780   17.8230   -2.1050 C.3     3  MET3        0.1605
     20  C        -67.9820   18.9830   -1.3080 C.2     3  MET3        0.2287
     21  O        -68.1020   18.8810   -0.0820 O.2     3  MET3       -0.2864
     22  CB       -65.9970   18.1960   -2.6260 C.3     3  MET3        0.0413
     23  CG       -64.9600   18.4030   -1.5340 C.3     3  MET3        0.0598
     24  SD       -63.3200   18.5800   -2.2680 S.3     3  MET3       -0.1393
     25  CE       -63.7280   19.2940   -3.9050 C.3     3  MET3        0.0692
     26  N        -71.2240   17.8250    0.5270 N.3     6  GLU6       -0.1245
     27  CA       -70.7930   16.9180    1.5810 C.3     6  GLU6        0.1567
     28  C        -70.1720   17.7160    2.7300 C.2     6  GLU6        0.2260
     29  O        -70.3800   17.3960    3.9070 O.2     6  GLU6       -0.2867
     30  CB       -69.8120   15.8920    1.0020 C.3     6  GLU6        0.0388
     31  CG       -69.4710   14.7350    1.9190 C.3     6  GLU6        0.1160
     32  CD       -68.2260   13.9890    1.4750 C.2     6  GLU6        0.3649
     33  OE1      -67.7340   14.2530    0.3560 O.co2   6  GLU6       -0.2457
     34  OE2      -67.7310   13.1460    2.2510 O.co2   6  GLU6       -0.2457
     35  N        -71.4340   17.8040    6.6610 N.3    10  ILE10      -0.1245
     36  CA       -70.6560   17.3710    7.8230 C.3    10  ILE10       0.1561
     37  C        -70.5600   18.4920    8.8410 C.2    10  ILE10       0.2260
     38  O        -70.5940   18.2410   10.0470 O.2    10  ILE10      -0.2867
     39  CB       -69.2530   16.8830    7.4030 C.3    10  ILE10       0.0252
     40  CG1      -69.3680   15.7280    6.4070 C.3    10  ILE10       0.0019
     41  CG2      -68.4620   16.4180    8.6270 C.3    10  ILE10       0.0019
     42  CD1      -68.0710   15.3300    5.7370 C.3    10  ILE10       0.0001
     43  N        -66.1450   10.8510   10.6180 N.3    19  ILE19      -0.1245
     44  CA       -65.5990   10.6460    9.2790 C.3    19  ILE19       0.1561
     45  C        -64.1120   10.3140    9.3640 C.2    19  ILE19       0.2260
     46  O        -63.6220    9.3700    8.7210 O.2    19  ILE19      -0.2867
     47  CB       -65.8440   11.8950    8.4140 C.3    19  ILE19       0.0252
     48  CG1      -67.3390   12.2260    8.3370 C.3    19  ILE19       0.0019
     49  CG2      -65.2260   11.7190    7.0160 C.3    19  ILE19       0.0019
     50  CD1      -68.1980   11.1470    7.7420 C.3    19  ILE19       0.0001
     51  N        -66.5990   16.8020  -10.2740 N.3   242  SER242     -0.1202
     52  CA       -67.3200   16.4330   -9.0530 C.3   242  SER242      0.2020
     53  C        -67.1960   14.9480   -8.7270 C.2   242  SER242      0.2619
     54  O        -67.7140   14.5110   -7.7010 O.2   242  SER242     -0.2717
     55  CB       -68.8000   16.8080   -9.1860 C.3   242  SER242      0.2103
     56  OG       -69.4750   15.9120  -10.0570 O.3   242  SER242     -0.2182
     57  N        -66.5510   14.1520   -9.5770 N.am  243  SER243     -0.1937
     58  CA       -66.2860   12.7630   -9.2380 C.3   243  SER243      0.2055
     59  C        -65.0820   12.5880   -8.3170 C.2   243  SER243      0.2643
     60  O        -64.8430   11.4730   -7.8520 O.2   243  SER243     -0.2714
     61  CB       -66.0620   11.9240  -10.5070 C.3   243  SER243      0.2130
     62  OG       -64.8300   12.2310  -11.1400 O.3   243  SER243     -0.2179
     63  N        -64.3200   13.6320   -8.0250 N.am  244  VAL244     -0.1963
     64  CA       -63.1150   13.4690   -7.2160 C.3   244  VAL244      0.1727
     65  C        -63.5390   13.3000   -5.7530 C.2   244  VAL244      0.2616
     66  O        -64.2180   14.1580   -5.1810 O.2   244  VAL244     -0.2715
     67  CB       -62.1420   14.6450   -7.4300 C.3   244  VAL244      0.0290
     68  CG1      -60.9330   14.5690   -6.4690 C.3   244  VAL244      0.0023
     69  CG2      -61.6030   14.6650   -8.8860 C.3   244  VAL244      0.0023
     70  N        -63.1590   12.1760   -5.1500 N.am  245  ASP245     -0.1957
     71  CA       -63.5550   11.8240   -3.7830 C.3   245  ASP245      0.1840
     72  C        -62.3490   11.9380   -2.8490 C.2   245  ASP245      0.2622
     73  O        -61.4820   11.0560   -2.8510 O.2   245  ASP245     -0.2715
     74  CB       -64.0930   10.4070   -3.7470 C.3   245  ASP245      0.1450
     75  CG       -64.6560   10.0220   -2.3860 C.2   245  ASP245      0.3671
     76  OD1      -64.2540   10.5940   -1.3440 O.co2 245  ASP245     -0.2456
     77  OD2      -65.5040    9.1220   -2.3670 O.co2 245  ASP245     -0.2456
     78  N        -62.3270   12.9850   -2.0210 N.am  246  ILE246     -0.1963
     79  CA       -61.1010   13.3140   -1.2930 C.3   246  ILE246      0.1727
     80  C        -60.7620   12.2150   -0.2860 C.2   246  ILE246      0.2616
     81  O        -59.5850   11.9360   -0.0430 O.2   246  ILE246     -0.2715
     82  CB       -61.2230   14.7020   -0.6400 C.3   246  ILE246      0.0290
     83  CG1      -59.9670   15.0250    0.1750 C.3   246  ILE246      0.0022
     84  CG2      -62.4640   14.7950    0.2500 C.3   246  ILE246      0.0023
     85  CD1      -59.8690   16.4920    0.5840 C.3   246  ILE246      0.0001
     86  N        -61.7830   11.5470    0.2680 N.am  247  LYS247     -0.1963
     87  CA       -61.5420   10.4500    1.1980 C.3   247  LYS247      0.1728
     88  C        -60.9030    9.2640    0.5080 C.2   247  LYS247      0.2616
     89  O        -60.0220    8.6160    1.0860 O.2   247  LYS247     -0.2715
     90  CB       -62.8420   10.0080    1.8680 C.3   247  LYS247      0.0311
     91  CG       -63.5170   11.0920    2.6430 C.3   247  LYS247      0.0038
     92  CD       -64.6880   10.5410    3.4510 C.3   247  LYS247      0.0206
     93  CE       -66.0250   10.8390    2.7790 C.3   247  LYS247      0.1093
     94  NZ       -66.0630   10.4760    1.3180 N.3   247  LYS247     -0.1314
     95  N        -61.3450    8.9480   -0.7200 N.am  248  LYS248     -0.1977
     96  CA       -60.7230    7.8700   -1.4760 C.3   248  LYS248      0.1596
     97  C        -59.2980    8.2080   -1.8620 C.2   248  LYS248      0.2287
     98  O        -58.4420    7.3150   -1.8940 O.2   248  LYS248     -0.2864
     99  CB       -61.5290    7.5510   -2.7490 C.3   248  LYS248      0.0298
    100  CG       -62.8230    6.8120   -2.4570 C.3   248  LYS248      0.0038
    101  CD       -63.6720    6.6250   -3.7140 C.3   248  LYS248      0.0206
    102  CE       -64.9410    5.8420   -3.4050 C.3   248  LYS248      0.1093
    103  NZ       -65.9030    5.8950   -4.5540 N.3   248  LYS248     -0.1314
    104  N        -60.3140   19.6410    2.8630 N.3   271  TYR271     -0.1241
    105  CA       -61.5380   19.8830    2.0790 C.3   271  TYR271      0.1605
    106  C        -61.6470   21.3490    1.6850 C.2   271  TYR271      0.2264
    107  O        -61.8320   21.6820    0.5070 O.2   271  TYR271     -0.2867
    108  CB       -62.7940   19.5040    2.8670 C.3   271  TYR271      0.0534
    109  CG       -63.3270   18.0890    2.7810 C.ar  271  TYR271     -0.0201
    110  CD1      -62.7040   17.0440    3.4620 C.ar  271  TYR271     -0.0009
    111  CD2      -64.5160   17.8120    2.1060 C.ar  271  TYR271     -0.0009
    112  CE1      -63.2190   15.7390    3.4250 C.ar  271  TYR271      0.0417
    113  CE2      -65.0450   16.5130    2.0610 C.ar  271  TYR271      0.0417
    114  CZ       -64.3990   15.4810    2.7210 C.ar  271  TYR271      0.1957
    115  OH       -64.9260   14.1930    2.6780 O.3   271  TYR271     -0.2866
@<TRIPOS>BOND
     1    62    61    1
     2    61    58    1
     3    51    52    1
     4    56    55    1
     5    57    58    1
     6    57    53   am
     7    58    59    1
     8    55    52    1
     9    52    53    1
    10    69    67    1
    11    53    54    2
    12    59    63   am
    13    59    60    2
    14    63    64    1
    15    67    64    1
    16    67    68    1
    17    64    65    1
    18    16    15   ar
    19    65    66    2
    20    65    70   am
    21    15    14    1
    22    15    17   ar
    23    14    13    1
    24    70    71    1
    25    13    10    1
    26   103   102    1
    27    10     9    1
    28    10    11    1
    29     9     3   am
    30    25    24    1
    31    71    74    1
    32    71    72    1
    33    74    75    1
    34   101   102    1
    35   101   100    1
    36     3     4    2
    37     3     2    1
    38    18    11   am
    39    18    19    1
    40    11    12    2
    41     2     1    1
    42     2     5    1
    43    73    72    2
    44    72    78   am
    45    99   100    1
    46    99    96    1
    47    22    19    1
    48    22    23    1
    49    75    77   ar
    50    75    76   ar
    51    24    23    1
    52    19    20    1
    53    78    79    1
    54    98    97    2
    55    97    96    1
    56     5     6    1
    57     6     7    1
    58    96    95    1
    59    20    21    2
    60    79    82    1
    61    79    80    1
    62    95    88   am
    63    82    83    1
    64    82    84    1
    65    80    81    2
    66    80    86   am
    67     7     8    1
    68    83    85    1
    69    86    87    1
    70    33    32   ar
    71   107   106    2
    72    88    89    2
    73    88    87    1
    74    26    27    1
    75    30    27    1
    76    30    31    1
    77    87    90    1
    78    94    93    1
    79    32    31    1
    80    32    34   ar
    81    27    28    1
    82   106   105    1
    83    90    91    1
    84   113   111   ar
    85   113   114   ar
    86   105   104    1
    87   105   108    1
    88   111   109   ar
    89    91    92    1
    90   115   114    1
    91   114   112   ar
    92    28    29    2
    93    93    92    1
    94   109   108    1
    95   109   110   ar
    96   112   110   ar
    97    42    40    1
    98    40    39    1
    99    35    36    1
   100    49    47    1
   101    39    36    1
   102    39    41    1
   103    50    48    1
   104    36    37    1
   105    48    47    1
   106    47    44    1
   107    46    45    2
   108    37    38    2
   109    44    45    1
   110    44    43    1
