@<TRIPOS>MOLECULE
tmp/5qelA00.pdb
 93 89 0 0 0
SMALL
GASTEIGER

@<TRIPOS>ATOM
      1  N        -51.8020   29.7680   -2.1430 N.3   193  ASN193     -0.1240
      2  CA       -50.8130   30.6060   -2.8150 C.3   193  ASN193      0.1653
      3  C        -49.4310   29.9570   -2.7840 C.2   193  ASN193      0.2266
      4  O        -48.7030   29.9680   -3.7850 O.2   193  ASN193     -0.2867
      5  CB       -50.7930   31.9840   -2.1510 C.3   193  ASN193      0.1155
      6  CG       -49.9410   32.9850   -2.8980 C.2   193  ASN193      0.2627
      7  OD1      -50.1980   33.2900   -4.0650 O.2   193  ASN193     -0.2716
      8  ND2      -48.9310   33.5170   -2.2270 N.am  193  ASN193     -0.0877
      9  N        -49.2070   26.9670   -5.2010 N.3   196  PHE196     -0.1227
     10  CA       -49.0560   27.4480   -6.5730 C.3   196  PHE196      0.1736
     11  C        -47.6310   27.9300   -6.8400 C.2   196  PHE196      0.2595
     12  O        -47.1000   27.7270   -7.9320 O.2   196  PHE196     -0.2718
     13  CB       -50.0860   28.5480   -6.8560 C.3   196  PHE196      0.0547
     14  CG       -51.5160   28.0920   -6.7430 C.ar  196  PHE196     -0.0202
     15  CD1      -51.8560   26.7480   -6.8900 C.ar  196  PHE196     -0.0042
     16  CD2      -52.5230   29.0050   -6.4840 C.ar  196  PHE196     -0.0042
     17  CE1      -53.1740   26.3270   -6.7760 C.ar  196  PHE196     -0.0003
     18  CE2      -53.8430   28.5970   -6.3750 C.ar  196  PHE196     -0.0003
     19  CZ       -54.1710   27.2570   -6.5250 C.ar  196  PHE196     -0.0000
     20  N        -46.9700   28.5320   -5.8450 N.am  197  LYS197     -0.1980
     21  CA       -45.5640   28.9120   -6.0290 C.3   197  LYS197      0.1596
     22  C        -44.6570   27.6950   -6.1920 C.2   197  LYS197      0.2287
     23  O        -43.7160   27.7170   -7.0000 O.2   197  LYS197     -0.2864
     24  CB       -45.0660   29.7810   -4.8590 C.3   197  LYS197      0.0298
     25  CG       -45.8060   31.0930   -4.7230 C.3   197  LYS197      0.0038
     26  CD       -45.5670   32.0430   -5.9130 C.3   197  LYS197      0.0206
     27  CE       -46.2020   33.4160   -5.6550 C.3   197  LYS197      0.1093
     28  NZ       -46.1090   34.3350   -6.8260 N.3   197  LYS197     -0.1314
     29  N        -45.6100   24.8020   -7.4660 N.3   199  ARG199     -0.1231
     30  CA       -45.9380   24.3100   -8.8210 C.3   199  ARG199      0.1694
     31  C        -45.2120   25.1150   -9.8940 C.2   199  ARG199      0.2591
     32  O        -44.5990   24.5500  -10.8000 O.2   199  ARG199     -0.2718
     33  CB       -47.4380   24.4030   -9.0510 C.3   199  ARG199      0.0321
     34  CG       -48.2790   23.2710   -8.5050 C.3   199  ARG199      0.0489
     35  CD       -49.7420   23.4550   -8.9330 C.3   199  ARG199      0.2205
     36  NE       -50.6030   22.3420   -8.5080 N.pl3 199  ARG199     -0.0865
     37  CZ       -51.8180   22.1070   -8.9900 C.cat 199  ARG199      0.5346
     38  NH1      -52.3240   22.8960   -9.9430 N.pl3 199  ARG199      0.1354
     39  NH2      -52.5200   21.0730   -8.5470 N.pl3 199  ARG199      0.1354
     40  N        -45.2870   26.4490   -9.8000 N.am  200  GLU200     -0.1979
     41  CA       -44.7150   27.3210  -10.8230 C.3   200  GLU200      0.1602
     42  C        -43.2080   27.1580  -10.9740 C.2   200  GLU200      0.2287
     43  O        -42.6670   27.4350  -12.0480 O.2   200  GLU200     -0.2864
     44  CB       -45.0670   28.7750  -10.4990 C.3   200  GLU200      0.0415
     45  CG       -46.5220   29.1050  -10.6800 C.3   200  GLU200      0.1163
     46  CD       -46.8540   30.5270  -10.2640 C.2   200  GLU200      0.3649
     47  OE1      -45.9150   31.2680   -9.8700 O.co2 200  GLU200     -0.2457
     48  OE2      -48.0490   30.8900  -10.3330 O.co2 200  GLU200     -0.2457
     49  N        -60.4650   29.0890   -8.0740 N.3   280  PHE280     -0.1227
     50  CA       -59.4240   29.9560   -8.5730 C.3   280  PHE280      0.1736
     51  C        -58.8040   29.4040   -9.8310 C.2   280  PHE280      0.2595
     52  O        -58.2970   30.1720  -10.6470 O.2   280  PHE280     -0.2718
     53  CB       -58.3500   30.1160   -7.5110 C.3   280  PHE280      0.0547
     54  CG       -57.4800   31.2930   -7.7170 C.ar  280  PHE280     -0.0202
     55  CD1      -57.9480   32.5670   -7.4470 C.ar  280  PHE280     -0.0042
     56  CD2      -56.1830   31.1320   -8.1660 C.ar  280  PHE280     -0.0042
     57  CE1      -57.1340   33.6600   -7.6240 C.ar  280  PHE280     -0.0003
     58  CE2      -55.3660   32.2160   -8.3420 C.ar  280  PHE280     -0.0003
     59  CZ       -55.8400   33.4850   -8.0750 C.ar  280  PHE280     -0.0000
     60  N        -58.8230   28.0810   -9.9820 N.am  281  ILE281     -0.1980
     61  CA       -58.1980   27.4470  -11.1290 C.3   281  ILE281      0.1595
     62  C        -58.9000   27.8720  -12.4070 C.2   281  ILE281      0.2287
     63  O        -58.2740   27.9730  -13.4710 O.2   281  ILE281     -0.2864
     64  CB       -58.2050   25.9140  -10.9530 C.3   281  ILE281      0.0276
     65  CG1      -57.0750   25.2700  -11.7510 C.3   281  ILE281      0.0022
     66  CG2      -59.5440   25.3190  -11.3830 C.3   281  ILE281      0.0022
     67  CD1      -56.0950   24.5100  -10.8820 C.3   281  ILE281      0.0001
     68  N        -56.0390   35.3710  -12.8110 N.3   289  ASP289     -0.1225
     69  CA       -55.8590   34.8550  -11.4610 C.3   289  ASP289      0.1805
     70  C        -54.5120   34.1780  -11.3120 C.2   289  ASP289      0.2597
     71  O        -53.9820   34.1150  -10.2270 O.2   289  ASP289     -0.2718
     72  CB       -56.9820   33.9040  -11.0720 C.3   289  ASP289      0.1424
     73  CG       -58.3060   34.6080  -10.9770 C.2   289  ASP289      0.3668
     74  OD1      -58.2800   35.8330  -10.7740 O.co2 289  ASP289     -0.2456
     75  OD2      -59.3580   33.9610  -11.1140 O.co2 289  ASP289     -0.2456
     76  N        -53.9940   33.6340  -12.4000 N.am  290  GLN290     -0.1979
     77  CA       -52.6820   33.0220  -12.3020 C.3   290  GLN290      0.1601
     78  C        -51.6620   34.0470  -11.8200 C.2   290  GLN290      0.2287
     79  O        -50.5320   33.7090  -11.5080 O.2   290  GLN290     -0.2864
     80  CB       -52.2440   32.3850  -13.6170 C.3   290  GLN290      0.0394
     81  CG       -51.9380   33.3080  -14.7760 C.3   290  GLN290      0.0908
     82  CD       -51.7730   32.5010  -16.0570 C.2   290  GLN290      0.2608
     83  OE1      -50.8610   31.7090  -16.1630 O.2   290  GLN290     -0.2717
     84  NE2      -52.6950   32.6720  -17.0080 N.am  290  GLN290     -0.0878
     85  N        -52.6200   36.3370   -9.3900 N.3   292  LYS292     -0.1245
     86  CA       -53.0910   36.7360   -8.0780 C.3   292  LYS292      0.1561
     87  C        -52.2880   36.1700   -6.9110 C.2   292  LYS292      0.2260
     88  O        -51.3470   35.4140   -7.0810 O.2   292  LYS292     -0.2867
     89  CB       -54.5540   36.3360   -7.9140 C.3   292  LYS292      0.0271
     90  CG       -55.3130   37.1490   -6.8880 C.3   292  LYS292      0.0035
     91  CD       -56.2730   38.1110   -7.5600 C.3   292  LYS292      0.0206
     92  CE       -57.1060   38.8960   -6.5470 C.3   292  LYS292      0.1093
     93  NZ       -58.1850   38.0300   -5.9820 N.3   292  LYS292     -0.1314
@<TRIPOS>BOND
     1    84    82   am
     2    83    82    2
     3    82    81    1
     4    81    80    1
     5    80    77    1
     6    63    62    2
     7    68    69    1
     8    62    61    1
     9    76    77    1
    10    76    70   am
    11    77    78    1
    12    43    42    2
    13    78    79    2
    14    65    64    1
    15    65    67    1
    16    69    70    1
    17    69    72    1
    18    66    64    1
    19    70    71    2
    20    61    64    1
    21    61    60    1
    22    75    73   ar
    23    72    73    1
    24    73    74   ar
    25    42    41    1
    26    41    44    1
    27    41    40    1
    28    32    31    2
    29    45    44    1
    30    45    46    1
    31    52    51    2
    32    48    46   ar
    33    46    47   ar
    34    60    51   am
    35    38    37    1
    36    31    40   am
    37    31    30    1
    38    51    50    1
    39    85    86    1
    40    33    30    1
    41    33    34    1
    42    37    39    1
    43    37    36    2
    44    35    36    1
    45    35    34    1
    46    30    29    1
    47    50    49    1
    48    50    53    1
    49    58    56   ar
    50    58    59   ar
    51    56    54   ar
    52    86    89    1
    53    86    87    1
    54    59    57   ar
    55    12    11    2
    56    89    90    1
    57    54    53    1
    58    54    55   ar
    59    57    55   ar
    60    91    90    1
    61    91    92    1
    62    88    87    2
    63    23    22    2
    64    15    17   ar
    65    15    14   ar
    66    13    14    1
    67    13    10    1
    68    11    10    1
    69    11    20   am
    70    28    27    1
    71    17    19   ar
    72    14    16   ar
    73    10     9    1
    74    92    93    1
    75    19    18   ar
    76    16    18   ar
    77    22    21    1
    78    21    20    1
    79    21    24    1
    80    26    27    1
    81    26    25    1
    82    24    25    1
    83     7     6    2
    84     4     3    2
    85     6     8   am
    86     6     5    1
    87     2     3    1
    88     2     5    1
    89     2     1    1
