@<TRIPOS>MOLECULE
tmp/5qeoA00.pdb
 75 70 0 0 0
SMALL
GASTEIGER

@<TRIPOS>ATOM
      1  N        -70.8980   15.1310   -3.9390 N.3     2  GLU2       -0.1231
      2  CA       -69.9740   16.1910   -4.3270 C.3     2  GLU2        0.1699
      3  C        -69.2060   16.6100   -3.0750 C.2     2  GLU2        0.2592
      4  O        -69.4840   16.1180   -1.9770 O.2     2  GLU2       -0.2718
      5  CB       -70.7210   17.3740   -4.9640 C.3     2  GLU2        0.0402
      6  CG       -69.8380   18.5880   -5.2710 C.3     2  GLU2        0.1161
      7  CD       -70.6100   19.8270   -5.6340 C.2     2  GLU2        0.3649
      8  OE1      -70.4010   20.3470   -6.7510 O.co2   2  GLU2       -0.2457
      9  OE2      -71.4200   20.2900   -4.8040 O.co2   2  GLU2       -0.2457
     10  N        -68.2390   17.5080   -3.2220 N.am    3  MET3       -0.1979
     11  CA       -67.4060   17.9320   -2.1080 C.3     3  MET3        0.1605
     12  C        -67.9790   19.0980   -1.3000 C.2     3  MET3        0.2287
     13  O        -68.0500   19.0110   -0.0690 O.2     3  MET3       -0.2864
     14  CB       -66.0220   18.3010   -2.6300 C.3     3  MET3        0.0413
     15  CG       -64.9990   18.4910   -1.5300 C.3     3  MET3        0.0598
     16  SD       -63.3270   18.6120   -2.1680 S.3     3  MET3       -0.1393
     17  CE       -63.6700   19.3540   -3.7820 C.3     3  MET3        0.0692
     18  N        -56.7470   18.6730   -6.7030 N.3   232  LEU232     -0.1245
     19  CA       -56.9010   19.7390   -7.6980 C.3   232  LEU232      0.1561
     20  C        -56.4280   19.3030   -9.0880 C.2   232  LEU232      0.2260
     21  O        -57.0580   19.6470  -10.0950 O.2   232  LEU232     -0.2867
     22  CB       -56.1530   20.9880   -7.2300 C.3   232  LEU232      0.0270
     23  CG       -56.7580   21.6860   -6.0250 C.3   232  LEU232      0.0019
     24  CD1      -55.7670   22.7350   -5.4590 C.3   232  LEU232      0.0001
     25  CD2      -58.0890   22.3330   -6.3570 C.3   232  LEU232      0.0001
     26  N        -59.1380   17.1690  -10.6170 N.3   235  MET235     -0.1230
     27  CA       -60.3030   17.9390  -11.0540 C.3   235  MET235      0.1702
     28  C        -60.0720   18.5860  -12.4170 C.2   235  MET235      0.2592
     29  O        -61.0290   18.7610  -13.1860 O.2   235  MET235     -0.2718
     30  CB       -60.6730   18.9890  -10.0090 C.3   235  MET235      0.0401
     31  CG       -61.2490   18.3910   -8.7580 C.3   235  MET235      0.0596
     32  SD       -61.5640   19.6180   -7.4430 S.3   235  MET235     -0.1393
     33  CE       -63.1310   20.2580   -7.9720 C.3   235  MET235      0.0692
     34  N        -58.8220   18.8890  -12.7610 N.am  236  ASP236     -0.1974
     35  CA       -58.4720   19.4340  -14.0800 C.3   236  ASP236      0.1709
     36  C        -58.4260   18.3700  -15.1730 C.2   236  ASP236      0.2293
     37  O        -58.6580   18.6770  -16.3450 O.2   236  ASP236     -0.2864
     38  CB       -57.0980   20.1030  -14.0400 C.3   236  ASP236      0.1436
     39  CG       -57.1570   21.5770  -13.6920 C.2   236  ASP236      0.3671
     40  OD1      -58.2550   22.1680  -13.6970 O.co2 236  ASP236     -0.2456
     41  OD2      -56.0800   22.1410  -13.4090 O.co2 236  ASP236     -0.2456
     42  N        -65.3870   16.8300  -12.8900 N.3   241  PRO241     -0.2102
     43  CA       -64.6230   17.1580  -11.6620 C.3   241  PRO241      0.1504
     44  C        -65.3480   16.8130  -10.3770 C.2   241  PRO241      0.2576
     45  O        -64.6870   16.5570   -9.3670 O.2   241  PRO241     -0.2718
     46  CB       -64.3960   18.6690  -11.7790 C.3   241  PRO241      0.0282
     47  CG       -64.5290   18.9680  -13.2200 C.3   241  PRO241      0.0208
     48  CD       -65.5560   18.0100  -13.7490 C.3   241  PRO241      0.0893
     49  N        -66.6830   16.8070  -10.3650 N.am  242  SER242     -0.1953
     50  CA       -67.3910   16.4830   -9.1260 C.3   242  SER242      0.1924
     51  C        -67.2580   15.0160   -8.7370 C.2   242  SER242      0.2314
     52  O        -67.7360   14.6390   -7.6650 O.2   242  SER242     -0.2863
     53  CB       -68.8710   16.8480   -9.2520 C.3   242  SER242      0.2116
     54  OG       -69.5360   15.9240  -10.0990 O.3   242  SER242     -0.2180
     55  N        -60.4340   25.0810   -6.2550 N.3   278  ALA278     -0.1245
     56  CA       -61.0980   24.7310   -7.5070 C.3   278  ALA278      0.1562
     57  C        -61.7800   25.9350   -8.1560 C.2   278  ALA278      0.2260
     58  O        -62.0060   25.9280   -9.3630 O.2   278  ALA278     -0.2867
     59  CB       -62.1150   23.6150   -7.2720 C.3   278  ALA278      0.0290
     60  N        -58.8590   28.1170   -9.9520 N.3   281  ILE281     -0.1231
     61  CA       -58.2360   27.4860  -11.1050 C.3   281  ILE281      0.1692
     62  C        -58.9260   27.9350  -12.3820 C.2   281  ILE281      0.2591
     63  O        -58.2800   28.1040  -13.4280 O.2   281  ILE281     -0.2718
     64  CB       -58.2670   25.9530  -10.9340 C.3   281  ILE281      0.0266
     65  CG1      -57.1270   25.2880  -11.7030 C.3   281  ILE281      0.0019
     66  CG2      -59.6010   25.3760  -11.3840 C.3   281  ILE281      0.0020
     67  CD1      -56.2430   24.4370  -10.8190 C.3   281  ILE281      0.0001
     68  N        -60.2320   28.1640  -12.3170 N.am  282  MET282     -0.1979
     69  CA       -60.9960   28.5370  -13.5030 C.3   282  MET282      0.1605
     70  C        -61.2460   30.0440  -13.5520 C.2   282  MET282      0.2287
     71  O        -61.3240   30.6330  -14.6350 O.2   282  MET282     -0.2864
     72  CB       -62.3250   27.7840  -13.5280 C.3   282  MET282      0.0413
     73  CG       -62.1990   26.3000  -13.2000 C.3   282  MET282      0.0598
     74  SD       -63.7600   25.4050  -13.3200 S.3   282  MET282     -0.1393
     75  CE       -63.2040   23.7030  -13.1200 C.3   282  MET282      0.0692
@<TRIPOS>BOND
     1    37    36    2
     2    36    35    1
     3    71    70    2
     4    35    38    1
     5    35    34    1
     6    38    39    1
     7    48    47    1
     8    48    42    1
     9    40    39   ar
    10    39    41   ar
    11    70    69    1
    12    72    69    1
    13    72    73    1
    14    69    68    1
    15    63    62    2
    16    74    73    1
    17    74    75    1
    18    47    46    1
    19    29    28    2
    20    42    43    1
    21    34    28   am
    22    28    27    1
    23    62    68   am
    24    62    61    1
    25    46    43    1
    26    65    64    1
    27    65    67    1
    28    43    44    1
    29    66    64    1
    30    61    64    1
    31    61    60    1
    32    27    26    1
    33    27    30    1
    34    44    49   am
    35    44    45    2
    36    49    50    1
    37    54    53    1
    38    21    20    2
    39    30    31    1
    40    58    57    2
    41    53    50    1
    42    50    51    1
    43    20    19    1
    44    31    32    1
    45    51    52    2
    46    57    56    1
    47    33    32    1
    48    19    22    1
    49    19    18    1
    50    56    59    1
    51    56    55    1
    52    22    23    1
    53     8     7   ar
    54    25    23    1
    55    23    24    1
    56     7     6    1
    57     7     9   ar
    58     6     5    1
    59     5     2    1
    60     2     1    1
    61     2     3    1
    62    17    16    1
    63    10     3   am
    64    10    11    1
    65     3     4    2
    66    14    11    1
    67    14    15    1
    68    16    15    1
    69    11    12    1
    70    12    13    2
