@<TRIPOS>MOLECULE
tmp/5qeqA00.pdb
 75 70 0 0 0
SMALL
GASTEIGER

@<TRIPOS>ATOM
      1  N         22.3410   -8.6960  -21.4080 N.3     2  GLU2       -0.1231
      2  CA        23.7220   -8.9660  -21.7670 C.3     2  GLU2        0.1699
      3  C         24.4740   -9.4150  -20.5070 C.2     2  GLU2        0.2592
      4  O         23.9310   -9.4310  -19.3960 O.2     2  GLU2       -0.2718
      5  CB        24.3740   -7.7270  -22.3950 C.3     2  GLU2        0.0402
      6  CG        25.8700   -7.8930  -22.7130 C.3     2  GLU2        0.1161
      7  CD        26.5750   -6.6040  -23.0480 C.2     2  GLU2        0.3649
      8  OE1       27.0980   -6.4890  -24.1730 O.co2   2  GLU2       -0.2457
      9  OE2       26.6370   -5.7220  -22.1740 O.co2   2  GLU2       -0.2457
     10  N         25.7290   -9.8040  -20.6860 N.am    3  MET3       -0.1979
     11  CA        26.5220  -10.3120  -19.5800 C.3     3  MET3        0.1605
     12  C         27.2140   -9.2260  -18.7540 C.2     3  MET3        0.2287
     13  O         27.0650   -9.1960  -17.5280 O.2     3  MET3       -0.2864
     14  CB        27.5460  -11.2970  -20.1240 C.3     3  MET3        0.0413
     15  CG        28.2100  -12.1110  -19.0420 C.3     3  MET3        0.0598
     16  SD        29.0800  -13.4960  -19.7550 S.3     3  MET3       -0.1393
     17  CE        29.6020  -12.8100  -21.3250 C.3     3  MET3        0.0692
     18  N         32.5290  -19.2070  -24.3130 N.3   232  LEU232     -0.1245
     19  CA        33.3650  -18.5120  -25.2920 C.3   232  LEU232      0.1561
     20  C         33.2230  -19.1200  -26.6830 C.2   232  LEU232      0.2260
     21  O         33.1750  -18.3940  -27.6780 O.2   232  LEU232     -0.2867
     22  CB        34.8240  -18.5360  -24.8340 C.3   232  LEU232      0.0270
     23  CG        35.1160  -17.6720  -23.6100 C.3   232  LEU232      0.0019
     24  CD1       36.5000  -17.9810  -23.0290 C.3   232  LEU232      0.0001
     25  CD2       34.9880  -16.2000  -23.9500 C.3   232  LEU232      0.0001
     26  N         29.9610  -17.8470  -28.1790 N.3   235  MET235     -0.1230
     27  CA        30.0640  -16.4490  -28.6030 C.3   235  MET235      0.1702
     28  C         30.7610  -16.3200  -29.9560 C.2   235  MET235      0.2592
     29  O         30.4740  -15.3880  -30.7060 O.2   235  MET235     -0.2718
     30  CB        30.7900  -15.6160  -27.5520 C.3   235  MET235      0.0401
     31  CG        29.9930  -15.4340  -26.2860 C.3   235  MET235      0.0596
     32  SD        30.9100  -14.5930  -24.9680 S.3   235  MET235     -0.1393
     33  CE        30.6710  -12.8900  -25.4640 C.3   235  MET235      0.0692
     34  N         31.6400  -17.2560  -30.2960 N.am  236  ASP236     -0.1974
     35  CA        32.3020  -17.2770  -31.6060 C.3   236  ASP236      0.1709
     36  C         31.4270  -17.8510  -32.7080 C.2   236  ASP236      0.2293
     37  O         31.6230  -17.5270  -33.8800 O.2   236  ASP236     -0.2864
     38  CB        33.5680  -18.1370  -31.5670 C.3   236  ASP236      0.1436
     39  CG        34.8260  -17.3450  -31.2890 C.2   236  ASP236      0.3671
     40  OD1       34.7860  -16.0950  -31.2850 O.co2 236  ASP236     -0.2456
     41  OD2       35.8720  -18.0040  -31.0880 O.co2 236  ASP236     -0.2456
     42  N         26.5850  -12.6410  -30.4370 N.3   241  PRO241     -0.2102
     43  CA        27.2430  -13.1280  -29.2100 C.3   241  PRO241      0.1504
     44  C         26.5530  -12.7130  -27.9190 C.2   241  PRO241      0.2576
     45  O         26.6300  -13.4650  -26.9430 O.2   241  PRO241     -0.2718
     46  CB        28.6480  -12.5230  -29.3030 C.3   241  PRO241      0.0282
     47  CG        28.8530  -12.2620  -30.7330 C.3   241  PRO241      0.0208
     48  CD        27.5190  -11.8740  -31.2690 C.3   241  PRO241      0.0893
     49  N         25.9140  -11.5380  -27.8660 N.am  242  SER242     -0.1953
     50  CA        25.2620  -11.0870  -26.6360 C.3   242  SER242      0.1924
     51  C         24.0460  -11.9300  -26.2810 C.2   242  SER242      0.2314
     52  O         23.4600  -11.7330  -25.2140 O.2   242  SER242     -0.2863
     53  CB        24.8400   -9.6240  -26.7660 C.3   242  SER242      0.2116
     54  OG        23.7330   -9.5100  -27.6570 O.3   242  SER242     -0.2180
     55  N         36.1600  -12.7160  -23.7720 N.3   278  ALA278     -0.1245
     56  CA        35.5180  -12.3140  -25.0070 C.3   278  ALA278      0.1562
     57  C         36.2110  -11.1110  -25.6430 C.2   278  ALA278      0.2260
     58  O         36.0640  -10.8880  -26.8440 O.2   278  ALA278     -0.2867
     59  CB        34.0470  -12.0050  -24.7670 C.3   278  ALA278      0.0290
     60  N         39.5380  -12.5190  -27.4720 N.3   281  ILE281     -0.1231
     61  CA        39.2890  -13.3930  -28.6070 C.3   281  ILE281      0.1692
     62  C         39.3080  -12.5880  -29.8890 C.2   281  ILE281      0.2591
     63  O         39.6760  -13.1000  -30.9530 O.2   281  ILE281     -0.2718
     64  CB        37.9540  -14.1370  -28.4190 C.3   281  ILE281      0.0266
     65  CG1       37.9530  -15.4680  -29.1670 C.3   281  ILE281      0.0019
     66  CG2       36.7830  -13.2880  -28.8920 C.3   281  ILE281      0.0020
     67  CD1       37.6680  -16.6540  -28.2670 C.3   281  ILE281      0.0001
     68  N         38.9270  -11.3230  -29.8090 N.am  282  MET282     -0.1979
     69  CA        38.8810  -10.4670  -30.9800 C.3   282  MET282      0.1605
     70  C         40.0600   -9.4920  -31.0200 C.2   282  MET282      0.2287
     71  O         40.5440   -9.1270  -32.0980 O.2   282  MET282     -0.2864
     72  CB        37.5640   -9.7010  -30.9980 C.3   282  MET282      0.0413
     73  CG        36.3560  -10.5650  -30.6560 C.3   282  MET282      0.0598
     74  SD        34.7960   -9.6690  -30.7560 S.3   282  MET282     -0.1393
     75  CE        33.6080  -11.0190  -30.5780 C.3   282  MET282      0.0692
@<TRIPOS>BOND
     1    37    36    2
     2    36    35    1
     3    71    70    2
     4    35    38    1
     5    35    34    1
     6    38    39    1
     7    39    40   ar
     8    39    41   ar
     9    48    47    1
    10    48    42    1
    11    70    69    1
    12    72    69    1
    13    72    73    1
    14    69    68    1
    15    63    62    2
    16    74    73    1
    17    74    75    1
    18    47    46    1
    19    29    28    2
    20    42    43    1
    21    34    28   am
    22    28    27    1
    23    62    68   am
    24    62    61    1
    25    46    43    1
    26    43    44    1
    27    65    64    1
    28    65    67    1
    29    66    64    1
    30    61    64    1
    31    61    60    1
    32    27    26    1
    33    27    30    1
    34    44    49   am
    35    44    45    2
    36    49    50    1
    37    21    20    2
    38    54    53    1
    39    30    31    1
    40    58    57    2
    41    53    50    1
    42    20    19    1
    43    50    51    1
    44    31    32    1
    45    51    52    2
    46    57    56    1
    47    33    32    1
    48    19    22    1
    49    19    18    1
    50    56    59    1
    51    56    55    1
    52    22    23    1
    53     8     7   ar
    54    25    23    1
    55    23    24    1
    56     7     6    1
    57     7     9   ar
    58     6     5    1
    59     5     2    1
    60     2     1    1
    61     2     3    1
    62    17    16    1
    63    10     3   am
    64    10    11    1
    65     3     4    2
    66    14    11    1
    67    14    15    1
    68    16    15    1
    69    11    12    1
    70    12    13    2
