@<TRIPOS>MOLECULE
tmp/5qerA01.pdb
 92 87 0 0 0
SMALL
GASTEIGER

@<TRIPOS>ATOM
      1  N        -39.9180    9.6570   15.9160 N.3    46  TYR46      -0.1241
      2  CA       -41.0690    9.2180   16.7030 C.3    46  TYR46       0.1605
      3  C        -41.2060    7.7060   16.5570 C.2    46  TYR46       0.2264
      4  O        -41.1290    7.1580   15.4480 O.2    46  TYR46      -0.2867
      5  CB       -42.3720    9.9350   16.2780 C.3    46  TYR46       0.0534
      6  CG       -42.3540   11.4590   16.3380 C.ar   46  TYR46      -0.0201
      7  CD1      -42.4430   12.1370   17.5550 C.ar   46  TYR46      -0.0009
      8  CD2      -42.2620   12.2280   15.1790 C.ar   46  TYR46      -0.0009
      9  CE1      -42.4400   13.5230   17.6050 C.ar   46  TYR46       0.0417
     10  CE2      -42.2590   13.6090   15.2350 C.ar   46  TYR46       0.0417
     11  CZ       -42.3430   14.2550   16.4520 C.ar   46  TYR46       0.1957
     12  OH       -42.3330   15.6410   16.5250 O.3    46  TYR46      -0.2866
     13  N        -43.7500    5.7970   16.8230 N.3    48  ASP48      -0.1225
     14  CA       -44.9880    5.3460   16.2030 C.3    48  ASP48       0.1805
     15  C        -45.1930    5.8800   14.7840 C.2    48  ASP48       0.2597
     16  O        -46.3050    5.7810   14.2640 O.2    48  ASP48      -0.2718
     17  CB       -46.1890    5.7520   17.0590 C.3    48  ASP48       0.1424
     18  CG       -46.2670    7.2410   17.2880 C.2    48  ASP48       0.3668
     19  OD1      -45.2140    7.9110   17.2280 O.co2  48  ASP48      -0.2456
     20  OD2      -47.3830    7.7490   17.5430 O.co2  48  ASP48      -0.2456
     21  N        -44.1620    6.4560   14.1640 N.am   49  VAL49      -0.1980
     22  CA       -44.2520    6.9220   12.7630 C.3    49  VAL49       0.1595
     23  C        -43.0850    6.3010   12.0130 C.2    49  VAL49       0.2287
     24  O        -41.9280    6.7090   12.1990 O.2    49  VAL49      -0.2864
     25  CB       -44.2300    8.4560   12.6470 C.3    49  VAL49       0.0276
     26  CG1      -44.3220    8.8870   11.1300 C.3    49  VAL49       0.0022
     27  CG2      -45.3640    9.0940   13.4360 C.3    49  VAL49       0.0022
     28  N        -42.5790   17.8710    7.4940 N.3   215  CYS215     -0.1221
     29  CA       -42.9030   18.7130    8.6430 C.3   215  CYS215      0.1808
     30  C        -42.1120   18.1460    9.8140 C.2   215  CYS215      0.2602
     31  O        -40.9420   17.8300    9.6200 O.2   215  CYS215     -0.2717
     32  CB       -44.4220   18.7880    8.8300 C.3   215  CYS215      0.0970
     33  SG       -45.3340   17.1530    8.7600 S.3   215  CYS215     -0.0800
     34  N        -42.6840   17.9730   11.0150 N.am  216  SER216     -0.1938
     35  CA       -41.8940   17.2890   12.0480 C.3   216  SER216      0.2055
     36  C        -41.9450   15.7550   11.8800 C.2   216  SER216      0.2642
     37  O        -40.8980   15.1150   11.7260 O.2   216  SER216     -0.2714
     38  CB       -42.3460   17.7380   13.4420 C.3   216  SER216      0.2130
     39  OG       -41.3830   17.2720   14.4100 O.3   216  SER216     -0.2179
     40  N        -43.1430   15.1630   11.8290 N.am  217  ALA217     -0.1977
     41  CA       -43.2500   13.7130   11.6330 C.3   217  ALA217      0.1597
     42  C        -43.3870   13.3150   10.1630 C.2   217  ALA217      0.2287
     43  O        -43.1730   12.1360    9.8330 O.2   217  ALA217     -0.2864
     44  CB       -44.4500   13.1440   12.4050 C.3   217  ALA217      0.0319
     45  N        -46.2850   13.4560    8.3000 N.3   219  ILE219     -0.1231
     46  CA       -47.5860   12.8300    8.0060 C.3   219  ILE219      0.1692
     47  C        -48.7630   13.7980    8.0930 C.2   219  ILE219      0.2593
     48  O        -49.7710   13.6260    7.3880 O.2   219  ILE219     -0.2718
     49  CB       -47.8280   11.6040    8.9200 C.3   219  ILE219      0.0266
     50  CG1      -47.8540   11.9840   10.3960 C.3   219  ILE219      0.0019
     51  CG2      -46.7810   10.5440    8.6430 C.3   219  ILE219      0.0020
     52  CD1      -48.2110   10.8090   11.3390 C.3   219  ILE219      0.0001
     53  N        -48.6750   14.8210    8.9400 N.am  220  GLY220     -0.1942
     54  CA       -49.8100   15.7070    9.1580 C.3   220  GLY220      0.2014
     55  C        -49.9340   16.8740    8.1880 C.2   220  GLY220      0.2638
     56  O        -50.6970   16.7820    7.2160 O.2   220  GLY220     -0.2714
     57  N        -49.2330   17.9920    8.4430 N.am  221  ARG221     -0.1977
     58  CA       -49.1460   19.0660    7.4380 C.3   221  ARG221      0.1597
     59  C        -48.6840   18.5350    6.0760 C.2   221  ARG221      0.2287
     60  O        -49.1900   18.9630    5.0200 O.2   221  ARG221     -0.2864
     61  CB       -48.1860   20.1670    7.9280 C.3   221  ARG221      0.0334
     62  CG       -48.6450   20.8150    9.2240 C.3   221  ARG221      0.0492
     63  CD       -47.6100   21.7620    9.7740 C.3   221  ARG221      0.2205
     64  NE       -47.8730   22.0280   11.1860 N.pl3 221  ARG221     -0.0865
     65  CZ       -47.0970   22.7720   11.9680 C.cat 221  ARG221      0.5346
     66  NH1      -45.9840   23.3110   11.4780 N.pl3 221  ARG221      0.1354
     67  NH2      -47.4370   22.9590   13.2450 N.pl3 221  ARG221      0.1354
     68  N        -53.4810   14.0110   10.4930 N.3   262  GLN262     -0.1231
     69  CA       -53.3360   13.5690   11.8950 C.3   262  GLN262      0.1698
     70  C        -54.5330   13.8930   12.7820 C.2   262  GLN262      0.2592
     71  O        -54.6080   13.3630   13.9050 O.2   262  GLN262     -0.2718
     72  CB       -52.0990   14.2200   12.5260 C.3   262  GLN262      0.0381
     73  CG       -50.7870   13.6050   12.1430 C.3   262  GLN262      0.0905
     74  CD       -49.6020   14.3610   12.7700 C.2   262  GLN262      0.2608
     75  OE1      -49.3210   15.5200   12.4280 O.2   262  GLN262     -0.2717
     76  NE2      -48.9290   13.7160   13.7080 N.am  262  GLN262     -0.0878
     77  N        -55.4270   14.7770   12.3430 N.am  263  THR263     -0.1953
     78  CA       -56.5570   15.2270   13.1460 C.3   263  THR263      0.1897
     79  C        -57.7660   15.4950   12.2560 C.2   263  THR263      0.2313
     80  O        -57.6420   15.7230   11.0510 O.2   263  THR263     -0.2863
     81  CB       -56.2380   16.5120   13.9160 C.3   263  THR263      0.1794
     82  OG1      -56.1070   17.6110   12.9960 O.3   263  THR263     -0.2208
     83  CG2      -54.9650   16.3790   14.7220 C.3   263  THR263      0.0378
     84  N        -57.3650   18.8450   10.5700 N.3   266  GLN266     -0.1245
     85  CA       -56.5860   18.7790    9.3290 C.3   266  GLN266      0.1566
     86  C        -57.4300   18.2230    8.1800 C.2   266  GLN266      0.2260
     87  O        -57.2900   18.6640    7.0330 O.2   266  GLN266     -0.2867
     88  CB       -55.3230   17.9440    9.5410 C.3   266  GLN266      0.0367
     89  CG       -54.2050   18.7130   10.2560 C.3   266  GLN266      0.0905
     90  CD       -52.9620   17.8930   10.4840 C.2   266  GLN266      0.2608
     91  OE1      -52.8740   16.7290   10.0570 O.2   266  GLN266     -0.2717
     92  NE2      -51.9750   18.4950   11.1680 N.am  266  GLN266     -0.0878
@<TRIPOS>BOND
     1    60    59    2
     2    59    58    1
     3    87    86    2
     4    56    55    2
     5    48    47    2
     6    58    61    1
     7    58    57    1
     8    28    29    1
     9    61    62    1
    10    46    47    1
    11    46    45    1
    12    46    49    1
    13    47    53   am
    14    86    85    1
    15    55    57   am
    16    55    54    1
    17    29    32    1
    18    29    30    1
    19    51    49    1
    20    33    32    1
    21    49    50    1
    22    53    54    1
    23    62    63    1
    24    85    88    1
    25    85    84    1
    26    88    89    1
    27    31    30    2
    28    63    64    1
    29    30    34   am
    30    43    42    2
    31    91    90    2
    32    42    41    1
    33    89    90    1
    34    50    52    1
    35    90    92   am
    36    68    69    1
    37    34    35    1
    38    80    79    2
    39    26    25    1
    40    64    65    2
    41    66    65    1
    42    41    40    1
    43    41    44    1
    44    37    36    2
    45    40    36   am
    46    36    35    1
    47    69    72    1
    48    69    70    1
    49    65    67    1
    50    23    24    2
    51    23    22    1
    52    35    38    1
    53    73    72    1
    54    73    74    1
    55    79    78    1
    56    77    70   am
    57    77    78    1
    58    75    74    2
    59    25    22    1
    60    25    27    1
    61    22    21    1
    62    74    76   am
    63    70    71    2
    64    82    81    1
    65    78    81    1
    66    38    39    1
    67    81    83    1
    68    21    15   am
    69    16    15    2
    70    15    14    1
    71     8    10   ar
    72     8     6   ar
    73    10    11   ar
    74     4     3    2
    75     1     2    1
    76    14    13    1
    77    14    17    1
    78     5     6    1
    79     5     2    1
    80     6     7   ar
    81    11    12    1
    82    11     9   ar
    83     3     2    1
    84    17    18    1
    85    19    18   ar
    86    18    20   ar
    87     7     9   ar
