@<TRIPOS>MOLECULE
tmp/5qetA01.pdb
 102 92 0 0 0
SMALL
GASTEIGER

@<TRIPOS>ATOM
      1  N         42.9630  -37.6860  -25.1420 N.3   105  ARG105     -0.1245
      2  CA        44.3300  -37.2240  -25.3620 C.3   105  ARG105      0.1563
      3  C         44.8840  -36.5150  -24.1310 C.2   105  ARG105      0.2260
      4  O         46.0650  -36.6970  -23.7960 O.2   105  ARG105     -0.2867
      5  CB        44.3860  -36.2910  -26.5720 C.3   105  ARG105      0.0307
      6  CG        45.7720  -35.7260  -26.8840 C.3   105  ARG105      0.0489
      7  CD        46.6200  -36.6880  -27.7100 C.3   105  ARG105      0.2205
      8  NE        48.0050  -36.2280  -27.8090 N.pl3 105  ARG105     -0.0865
      9  CZ        48.3920  -35.1390  -28.4650 C.cat 105  ARG105      0.5346
     10  NH1       47.5030  -34.3740  -29.0930 N.pl3 105  ARG105      0.1354
     11  NH2       49.6770  -34.8040  -28.4850 N.pl3 105  ARG105      0.1354
     12  N         58.3840  -36.2330  -20.2200 N.3   146  SER146     -0.1217
     13  CA        58.9370  -34.8940  -20.0830 C.3   146  SER146      0.1889
     14  C         57.9970  -34.0610  -19.2360 C.2   146  SER146      0.2288
     15  O         56.8280  -34.4230  -19.0490 O.2   146  SER146     -0.2866
     16  CB        59.1530  -34.2180  -21.4450 C.3   146  SER146      0.2089
     17  OG        57.9170  -33.8330  -22.0140 O.3   146  SER146     -0.2183
     18  N         57.3550  -29.7020  -18.2190 N.3   148  ASP148     -0.1239
     19  CA        57.6550  -28.2800  -18.4230 C.3   148  ASP148      0.1674
     20  C         56.9480  -27.4580  -17.3410 C.2   148  ASP148      0.2266
     21  O         55.7200  -27.3050  -17.3780 O.2   148  ASP148     -0.2867
     22  CB        57.2230  -27.8540  -19.8200 C.3   148  ASP148      0.1410
     23  CG        57.7470  -26.4950  -20.2140 C.2   148  ASP148      0.3668
     24  OD1       58.3830  -25.8300  -19.3770 O.co2 148  ASP148     -0.2456
     25  OD2       57.5050  -26.0860  -21.3720 O.co2 148  ASP148     -0.2456
     26  N         56.0210  -24.0780  -15.4840 N.3   150  LYS150     -0.1245
     27  CA        55.8660  -22.6440  -15.6860 C.3   150  LYS150      0.1561
     28  C         55.3260  -22.0180  -14.4060 C.2   150  LYS150      0.2260
     29  O         55.0380  -22.7010  -13.4200 O.2   150  LYS150     -0.2867
     30  CB        54.9550  -22.3580  -16.8820 C.3   150  LYS150      0.0271
     31  CG        55.3760  -23.0290  -18.1930 C.3   150  LYS150      0.0035
     32  CD        56.4190  -22.2430  -18.9620 C.3   150  LYS150      0.0206
     33  CE        56.0680  -22.1800  -20.4440 C.3   150  LYS150      0.1093
     34  NZ        55.9690  -23.5300  -21.0730 N.3   150  LYS150     -0.1314
     35  N         52.9900  -28.5730  -17.6770 N.3   155  VAL155     -0.1245
     36  CA        52.5660  -29.5370  -18.7010 C.3   155  VAL155      0.1561
     37  C         53.5080  -30.7180  -18.7120 C.2   155  VAL155      0.2260
     38  O         54.7230  -30.5500  -18.8660 O.2   155  VAL155     -0.2867
     39  CB        52.5560  -28.9380  -20.1120 C.3   155  VAL155      0.0252
     40  CG1       51.9180  -29.9210  -21.0850 C.3   155  VAL155      0.0019
     41  CG2       51.8750  -27.6970  -20.1250 C.3   155  VAL155      0.0019
     42  N         54.2700  -34.6210  -20.5590 N.3   157  GLN157     -0.1245
     43  CA        54.0320  -35.6910  -21.5120 C.3   157  GLN157      0.1566
     44  C         54.1850  -37.0380  -20.8210 C.2   157  GLN157      0.2260
     45  O         55.2060  -37.2880  -20.1570 O.2   157  GLN157     -0.2867
     46  CB        54.9920  -35.6060  -22.7170 C.3   157  GLN157      0.0367
     47  CG        54.9070  -34.3680  -23.5380 C.3   157  GLN157      0.0905
     48  CD        55.8750  -34.4470  -24.7160 C.2   157  GLN157      0.2608
     49  OE1       57.0780  -34.6420  -24.5270 O.2   157  GLN157     -0.2717
     50  NE2       55.3530  -34.3450  -25.9240 N.am  157  GLN157     -0.0878
     51  N         50.3630  -41.5150  -26.2890 N.3   170  GLU170     -0.1245
     52  CA        50.8310  -40.3020  -25.6340 C.3   170  GLU170      0.1567
     53  C         49.6640  -39.5200  -25.0260 C.2   170  GLU170      0.2260
     54  O         48.7450  -39.1250  -25.7400 O.2   170  GLU170     -0.2867
     55  CB        51.5640  -39.4370  -26.6440 C.3   170  GLU170      0.0388
     56  CG        52.1530  -38.1480  -26.0710 C.3   170  GLU170      0.1160
     57  CD        52.7400  -37.2720  -27.1710 C.2   170  GLU170      0.3649
     58  OE1       53.2530  -37.8260  -28.1720 O.co2 170  GLU170     -0.2457
     59  OE2       52.6590  -36.0360  -27.0590 O.co2 170  GLU170     -0.2457
     60  N         48.7280  -36.0480  -22.6640 N.3   172  LEU172     -0.1245
     61  CA        49.1740  -34.7530  -22.1500 C.3   172  LEU172      0.1561
     62  C         48.4880  -34.4260  -20.8110 C.2   172  LEU172      0.2260
     63  O         47.2570  -34.4850  -20.7050 O.2   172  LEU172     -0.2867
     64  CB        48.8780  -33.6470  -23.1620 C.3   172  LEU172      0.0270
     65  CG        49.5240  -33.8270  -24.5480 C.3   172  LEU172      0.0019
     66  CD1       49.1400  -32.6430  -25.4160 C.3   172  LEU172      0.0001
     67  CD2       51.0340  -33.9780  -24.4430 C.3   172  LEU172      0.0001
     68  N         47.8200  -31.4860  -18.1780 N.3   174  PHE174     -0.1241
     69  CA        47.7850  -30.0410  -17.9810 C.3   174  PHE174      0.1605
     70  C         47.3850  -29.7490  -16.5300 C.2   174  PHE174      0.2264
     71  O         46.2280  -29.9490  -16.1370 O.2   174  PHE174     -0.2867
     72  CB        46.8190  -29.3770  -18.9760 C.3   174  PHE174      0.0534
     73  CG        47.3500  -29.3200  -20.3960 C.ar  174  PHE174     -0.0203
     74  CD1       48.1380  -28.2420  -20.7840 C.ar  174  PHE174     -0.0042
     75  CD2       47.1030  -30.3230  -21.3040 C.ar  174  PHE174     -0.0042
     76  CE1       48.6570  -28.1670  -22.0610 C.ar  174  PHE174     -0.0003
     77  CE2       47.6360  -30.2430  -22.6070 C.ar  174  PHE174     -0.0003
     78  CZ        48.4050  -29.1740  -22.9520 C.ar  174  PHE174     -0.0000
     79  N         46.1410  -22.8370  -23.6820 N.3   197  LYS197     -0.1245
     80  CA        47.1750  -23.8650  -23.8720 C.3   197  LYS197      0.1561
     81  C         46.5740  -25.2610  -24.0380 C.2   197  LYS197      0.2260
     82  O         47.0620  -26.0660  -24.8450 O.2   197  LYS197     -0.2867
     83  CB        48.1680  -23.8550  -22.6970 C.3   197  LYS197      0.0271
     84  CG        48.9490  -22.5580  -22.5550 C.3   197  LYS197      0.0035
     85  CD        49.8920  -22.2900  -23.7410 C.3   197  LYS197      0.0206
     86  CE        50.7670  -21.0570  -23.4810 C.3   197  LYS197      0.1093
     87  NZ        51.6070  -20.6790  -24.6550 N.3   197  LYS197     -0.1314
     88  N         45.1670  -25.3190  -27.6240 N.3   200  GLU200     -0.1231
     89  CA        46.1990  -25.3710  -28.6620 C.3   200  GLU200      0.1699
     90  C         46.8180  -26.7520  -28.8160 C.2   200  GLU200      0.2592
     91  O         47.3280  -27.0740  -29.8950 O.2   200  GLU200     -0.2718
     92  CB        47.2880  -24.3470  -28.3400 C.3   200  GLU200      0.0402
     93  CG        46.8550  -22.9150  -28.5170 C.3   200  GLU200      0.1161
     94  CD        47.9310  -21.9290  -28.1030 C.2   200  GLU200      0.3649
     95  OE1       49.0500  -22.3770  -27.7410 O.co2 200  GLU200     -0.2457
     96  OE2       47.6490  -20.7120  -28.1480 O.co2 200  GLU200     -0.2457
     97  N         46.7900  -27.5870  -27.7760 N.am  201  SER201     -0.1952
     98  CA        47.3290  -28.9390  -27.8210 C.3   201  SER201      0.1924
     99  C         46.5170  -29.9520  -28.6280 C.2   201  SER201      0.2314
    100  O         47.0260  -31.0550  -28.8760 O.2   201  SER201     -0.2863
    101  CB        47.4410  -29.4970  -26.3870 C.3   201  SER201      0.2116
    102  OG        46.1690  -29.9660  -25.9400 O.3   201  SER201     -0.2180
@<TRIPOS>BOND
     1    91    90    2
     2    10     9    1
     3   100    99    2
     4    90    89    1
     5    90    97   am
     6    89    92    1
     7    89    88    1
     8    99    98    1
     9    93    92    1
    10    93    94    1
    11    11     9    1
    12     9     8    2
    13    58    57   ar
    14    96    94   ar
    15    94    95   ar
    16    98    97    1
    17    98   101    1
    18     8     7    1
    19     7     6    1
    20    57    59   ar
    21    57    56    1
    22     6     5    1
    23    55    56    1
    24    55    52    1
    25     5     2    1
    26   101   102    1
    27    51    52    1
    28    50    48   am
    29    54    53    2
    30    52    53    1
    31    66    65    1
    32     2     1    1
    33     2     3    1
    34    82    81    2
    35    48    49    2
    36    48    47    1
    37    87    86    1
    38    65    67    1
    39    65    64    1
    40     3     4    2
    41    81    80    1
    42    80    79    1
    43    80    83    1
    44    85    86    1
    45    85    84    1
    46    47    46    1
    47    64    61    1
    48    78    77   ar
    49    78    76   ar
    50    46    43    1
    51    83    84    1
    52    60    61    1
    53    77    75   ar
    54    61    62    1
    55    76    74   ar
    56    17    16    1
    57    43    44    1
    58    43    42    1
    59    16    13    1
    60    25    23   ar
    61    75    73   ar
    62    40    39    1
    63    34    33    1
    64    44    45    2
    65    62    63    2
    66    74    73   ar
    67    33    32    1
    68    73    72    1
    69    12    13    1
    70    23    22    1
    71    23    24   ar
    72    41    39    1
    73    39    36    1
    74    13    14    1
    75    22    19    1
    76    14    15    2
    77    72    69    1
    78    32    31    1
    79    38    37    2
    80    37    36    1
    81    36    35    1
    82    19    18    1
    83    19    20    1
    84    31    30    1
    85    68    69    1
    86    69    70    1
    87    21    20    2
    88    30    27    1
    89    70    71    2
    90    27    26    1
    91    27    28    1
    92    28    29    2
