@<TRIPOS>MOLECULE
tmp/5qewA00.pdb
 85 80 0 0 0
SMALL
GASTEIGER

@<TRIPOS>ATOM
      1  N        -39.6380    9.4330   15.9880 N.3    46  TYR46      -0.1241
      2  CA       -40.7860    9.0170   16.7940 C.3    46  TYR46       0.1605
      3  C        -40.9410    7.5010   16.6720 C.2    46  TYR46       0.2264
      4  O        -40.9280    6.9550   15.5680 O.2    46  TYR46      -0.2867
      5  CB       -42.0970    9.7060   16.3800 C.3    46  TYR46       0.0534
      6  CG       -42.0620   11.2310   16.4410 C.ar   46  TYR46      -0.0201
      7  CD1      -42.1150   11.9020   17.6550 C.ar   46  TYR46      -0.0009
      8  CD2      -41.9500   11.9990   15.2800 C.ar   46  TYR46      -0.0009
      9  CE1      -42.0710   13.3080   17.7150 C.ar   46  TYR46       0.0417
     10  CE2      -41.9110   13.3890   15.3360 C.ar   46  TYR46       0.0417
     11  CZ       -41.9700   14.0330   16.5630 C.ar   46  TYR46       0.1957
     12  OH       -41.9180   15.4100   16.6510 O.3    46  TYR46      -0.2866
     13  N        -43.5270    5.6060   17.0430 N.3    48  ASP48      -0.1225
     14  CA       -44.7700    5.1520   16.4340 C.3    48  ASP48       0.1805
     15  C        -44.9850    5.6780   15.0230 C.2    48  ASP48       0.2597
     16  O        -46.1070    5.5870   14.5280 O.2    48  ASP48      -0.2718
     17  CB       -45.9700    5.5580   17.2910 C.3    48  ASP48       0.1424
     18  CG       -46.0430    7.0500   17.5390 C.2    48  ASP48       0.3668
     19  OD1      -44.9900    7.7210   17.5040 O.co2  48  ASP48      -0.2456
     20  OD2      -47.1580    7.5560   17.7870 O.co2  48  ASP48      -0.2456
     21  N        -43.9660    6.2520   14.3830 N.am   49  VAL49      -0.1980
     22  CA       -44.0810    6.7230   12.9860 C.3    49  VAL49       0.1595
     23  C        -42.9250    6.1120   12.2100 C.2    49  VAL49       0.2287
     24  O        -41.7610    6.5040   12.4100 O.2    49  VAL49      -0.2864
     25  CB       -44.0770    8.2590   12.8540 C.3    49  VAL49       0.0276
     26  CG1      -44.2190    8.6770   11.3260 C.3    49  VAL49       0.0022
     27  CG2      -45.1920    8.8830   13.6440 C.3    49  VAL49       0.0022
     28  N        -37.9350   20.6730   16.6670 N.3   120  LYS120     -0.1245
     29  CA       -38.7360   19.8180   15.7970 C.3   120  LYS120      0.1561
     30  C        -37.9500   19.2480   14.6190 C.2   120  LYS120      0.2260
     31  O        -38.4210   18.2910   13.9880 O.2   120  LYS120     -0.2867
     32  CB       -39.9290   20.6050   15.2580 C.3   120  LYS120      0.0271
     33  CG       -40.9070   21.0930   16.3180 C.3   120  LYS120      0.0035
     34  CD       -41.5850   19.9280   17.0220 C.3   120  LYS120      0.0206
     35  CE       -42.3470   20.3600   18.2540 C.3   120  LYS120      0.1093
     36  NZ       -42.6720   19.1840   19.0950 N.3   120  LYS120     -0.1314
     37  N        -42.4600   17.6560    7.6510 N.3   215  CYS215     -0.1221
     38  CA       -42.7760   18.4830    8.8180 C.3   215  CYS215      0.1808
     39  C        -41.9680   17.9060    9.9690 C.2   215  CYS215      0.2602
     40  O        -40.7910   17.6180    9.7770 O.2   215  CYS215     -0.2717
     41  CB       -44.2760   18.5490    9.0460 C.3   215  CYS215      0.0970
     42  SG       -45.2070   16.9460    9.0020 S.3   215  CYS215     -0.0800
     43  N        -42.5370   17.7030   11.1620 N.am  216  SER216     -0.1938
     44  CA       -41.7140   17.0510   12.1750 C.3   216  SER216      0.2055
     45  C        -41.7410   15.5180   12.0470 C.2   216  SER216      0.2642
     46  O        -40.6870   14.8760   11.9900 O.2   216  SER216     -0.2714
     47  CB       -42.1640   17.4950   13.5760 C.3   216  SER216      0.2130
     48  OG       -41.2010   17.0430   14.5180 O.3   216  SER216     -0.2179
     49  N        -42.9320   14.9240   11.9540 N.am  217  ALA217     -0.1977
     50  CA       -43.0560   13.4660   11.7510 C.3   217  ALA217      0.1597
     51  C        -43.2640   13.0760   10.2860 C.2   217  ALA217      0.2287
     52  O        -43.1110   11.8990    9.9480 O.2   217  ALA217     -0.2864
     53  CB       -44.2370   12.9200   12.5660 C.3   217  ALA217      0.0319
     54  N        -46.2080   13.2350    8.5460 N.3   219  ILE219     -0.1231
     55  CA       -47.5210   12.6360    8.2680 C.3   219  ILE219      0.1692
     56  C        -48.6860   13.6140    8.3770 C.2   219  ILE219      0.2593
     57  O        -49.6920   13.4640    7.6700 O.2   219  ILE219     -0.2718
     58  CB       -47.7690   11.4050    9.1760 C.3   219  ILE219      0.0266
     59  CG1      -47.7330   11.7810   10.6520 C.3   219  ILE219      0.0019
     60  CG2      -46.7360   10.3640    8.8770 C.3   219  ILE219      0.0020
     61  CD1      -48.0270   10.5950   11.5810 C.3   219  ILE219      0.0001
     62  N        -48.5870   14.6250    9.2320 N.am  220  GLY220     -0.1942
     63  CA       -49.7210   15.5110    9.4740 C.3   220  GLY220      0.2014
     64  C        -49.8790   16.6960    8.5400 C.2   220  GLY220      0.2638
     65  O        -50.7200   16.6670    7.6340 O.2   220  GLY220     -0.2714
     66  N        -49.1230   17.7770    8.7760 N.am  221  ARG221     -0.1977
     67  CA       -49.0470   18.8620    7.7850 C.3   221  ARG221      0.1597
     68  C        -48.6250   18.3530    6.4110 C.2   221  ARG221      0.2287
     69  O        -49.1240   18.8210    5.3800 O.2   221  ARG221     -0.2864
     70  CB       -48.0450   19.9360    8.2630 C.3   221  ARG221      0.0334
     71  CG       -48.5000   20.6170    9.5230 C.3   221  ARG221      0.0492
     72  CD       -47.4420   21.5630   10.0460 C.3   221  ARG221      0.2205
     73  NE       -47.6750   21.8360   11.4470 N.pl3 221  ARG221     -0.0865
     74  CZ       -46.8740   22.5470   12.2460 C.cat 221  ARG221      0.5346
     75  NH1      -45.7400   23.0520   11.7870 N.pl3 221  ARG221      0.1354
     76  NH2      -47.2100   22.7380   13.5240 N.pl3 221  ARG221      0.1354
     77  N        -53.3880   13.9310   10.8040 N.3   262  GLN262     -0.1245
     78  CA       -53.2300   13.4870   12.1990 C.3   262  GLN262      0.1566
     79  C        -54.4030   13.8480   13.1020 C.2   262  GLN262      0.2260
     80  O        -54.4810   13.3380   14.2330 O.2   262  GLN262     -0.2867
     81  CB       -51.9670   14.1070   12.7990 C.3   262  GLN262      0.0367
     82  CG       -50.6570   13.4350   12.4240 C.3   262  GLN262      0.0905
     83  CD       -49.4540   14.1720   13.0350 C.2   262  GLN262      0.2608
     84  OE1      -49.1740   15.3300   12.6980 O.2   262  GLN262     -0.2717
     85  NE2      -48.7580   13.5110   13.9530 N.am  262  GLN262     -0.0878
@<TRIPOS>BOND
     1    69    68    2
     2    68    67    1
     3    65    64    2
     4    37    38    1
     5    57    56    2
     6    67    70    1
     7    67    66    1
     8    70    71    1
     9    55    56    1
    10    55    54    1
    11    55    58    1
    12    56    62   am
    13    64    66   am
    14    64    63    1
    15    38    41    1
    16    38    39    1
    17    60    58    1
    18    42    41    1
    19    58    59    1
    20    62    63    1
    21    71    72    1
    22    40    39    2
    23    52    51    2
    24    39    43   am
    25    72    73    1
    26    51    50    1
    27    59    61    1
    28    77    78    1
    29    43    44    1
    30    26    25    1
    31    73    74    2
    32    50    49    1
    33    50    53    1
    34    75    74    1
    35    49    45   am
    36    46    45    2
    37    45    44    1
    38    44    47    1
    39    78    81    1
    40    78    79    1
    41    23    24    2
    42    23    22    1
    43    74    76    1
    44    82    81    1
    45    82    83    1
    46    84    83    2
    47    25    22    1
    48    25    27    1
    49    22    21    1
    50    83    85   am
    51    79    80    2
    52    47    48    1
    53    31    30    2
    54    21    15   am
    55    16    15    2
    56    30    29    1
    57    15    14    1
    58    32    29    1
    59    32    33    1
    60     8    10   ar
    61     8     6   ar
    62    10    11   ar
    63     4     3    2
    64    29    28    1
    65     1     2    1
    66    33    34    1
    67     5     6    1
    68     5     2    1
    69    14    13    1
    70    14    17    1
    71     6     7   ar
    72    11    12    1
    73    11     9   ar
    74     3     2    1
    75    34    35    1
    76    17    18    1
    77    19    18   ar
    78    18    20   ar
    79     7     9   ar
    80    35    36    1
