@<TRIPOS>MOLECULE
tmp/5qexA00.pdb
 86 83 0 0 0
SMALL
GASTEIGER

@<TRIPOS>ATOM
      1  N        -58.1270   30.5100    7.0530 N.3   187  SER187     -0.1203
      2  CA       -58.3830   30.5430    5.6150 C.3   187  SER187      0.2005
      3  C        -57.3150   29.7420    4.8740 C.2   187  SER187      0.2461
      4  O        -56.1410   29.8120    5.2540 O.2   187  SER187     -0.2732
      5  CB       -58.3620   31.9870    5.0880 C.3   187  SER187      0.2103
      6  OG       -58.1980   32.0220    3.6870 O.3   187  SER187     -0.2182
      7  N        -57.6700   29.0130    3.8050 N.am  188  PRO188     -0.2717
      8  CA       -56.6510   28.3030    3.0200 C.3   188  PRO188      0.1535
      9  C        -55.9400   29.1630    2.0020 C.2   188  PRO188      0.2598
     10  O        -55.1410   28.6270    1.2290 O.2   188  PRO188     -0.2715
     11  CB       -57.4700   27.2110    2.2970 C.3   188  PRO188      0.0310
     12  CG       -58.7900   27.8820    2.0440 C.3   188  PRO188      0.0237
     13  CD       -59.0340   28.7000    3.3260 C.3   188  PRO188      0.0939
     14  N        -56.2070   30.4660    1.9570 N.am  189  ALA189     -0.1978
     15  CA       -55.7230   31.2870    0.8570 C.3   189  ALA189      0.1597
     16  C        -54.2020   31.3230    0.7840 C.2   189  ALA189      0.2287
     17  O        -53.6310   31.2070   -0.2920 O.2   189  ALA189     -0.2864
     18  CB       -56.3000   32.7070    0.9480 C.3   189  ALA189      0.0319
     19  N        -52.7640   27.8660   -0.3440 N.3   192  LEU192     -0.1231
     20  CA       -52.9590   27.6540   -1.7900 C.3   192  LEU192      0.1693
     21  C        -51.9960   28.5020   -2.6070 C.2   192  LEU192      0.2592
     22  O        -51.4000   28.0150   -3.5690 O.2   192  LEU192     -0.2718
     23  CB       -54.4080   27.9700   -2.1930 C.3   192  LEU192      0.0284
     24  CG       -55.4630   26.9530   -1.7800 C.3   192  LEU192      0.0019
     25  CD1      -56.8460   27.5660   -1.9110 C.3   192  LEU192      0.0001
     26  CD2      -55.3550   25.6860   -2.6330 C.3   192  LEU192      0.0001
     27  N        -51.8250   29.7760   -2.2390 N.am  193  ASN193     -0.1974
     28  CA       -50.8390   30.6190   -2.9110 C.3   193  ASN193      0.1688
     29  C        -49.4530   29.9810   -2.8710 C.2   193  ASN193      0.2292
     30  O        -48.7210   29.9910   -3.8690 O.2   193  ASN193     -0.2864
     31  CB       -50.8270   32.0040   -2.2550 C.3   193  ASN193      0.1181
     32  CG       -49.9690   33.0110   -3.0020 C.2   193  ASN193      0.2629
     33  OD1      -50.2260   33.3200   -4.1650 O.2   193  ASN193     -0.2716
     34  ND2      -48.9660   33.5530   -2.3240 N.am  193  ASN193     -0.0877
     35  N        -49.2100   26.9900   -5.2800 N.3   196  PHE196     -0.1241
     36  CA       -49.0670   27.4650   -6.6540 C.3   196  PHE196      0.1605
     37  C        -47.6450   27.9470   -6.9290 C.2   196  PHE196      0.2264
     38  O        -47.1200   27.7530   -8.0270 O.2   196  PHE196     -0.2867
     39  CB       -50.0950   28.5690   -6.9370 C.3   196  PHE196      0.0534
     40  CG       -51.5270   28.1180   -6.8320 C.ar  196  PHE196     -0.0203
     41  CD1      -51.8690   26.7740   -6.9890 C.ar  196  PHE196     -0.0042
     42  CD2      -52.5360   29.0370   -6.5680 C.ar  196  PHE196     -0.0042
     43  CE1      -53.1850   26.3570   -6.8800 C.ar  196  PHE196     -0.0003
     44  CE2      -53.8620   28.6300   -6.4590 C.ar  196  PHE196     -0.0003
     45  CZ       -54.1870   27.2910   -6.6150 C.ar  196  PHE196     -0.0000
     46  N        -45.2820   26.4910   -9.8890 N.3   200  GLU200     -0.1245
     47  CA       -44.7090   27.3600  -10.9180 C.3   200  GLU200      0.1567
     48  C        -43.2060   27.1930  -11.0580 C.2   200  GLU200      0.2260
     49  O        -42.6600   27.4560  -12.1340 O.2   200  GLU200     -0.2867
     50  CB       -45.0520   28.8160  -10.5980 C.3   200  GLU200      0.0388
     51  CG       -46.5040   29.1640  -10.7900 C.3   200  GLU200      0.1160
     52  CD       -46.8250   30.5950  -10.3790 C.2   200  GLU200      0.3649
     53  OE1      -45.8740   31.3390  -10.0180 O.co2 200  GLU200     -0.2457
     54  OE2      -48.0210   30.9620  -10.4220 O.co2 200  GLU200     -0.2457
     55  N        -61.8580   25.8330   -2.3570 N.3   276  GLU276     -0.1231
     56  CA       -61.5360   27.2010   -2.7460 C.3   276  GLU276      0.1699
     57  C        -60.5830   27.2130   -3.9300 C.2   276  GLU276      0.2592
     58  O        -60.6440   28.0890   -4.8060 O.2   276  GLU276     -0.2718
     59  CB       -60.9130   27.9320   -1.5680 C.3   276  GLU276      0.0402
     60  CG       -60.6960   29.4040   -1.8220 C.3   276  GLU276      0.1161
     61  CD       -61.9790   30.1290   -2.1530 C.2   276  GLU276      0.3649
     62  OE1      -63.0600   29.6670   -1.7240 O.co2 276  GLU276     -0.2457
     63  OE2      -61.9090   31.1570   -2.8580 O.co2 276  GLU276     -0.2457
     64  N        -59.6770   26.2560   -3.9410 N.am  277  GLY277     -0.1957
     65  CA       -58.7210   26.1560   -5.0200 C.3   277  GLY277      0.1869
     66  C        -59.3800   25.8680   -6.3490 C.2   277  GLY277      0.2309
     67  O        -58.9140   26.3360   -7.3820 O.2   277  GLY277     -0.2863
     68  N        -60.4650   29.1120   -8.1660 N.3   280  PHE280     -0.1227
     69  CA       -59.4260   29.9840   -8.6640 C.3   280  PHE280      0.1736
     70  C        -58.8010   29.4380   -9.9240 C.2   280  PHE280      0.2595
     71  O        -58.3140   30.2120  -10.7490 O.2   280  PHE280     -0.2718
     72  CB       -58.3510   30.1460   -7.6070 C.3   280  PHE280      0.0547
     73  CG       -57.4880   31.3240   -7.8140 C.ar  280  PHE280     -0.0202
     74  CD1      -57.9660   32.5960   -7.5550 C.ar  280  PHE280     -0.0042
     75  CD2      -56.1930   31.1660   -8.2560 C.ar  280  PHE280     -0.0042
     76  CE1      -57.1590   33.6910   -7.7350 C.ar  280  PHE280     -0.0003
     77  CE2      -55.3820   32.2530   -8.4360 C.ar  280  PHE280     -0.0003
     78  CZ       -55.8640   33.5200   -8.1790 C.ar  280  PHE280     -0.0000
     79  N        -58.7930   28.1140  -10.0680 N.am  281  ILE281     -0.1980
     80  CA       -58.1800   27.4850  -11.2270 C.3   281  ILE281      0.1595
     81  C        -58.8810   27.9350  -12.5000 C.2   281  ILE281      0.2287
     82  O        -58.2420   28.1070  -13.5460 O.2   281  ILE281     -0.2864
     83  CB       -58.2100   25.9500  -11.0610 C.3   281  ILE281      0.0276
     84  CG1      -57.0970   25.2910  -11.8760 C.3   281  ILE281      0.0022
     85  CG2      -59.5690   25.3790  -11.4570 C.3   281  ILE281      0.0022
     86  CD1      -56.0900   24.5610  -11.0130 C.3   281  ILE281      0.0001
@<TRIPOS>BOND
     1    82    81    2
     2    81    80    1
     3    49    48    2
     4    84    83    1
     5    84    86    1
     6    85    83    1
     7    80    83    1
     8    80    79    1
     9    48    47    1
    10    47    50    1
    11    47    46    1
    12    51    50    1
    13    51    52    1
    14    71    70    2
    15    54    52   ar
    16    52    53   ar
    17    79    70   am
    18    70    69    1
    19    69    68    1
    20    69    72    1
    21    77    75   ar
    22    77    78   ar
    23    75    73   ar
    24    78    76   ar
    25    38    37    2
    26    73    72    1
    27    73    74   ar
    28    76    74   ar
    29    67    66    2
    30    41    43   ar
    31    41    40   ar
    32    39    40    1
    33    39    36    1
    34    37    36    1
    35    43    45   ar
    36    40    42   ar
    37    36    35    1
    38    45    44   ar
    39    42    44   ar
    40    66    65    1
    41    65    64    1
    42    58    57    2
    43    33    32    2
    44    64    57   am
    45    57    56    1
    46    30    29    2
    47    22    21    2
    48    32    34   am
    49    32    31    1
    50    28    29    1
    51    28    31    1
    52    28    27    1
    53    63    61   ar
    54    56    55    1
    55    56    59    1
    56    26    24    1
    57    21    27   am
    58    21    20    1
    59    23    20    1
    60    23    24    1
    61    61    60    1
    62    61    62   ar
    63    25    24    1
    64    60    59    1
    65    20    19    1
    66    17    16    2
    67    16    15    1
    68    15    18    1
    69    15    14    1
    70    10     9    2
    71    14     9   am
    72     9     8    1
    73    12    11    1
    74    12    13    1
    75    11     8    1
    76     8     7    1
    77    13     7    1
    78     6     5    1
    79     7     3   am
    80     3     4    2
    81     3     2    1
    82     5     2    1
    83     2     1    1
