@<TRIPOS>MOLECULE
tmp/5qeyA00.pdb
 89 87 0 0 0
SMALL
GASTEIGER

@<TRIPOS>ATOM
      1  N        -30.5410   15.6800   14.2440 N.3    89  PRO89      -0.2116
      2  CA       -29.1050   16.0010   14.2300 C.3    89  PRO89       0.1372
      3  C        -28.2370   14.9470   13.5750 C.2    89  PRO89       0.2244
      4  O        -27.2360   15.2830   12.9270 O.2    89  PRO89      -0.2868
      5  CB       -28.7700   16.1720   15.7250 C.3    89  PRO89       0.0268
      6  CG       -30.0530   16.5010   16.3870 C.3    89  PRO89       0.0207
      7  CD       -31.1550   15.8600   15.5710 C.3    89  PRO89       0.0892
      8  N        -29.1370   14.7610    9.1130 N.3    92  VAL92      -0.1231
      9  CA       -29.0900   15.8380    8.1140 C.3    92  VAL92       0.1692
     10  C        -28.2920   15.4190    6.8750 C.2    92  VAL92       0.2592
     11  O        -28.6280   15.7880    5.7420 O.2    92  VAL92      -0.2718
     12  CB       -28.5370   17.1350    8.7590 C.3    92  VAL92       0.0266
     13  CG1      -28.3490   18.1780    7.6920 C.3    92  VAL92       0.0020
     14  CG2      -29.5290   17.6840    9.7860 C.3    92  VAL92       0.0020
     15  N        -27.1980   14.6620    7.0580 N.am   93  GLY93      -0.1957
     16  CA       -26.4330   14.2100    5.9020 C.3    93  GLY93       0.1869
     17  C        -27.1820   13.2000    5.0510 C.2    93  GLY93       0.2309
     18  O        -27.1150   13.2530    3.8180 O.2    93  GLY93      -0.2863
     19  N        -31.5930   22.5440   12.2220 N.3   123  GLN123     -0.1245
     20  CA       -31.2850   23.6470   11.3060 C.3   123  GLN123      0.1566
     21  C        -30.4220   23.0430   10.2020 C.2   123  GLN123      0.2260
     22  O        -29.1980   22.9840   10.3120 O.2   123  GLN123     -0.2867
     23  CB       -30.5600   24.8000   12.0300 C.3   123  GLN123      0.0367
     24  CG       -30.2170   26.0190   11.1210 C.3   123  GLN123      0.0905
     25  CD       -31.4310   26.6810   10.5180 C.2   123  GLN123      0.2608
     26  OE1      -32.3870   27.0460   11.2240 O.2   123  GLN123     -0.2717
     27  NE2      -31.4260   26.8110    9.1950 N.am  123  GLN123     -0.0878
     28  N        -21.2220   31.2730    4.9560 N.3   131  LYS131     -0.1231
     29  CA       -21.0600   30.1950    5.9490 C.3   131  LYS131      0.1693
     30  C        -21.7290   28.9190    5.4120 C.2   131  LYS131      0.2592
     31  O        -22.8370   28.5810    5.8310 O.2   131  LYS131     -0.2718
     32  CB       -21.6980   30.5800    7.2580 C.3   131  LYS131      0.0285
     33  CG       -21.0520   31.7460    7.9810 C.3   131  LYS131      0.0035
     34  CD       -19.8550   31.2810    8.7530 C.3   131  LYS131      0.0206
     35  CE       -19.5670   32.2050    9.9090 C.3   131  LYS131      0.1093
     36  NZ       -18.2440   31.8950   10.4980 N.3   131  LYS131     -0.1314
     37  N        -21.0530   28.2150    4.5200 N.am  132  GLU132     -0.1966
     38  CA       -21.6320   27.0120    3.9430 C.3   132  GLU132      0.1733
     39  C        -21.5770   25.8390    4.9420 C.2   132  GLU132      0.2616
     40  O        -20.9010   25.8890    5.9800 O.2   132  GLU132     -0.2715
     41  CB       -20.9300   26.6660    2.6390 C.3   132  GLU132      0.0429
     42  CG       -19.5520   26.0560    2.7710 C.3   132  GLU132      0.1163
     43  CD       -18.4060   27.0770    2.9170 C.2   132  GLU132      0.3649
     44  OE1      -18.6390   28.2790    3.2120 O.co2 132  GLU132     -0.2457
     45  OE2      -17.2530   26.6510    2.7260 O.co2 132  GLU132     -0.2457
     46  N        -22.2740   24.7490    4.5910 N.am  133  MET133     -0.1963
     47  CA       -22.3360   23.5380    5.4040 C.3   133  MET133      0.1736
     48  C        -21.6930   22.3870    4.6470 C.2   133  MET133      0.2616
     49  O        -21.8890   22.2360    3.4400 O.2   133  MET133     -0.2715
     50  CB       -23.7930   23.1630    5.7360 C.3   133  MET133      0.0427
     51  CG       -24.4770   24.0990    6.6950 C.3   133  MET133      0.0599
     52  SD       -26.2090   23.6770    7.0060 S.3   133  MET133     -0.1393
     53  CE       -26.0410   22.3780    8.1700 C.3   133  MET133      0.0692
     54  N        -20.9130   21.5860    5.3640 N.am  134  ILE134     -0.1963
     55  CA       -20.3120   20.3750    4.8260 C.3   134  ILE134      0.1727
     56  C        -20.8110   19.1960    5.6540 C.2   134  ILE134      0.2616
     57  O        -20.7820   19.2380    6.8910 O.2   134  ILE134     -0.2715
     58  CB       -18.7730   20.4470    4.8270 C.3   134  ILE134      0.0290
     59  CG1      -18.3110   21.5410    3.8510 C.3   134  ILE134      0.0022
     60  CG2      -18.1780   19.1040    4.4000 C.3   134  ILE134      0.0023
     61  CD1      -16.8370   21.8040    3.8670 C.3   134  ILE134      0.0001
     62  N        -21.2890   18.1660    4.9650 N.am  135  PHE135     -0.1960
     63  CA       -21.8160   16.9430    5.5850 C.3   135  PHE135      0.1771
     64  C        -20.7780   15.8620    5.3030 C.2   135  PHE135      0.2619
     65  O        -20.6980   15.3180    4.2020 O.2   135  PHE135     -0.2715
     66  CB       -23.2010   16.5950    5.0220 C.3   135  PHE135      0.0574
     67  CG       -24.1850   17.7190    5.1520 C.ar  135  PHE135     -0.0200
     68  CD1      -24.7240   18.0250    6.3780 C.ar  135  PHE135     -0.0042
     69  CD2      -24.5360   18.4900    4.0630 C.ar  135  PHE135     -0.0042
     70  CE1      -25.6050   19.0710    6.5280 C.ar  135  PHE135     -0.0003
     71  CE2      -25.4120   19.5520    4.2210 C.ar  135  PHE135     -0.0003
     72  CZ       -25.9360   19.8310    5.4470 C.ar  135  PHE135     -0.0000
     73  N        -19.9390   15.5890    6.3000 N.am  136  GLU136     -0.1963
     74  CA       -18.7870   14.7310    6.0520 C.3   136  GLU136      0.1733
     75  C        -19.1960   13.2780    5.8920 C.2   136  GLU136      0.2616
     76  O        -18.5730   12.5590    5.1010 O.2   136  GLU136     -0.2715
     77  CB       -17.7650   14.8710    7.1820 C.3   136  GLU136      0.0429
     78  CG       -17.1680   16.2740    7.2780 C.3   136  GLU136      0.1163
     79  CD       -16.0550   16.3890    8.3100 C.2   136  GLU136      0.3649
     80  OE1      -15.9530   15.5210    9.2030 O.co2 136  GLU136     -0.2457
     81  OE2      -15.2770   17.3600    8.2210 O.co2 136  GLU136     -0.2457
     82  N        -20.2470   12.8370    6.6030 N.am  137  ASP137     -0.1971
     83  CA       -20.6490   11.4360    6.5050 C.3   137  ASP137      0.1709
     84  C        -21.1520   11.0700    5.1040 C.2   137  ASP137      0.2293
     85  O        -20.9690    9.9290    4.6770 O.2   137  ASP137     -0.2864
     86  CB       -21.6800   11.0750    7.6020 C.3   137  ASP137      0.1436
     87  CG       -22.9760   11.9100    7.5610 C.2   137  ASP137      0.3671
     88  OD1      -23.0190   13.0170    6.9820 O.co2 137  ASP137     -0.2456
     89  OD2      -23.9710   11.4420    8.1620 O.co2 137  ASP137     -0.2456
@<TRIPOS>BOND
     1    41    42    1
     2    41    38    1
     3    45    43   ar
     4    42    43    1
     5    43    44   ar
     6    49    48    2
     7    18    17    2
     8    59    61    1
     9    59    58    1
    10    38    37    1
    11    38    39    1
    12    69    71   ar
    13    69    67   ar
    14    65    64    2
    15    71    72   ar
    16    60    58    1
    17    37    30   am
    18    46    39   am
    19    46    47    1
    20    48    54   am
    21    48    47    1
    22    85    84    2
    23    55    58    1
    24    55    54    1
    25    55    56    1
    26    39    40    2
    27    28    29    1
    28    62    63    1
    29    62    56   am
    30    66    67    1
    31    66    63    1
    32    17    16    1
    33    76    75    2
    34    84    83    1
    35    67    68   ar
    36    64    63    1
    37    64    73   am
    38    47    50    1
    39    30    31    2
    40    30    29    1
    41    72    70   ar
    42    56    57    2
    43    50    51    1
    44    11    10    2
    45    75    74    1
    46    75    82   am
    47    16    15    1
    48    29    32    1
    49    74    73    1
    50    74    77    1
    51    68    70   ar
    52    83    82    1
    53    83    86    1
    54    51    52    1
    55    10    15   am
    56    10     9    1
    57    88    87   ar
    58    52    53    1
    59    77    78    1
    60    32    33    1
    61    78    79    1
    62    87    86    1
    63    87    89   ar
    64    13    12    1
    65    33    34    1
    66     9    12    1
    67     9     8    1
    68    81    79   ar
    69    79    80   ar
    70    34    35    1
    71    12    14    1
    72    27    25   am
    73    35    36    1
    74    21    22    2
    75    21    20    1
    76    25    24    1
    77    25    26    2
    78    24    23    1
    79    20    23    1
    80    20    19    1
    81     4     3    2
    82     3     2    1
    83     2     1    1
    84     2     5    1
    85     1     7    1
    86     7     6    1
    87     5     6    1
