@<TRIPOS>MOLECULE
tmp/5qezA00.pdb
 86 82 0 0 0
SMALL
GASTEIGER

@<TRIPOS>ATOM
      1  N        -52.8020   27.9290   -0.3170 N.3   192  LEU192     -0.1231
      2  CA       -52.9940   27.7240   -1.7700 C.3   192  LEU192      0.1693
      3  C        -52.0330   28.5720   -2.5910 C.2   192  LEU192      0.2592
      4  O        -51.4360   28.0820   -3.5410 O.2   192  LEU192     -0.2718
      5  CB       -54.4420   28.0340   -2.1710 C.3   192  LEU192      0.0284
      6  CG       -55.5060   27.0200   -1.7680 C.3   192  LEU192      0.0019
      7  CD1      -56.8790   27.6460   -1.9010 C.3   192  LEU192      0.0001
      8  CD2      -55.4030   25.7480   -2.6080 C.3   192  LEU192      0.0001
      9  N        -51.8660   29.8470   -2.2250 N.am  193  ASN193     -0.1974
     10  CA       -50.8760   30.6860   -2.8950 C.3   193  ASN193      0.1688
     11  C        -49.4880   30.0450   -2.8580 C.2   193  ASN193      0.2292
     12  O        -48.7520   30.0680   -3.8490 O.2   193  ASN193     -0.2864
     13  CB       -50.8590   32.0680   -2.2380 C.3   193  ASN193      0.1181
     14  CG       -49.9980   33.0640   -2.9870 C.2   193  ASN193      0.2629
     15  OD1      -50.2340   33.3460   -4.1620 O.2   193  ASN193     -0.2716
     16  ND2      -49.0030   33.6150   -2.3080 N.am  193  ASN193     -0.0877
     17  N        -48.8060   26.7280   -2.5190 N.3   195  LEU195     -0.1231
     18  CA       -48.8240   25.5580   -3.4120 C.3   195  LEU195      0.1693
     19  C        -48.5960   25.9880   -4.8630 C.2   195  LEU195      0.2592
     20  O        -47.7920   25.3800   -5.5790 O.2   195  LEU195     -0.2718
     21  CB       -50.1600   24.8140   -3.2940 C.3   195  LEU195      0.0284
     22  CG       -50.4550   23.7460   -4.3630 C.3   195  LEU195      0.0019
     23  CD1      -49.3940   22.6660   -4.3200 C.3   195  LEU195      0.0001
     24  CD2      -51.8170   23.1600   -4.1480 C.3   195  LEU195      0.0001
     25  N        -49.2680   27.0580   -5.2760 N.am  196  PHE196     -0.1976
     26  CA       -49.1290   27.5400   -6.6490 C.3   196  PHE196      0.1639
     27  C        -47.7070   28.0140   -6.9320 C.2   196  PHE196      0.2290
     28  O        -47.1820   27.7920   -8.0230 O.2   196  PHE196     -0.2864
     29  CB       -50.1600   28.6410   -6.9220 C.3   196  PHE196      0.0560
     30  CG       -51.5890   28.1790   -6.8270 C.ar  196  PHE196     -0.0200
     31  CD1      -51.9240   26.8300   -6.9880 C.ar  196  PHE196     -0.0042
     32  CD2      -52.6050   29.0920   -6.5710 C.ar  196  PHE196     -0.0042
     33  CE1      -53.2420   26.3990   -6.8880 C.ar  196  PHE196     -0.0003
     34  CE2      -53.9300   28.6760   -6.4740 C.ar  196  PHE196     -0.0003
     35  CZ       -54.2520   27.3270   -6.6350 C.ar  196  PHE196     -0.0000
     36  N        -45.6820   24.8910   -7.5530 N.3   199  ARG199     -0.1231
     37  CA       -46.0210   24.4030   -8.9100 C.3   199  ARG199      0.1694
     38  C        -45.2920   25.2180   -9.9900 C.2   199  ARG199      0.2591
     39  O        -44.6770   24.6570  -10.9050 O.2   199  ARG199     -0.2718
     40  CB       -47.5280   24.4940   -9.1320 C.3   199  ARG199      0.0321
     41  CG       -48.3620   23.3490   -8.5820 C.3   199  ARG199      0.0489
     42  CD       -49.8200   23.5400   -8.9550 C.3   199  ARG199      0.2205
     43  NE       -50.6730   22.4160   -8.5540 N.pl3 199  ARG199     -0.0865
     44  CZ       -51.8800   22.1730   -9.0510 C.cat 199  ARG199      0.5346
     45  NH1      -52.4170   22.9870   -9.9820 N.pl3 199  ARG199      0.1354
     46  NH2      -52.5500   21.1190   -8.6340 N.pl3 199  ARG199      0.1354
     47  N        -45.3720   26.5460   -9.8820 N.am  200  GLU200     -0.1979
     48  CA       -44.8070   27.4130  -10.9190 C.3   200  GLU200      0.1602
     49  C        -43.3040   27.2510  -11.0740 C.2   200  GLU200      0.2287
     50  O        -42.7690   27.5260  -12.1520 O.2   200  GLU200     -0.2864
     51  CB       -45.1390   28.8700  -10.6070 C.3   200  GLU200      0.0415
     52  CG       -46.5950   29.2150  -10.8010 C.3   200  GLU200      0.1163
     53  CD       -46.9150   30.6400  -10.4000 C.2   200  GLU200      0.3649
     54  OE1      -45.9680   31.3860  -10.0440 O.co2 200  GLU200     -0.2457
     55  OE2      -48.1130   30.9990  -10.4450 O.co2 200  GLU200     -0.2457
     56  N        -56.7830   18.7140   -6.7310 N.3   232  LEU232     -0.1245
     57  CA       -56.9410   19.7840   -7.7260 C.3   232  LEU232      0.1561
     58  C        -56.4880   19.3500   -9.1250 C.2   232  LEU232      0.2260
     59  O        -57.1280   19.7060  -10.1320 O.2   232  LEU232     -0.2867
     60  CB       -56.1780   21.0260   -7.2680 C.3   232  LEU232      0.0270
     61  CG       -56.8000   21.7240   -6.0700 C.3   232  LEU232      0.0019
     62  CD1      -55.7980   22.7550   -5.4880 C.3   232  LEU232      0.0001
     63  CD2      -58.1270   22.3870   -6.4040 C.3   232  LEU232      0.0001
     64  N        -59.6190   26.2260   -3.9550 N.3   277  GLY277     -0.1225
     65  CA       -58.6740   26.1700   -5.0580 C.3   277  GLY277      0.1811
     66  C        -59.3290   25.9090   -6.4030 C.2   277  GLY277      0.2280
     67  O        -58.8520   26.3850   -7.4260 O.2   277  GLY277     -0.2866
     68  N        -60.5110   29.1420   -8.3560 N.3   280  PHE280     -0.1227
     69  CA       -59.4460   29.9770   -8.8630 C.3   280  PHE280      0.1736
     70  C        -58.9030   29.4360  -10.1670 C.2   280  PHE280      0.2595
     71  O        -58.3770   30.1900  -10.9890 O.2   280  PHE280     -0.2718
     72  CB       -58.3330   30.0460   -7.8420 C.3   280  PHE280      0.0547
     73  CG       -57.4400   31.1920   -8.0410 C.ar  280  PHE280     -0.0202
     74  CD1      -57.8890   32.4770   -7.8010 C.ar  280  PHE280     -0.0042
     75  CD2      -56.1510   30.9960   -8.4860 C.ar  280  PHE280     -0.0042
     76  CE1      -57.0570   33.5500   -7.9900 C.ar  280  PHE280     -0.0003
     77  CE2      -55.3110   32.0590   -8.6770 C.ar  280  PHE280     -0.0003
     78  CZ       -55.7640   33.3440   -8.4310 C.ar  280  PHE280     -0.0000
     79  N        -59.0260   28.1310  -10.3610 N.am  281  ILE281     -0.1980
     80  CA       -58.5160   27.5040  -11.5680 C.3   281  ILE281      0.1595
     81  C        -59.2950   27.9820  -12.7690 C.2   281  ILE281      0.2287
     82  O        -58.7210   28.3360  -13.8040 O.2   281  ILE281     -0.2864
     83  CB       -58.6180   25.9790  -11.4430 C.3   281  ILE281      0.0276
     84  CG1      -57.6890   25.5050  -10.3440 C.3   281  ILE281      0.0022
     85  CG2      -58.3510   25.2790  -12.7920 C.3   281  ILE281      0.0022
     86  CD1      -57.8700   24.0470   -9.9900 C.3   281  ILE281      0.0001
@<TRIPOS>BOND
     1    82    81    2
     2    85    83    1
     3    81    80    1
     4    50    49    2
     5    80    83    1
     6    80    79    1
     7    83    84    1
     8    49    48    1
     9    71    70    2
    10    48    51    1
    11    48    47    1
    12    39    38    2
    13    52    51    1
    14    52    53    1
    15    55    53   ar
    16    53    54   ar
    17    79    70   am
    18    84    86    1
    19    70    69    1
    20    59    58    2
    21    38    47   am
    22    38    37    1
    23    45    44    1
    24    40    37    1
    25    40    41    1
    26    58    57    1
    27    44    46    1
    28    44    43    2
    29    42    41    1
    30    42    43    1
    31    37    36    1
    32    69    68    1
    33    69    72    1
    34    77    75   ar
    35    77    78   ar
    36    75    73   ar
    37    78    76   ar
    38    73    72    1
    39    73    74   ar
    40    28    27    2
    41    76    74   ar
    42    57    60    1
    43    57    56    1
    44    67    66    2
    45    60    61    1
    46    31    33   ar
    47    31    30   ar
    48    27    26    1
    49    29    30    1
    50    29    26    1
    51    33    35   ar
    52    30    32   ar
    53    26    25    1
    54    35    34   ar
    55    32    34   ar
    56    63    61    1
    57    66    65    1
    58    61    62    1
    59    20    19    2
    60    25    19   am
    61    65    64    1
    62    19    18    1
    63    22    23    1
    64    22    24    1
    65    22    21    1
    66    15    14    2
    67    12    11    2
    68     4     3    2
    69    18    21    1
    70    18    17    1
    71    14    16   am
    72    14    13    1
    73    10    11    1
    74    10    13    1
    75    10     9    1
    76     8     6    1
    77     3     9   am
    78     3     2    1
    79     5     2    1
    80     5     6    1
    81     7     6    1
    82     2     1    1
