@<TRIPOS>MOLECULE
tmp/5qf0A00.pdb
 75 70 0 0 0
SMALL
GASTEIGER

@<TRIPOS>ATOM
      1  N        -71.0160   15.1880   -3.8970 N.3     2  GLU2       -0.1245
      2  CA       -70.0930   16.2490   -4.2840 C.3     2  GLU2        0.1567
      3  C        -69.3270   16.6640   -3.0270 C.2     2  GLU2        0.2260
      4  O        -69.5880   16.1500   -1.9310 O.2     2  GLU2       -0.2867
      5  CB       -70.8410   17.4350   -4.9200 C.3     2  GLU2        0.0388
      6  CG       -69.9520   18.6420   -5.2320 C.3     2  GLU2        0.1160
      7  CD       -70.7060   19.8960   -5.5650 C.2     2  GLU2        0.3649
      8  OE1      -70.5150   20.4170   -6.6840 O.co2   2  GLU2       -0.2457
      9  OE2      -71.4790   20.3890   -4.7150 O.co2   2  GLU2       -0.2457
     10  N        -56.8410   18.7100   -6.6980 N.3   232  LEU232     -0.1245
     11  CA       -57.0060   19.7800   -7.6880 C.3   232  LEU232      0.1561
     12  C        -56.5500   19.3530   -9.0890 C.2   232  LEU232      0.2260
     13  O        -57.1750   19.7340  -10.0880 O.2   232  LEU232     -0.2867
     14  CB       -56.2560   21.0310   -7.2160 C.3   232  LEU232      0.0270
     15  CG       -56.8780   21.7320   -6.0100 C.3   232  LEU232      0.0019
     16  CD1      -55.8960   22.7890   -5.4380 C.3   232  LEU232      0.0001
     17  CD2      -58.2270   22.3500   -6.3290 C.3   232  LEU232      0.0001
     18  N        -59.2760   17.1940  -10.6190 N.3   235  MET235     -0.1230
     19  CA       -60.4430   17.9700  -11.0340 C.3   235  MET235      0.1702
     20  C        -60.2140   18.6180  -12.3900 C.2   235  MET235      0.2592
     21  O        -61.1650   18.7590  -13.1700 O.2   235  MET235     -0.2718
     22  CB       -60.8000   19.0170   -9.9800 C.3   235  MET235      0.0401
     23  CG       -61.3840   18.4140   -8.7410 C.3   235  MET235      0.0596
     24  SD       -61.6390   19.6410   -7.4150 S.3   235  MET235     -0.1393
     25  CE       -63.2140   20.2950   -7.9180 C.3   235  MET235      0.0692
     26  N        -58.9670   18.9480  -12.7160 N.am  236  ASP236     -0.1974
     27  CA       -58.6150   19.4920  -14.0380 C.3   236  ASP236      0.1709
     28  C        -58.5620   18.4390  -15.1390 C.2   236  ASP236      0.2293
     29  O        -58.7760   18.7700  -16.3140 O.2   236  ASP236     -0.2864
     30  CB       -57.2380   20.1580  -13.9970 C.3   236  ASP236      0.1436
     31  CG       -57.2930   21.6430  -13.6910 C.2   236  ASP236      0.3671
     32  OD1      -58.3880   22.2410  -13.7490 O.co2 236  ASP236     -0.2456
     33  OD2      -56.2190   22.2110  -13.4020 O.co2 236  ASP236     -0.2456
     34  N        -65.6890   14.8110  -15.4660 N.3   240  ASP240     -0.1225
     35  CA       -66.6410   15.2030  -14.4280 C.3   240  ASP240      0.1790
     36  C        -65.8580   15.5200  -13.1680 C.2   240  ASP240      0.2440
     37  O        -65.5560   14.5960  -12.4000 O.2   240  ASP240     -0.2733
     38  CB       -67.6430   14.0940  -14.1620 C.3   240  ASP240      0.1423
     39  CG       -68.5930   14.4260  -13.0370 C.2   240  ASP240      0.3668
     40  OD1      -68.6390   15.6100  -12.5990 O.co2 240  ASP240     -0.2456
     41  OD2      -69.3110   13.4960  -12.6100 O.co2 240  ASP240     -0.2456
     42  N        -65.5020   16.7900  -12.9240 N.am  241  PRO241     -0.2718
     43  CA       -64.7470   17.1160  -11.6960 C.3   241  PRO241      0.1535
     44  C        -65.4870   16.7840  -10.4190 C.2   241  PRO241      0.2599
     45  O        -64.8370   16.5660   -9.3970 O.2   241  PRO241     -0.2715
     46  CB       -64.5100   18.6290  -11.8080 C.3   241  PRO241      0.0310
     47  CG       -64.6530   18.9500  -13.2160 C.3   241  PRO241      0.0237
     48  CD       -65.6780   17.9840  -13.7680 C.3   241  PRO241      0.0939
     49  N        -66.8210   16.7690  -10.4190 N.am  242  SER242     -0.1950
     50  CA       -67.5330   16.4880   -9.1670 C.3   242  SER242      0.1924
     51  C        -67.4290   15.0270   -8.7490 C.2   242  SER242      0.2314
     52  O        -67.9300   14.6700   -7.6780 O.2   242  SER242     -0.2863
     53  CB       -69.0060   16.8780   -9.2900 C.3   242  SER242      0.2116
     54  OG       -69.6750   15.9890  -10.1680 O.3   242  SER242     -0.2180
     55  N        -60.6220   25.0880   -6.2260 N.3   278  ALA278     -0.1245
     56  CA       -61.3010   24.7510   -7.4690 C.3   278  ALA278      0.1562
     57  C        -62.0010   25.9590   -8.0950 C.2   278  ALA278      0.2260
     58  O        -62.3320   25.9280   -9.2790 O.2   278  ALA278     -0.2867
     59  CB       -62.3000   23.6240   -7.2250 C.3   278  ALA278      0.0290
     60  N        -59.0610   28.1300   -9.9130 N.3   281  ILE281     -0.1231
     61  CA       -58.4040   27.4780  -11.0340 C.3   281  ILE281      0.1692
     62  C        -59.0680   27.8960  -12.3270 C.2   281  ILE281      0.2591
     63  O        -58.4120   27.9880  -13.3730 O.2   281  ILE281     -0.2718
     64  CB       -58.4260   25.9500  -10.8430 C.3   281  ILE281      0.0266
     65  CG1      -57.3750   25.2780  -11.7190 C.3   281  ILE281      0.0019
     66  CG2      -59.7910   25.3880  -11.1790 C.3   281  ILE281      0.0020
     67  CD1      -56.3760   24.4580  -10.9390 C.3   281  ILE281      0.0001
     68  N        -60.3610   28.1800  -12.2750 N.am  282  MET282     -0.1979
     69  CA       -61.1050   28.5610  -13.4610 C.3   282  MET282      0.1605
     70  C        -61.3370   30.0720  -13.5130 C.2   282  MET282      0.2287
     71  O        -61.3920   30.6670  -14.5960 O.2   282  MET282     -0.2864
     72  CB       -62.4370   27.8180  -13.4870 C.3   282  MET282      0.0413
     73  CG       -62.3120   26.3390  -13.1510 C.3   282  MET282      0.0598
     74  SD       -63.8750   25.4500  -13.2950 S.3   282  MET282     -0.1393
     75  CE       -63.3160   23.7420  -13.0860 C.3   282  MET282      0.0692
@<TRIPOS>BOND
     1    29    28    2
     2    34    35    1
     3    28    27    1
     4    71    70    2
     5    35    38    1
     6    35    36    1
     7    38    39    1
     8    27    30    1
     9    27    26    1
    10    30    31    1
    11    48    47    1
    12    48    42    1
    13    32    31   ar
    14    31    33   ar
    15    70    69    1
    16    72    69    1
    17    72    73    1
    18    69    68    1
    19    63    62    2
    20    74    73    1
    21    74    75    1
    22    47    46    1
    23    21    20    2
    24    36    42   am
    25    36    37    2
    26    39    41   ar
    27    39    40   ar
    28    42    43    1
    29    26    20   am
    30    20    19    1
    31    62    68   am
    32    62    61    1
    33    46    43    1
    34    65    67    1
    35    65    64    1
    36    43    44    1
    37    66    64    1
    38    61    64    1
    39    61    60    1
    40    19    18    1
    41    19    22    1
    42    49    44   am
    43    49    50    1
    44    44    45    2
    45    54    53    1
    46    13    12    2
    47    22    23    1
    48    53    50    1
    49    58    57    2
    50    50    51    1
    51    12    11    1
    52    51    52    2
    53    23    24    1
    54    57    56    1
    55    25    24    1
    56    11    14    1
    57    11    10    1
    58    56    59    1
    59    56    55    1
    60    14    15    1
    61     8     7   ar
    62    17    15    1
    63    15    16    1
    64     7     6    1
    65     7     9   ar
    66     6     5    1
    67     5     2    1
    68     2     1    1
    69     2     3    1
    70     3     4    2
