@<TRIPOS>MOLECULE
tmp/5qf1A00.pdb
 90 83 0 0 0
SMALL
GASTEIGER

@<TRIPOS>ATOM
      1  N         28.1030  -31.3380  -25.2140 N.3    74  MET74      -0.1230
      2  CA        27.5180  -30.0330  -25.5430 C.3    74  MET74       0.1702
      3  C         27.2370  -29.9810  -27.0490 C.2    74  MET74       0.2592
      4  O         28.1600  -29.8710  -27.8620 O.2    74  MET74      -0.2718
      5  CB        28.4260  -28.8890  -25.1140 C.3    74  MET74       0.0401
      6  CG        28.7000  -28.8870  -23.5950 C.3    74  MET74       0.0596
      7  SD        27.1820  -28.8670  -22.5680 S.3    74  MET74      -0.1393
      8  CE        26.7430  -27.2480  -22.8600 C.3    74  MET74       0.0692
      9  N         25.9580  -30.0600  -27.4100 N.am   75  GLU75      -0.1966
     10  CA        25.5750  -30.3560  -28.7950 C.3    75  GLU75       0.1733
     11  C         25.8610  -29.1700  -29.7250 C.2    75  GLU75       0.2616
     12  O         26.5720  -29.3090  -30.7230 O.2    75  GLU75      -0.2715
     13  CB        24.0920  -30.7930  -28.8020 C.3    75  GLU75       0.0429
     14  CG        23.5670  -31.2980  -30.1250 C.3    75  GLU75       0.1163
     15  CD        22.1690  -31.9210  -30.0210 C.2    75  GLU75       0.3649
     16  OE1       21.3910  -31.5580  -29.1010 O.co2  75  GLU75      -0.2457
     17  OE2       21.8530  -32.7850  -30.8690 O.co2  75  GLU75      -0.2457
     18  N         25.3710  -27.9790  -29.3970 N.am   76  GLU76      -0.1963
     19  CA        25.6130  -26.8340  -30.2820 C.3    76  GLU76       0.1733
     20  C         27.1000  -26.4940  -30.3850 C.2    76  GLU76       0.2616
     21  O         27.6040  -26.1610  -31.4620 O.2    76  GLU76      -0.2715
     22  CB        24.8380  -25.6160  -29.7880 C.3    76  GLU76       0.0429
     23  CG        24.9470  -24.4520  -30.7650 C.3    76  GLU76       0.1163
     24  CD        24.3610  -23.1360  -30.2640 C.2    76  GLU76       0.3649
     25  OE1       23.7110  -23.0810  -29.1930 O.co2  76  GLU76      -0.2457
     26  OE2       24.5740  -22.1220  -30.9680 O.co2  76  GLU76      -0.2457
     27  N         27.8210  -26.5450  -29.2750 N.am   77  ALA77      -0.1977
     28  CA        29.2390  -26.2020  -29.3090 C.3    77  ALA77       0.1597
     29  C         30.0920  -27.2870  -29.9320 C.2    77  ALA77       0.2287
     30  O         31.2550  -27.0300  -30.2490 O.2    77  ALA77      -0.2864
     31  CB        29.7350  -25.9400  -27.8730 C.3    77  ALA77       0.0319
     32  N         33.1410  -23.7210  -23.2390 N.3   230  THR230     -0.1218
     33  CA        31.9390  -23.8310  -24.0600 C.3   230  THR230      0.1862
     34  C         31.3470  -22.4470  -24.3820 C.2   230  THR230      0.2287
     35  O         30.9880  -22.1680  -25.5280 O.2   230  THR230     -0.2866
     36  CB        30.9070  -24.7500  -23.3750 C.3   230  THR230      0.1770
     37  OG1       31.2870  -26.1310  -23.5330 O.3   230  THR230     -0.2211
     38  CG2       29.4900  -24.5880  -24.0140 C.3   230  THR230      0.0375
     39  N         30.8260  -20.8670  -28.2110 N.3   234  LEU234     -0.1245
     40  CA        29.5340  -20.4160  -28.7370 C.3   234  LEU234      0.1561
     41  C         29.6000  -18.9640  -29.1960 C.2   234  LEU234      0.2260
     42  O         28.9890  -18.6050  -30.2050 O.2   234  LEU234     -0.2867
     43  CB        28.4270  -20.5800  -27.7000 C.3   234  LEU234      0.0270
     44  CG        28.0610  -22.0280  -27.3340 C.3   234  LEU234      0.0019
     45  CD1       27.1620  -22.0510  -26.1010 C.3   234  LEU234      0.0001
     46  CD2       27.4050  -22.7440  -28.4640 C.3   234  LEU234      0.0001
     47  N         28.3310  -18.1050  -33.2170 N.3   238  ARG238     -0.1245
     48  CA        27.0200  -17.4790  -33.4490 C.3   238  ARG238      0.1563
     49  C         27.1140  -16.1230  -34.1560 C.2   238  ARG238      0.2260
     50  O         28.1030  -15.3910  -34.0330 O.2   238  ARG238     -0.2867
     51  CB        26.2800  -17.2800  -32.1180 C.3   238  ARG238      0.0307
     52  CG        25.6880  -18.5580  -31.5050 C.3   238  ARG238      0.0489
     53  CD        24.8600  -18.2410  -30.2610 C.3   238  ARG238      0.2205
     54  NE        24.3980  -19.4570  -29.6100 N.pl3 238  ARG238     -0.0865
     55  CZ        23.6890  -19.4800  -28.4900 C.cat 238  ARG238      0.5346
     56  NH1       23.3640  -18.3480  -27.8870 N.pl3 238  ARG238      0.1354
     57  NH2       23.3200  -20.6420  -27.9720 N.pl3 238  ARG238      0.1354
     58  N         24.0440  -17.1080  -23.1080 N.3   245  ASP245     -0.1239
     59  CA        23.5200  -16.9380  -21.7540 C.3   245  ASP245      0.1674
     60  C         24.2090  -17.9300  -20.8300 C.2   245  ASP245      0.2266
     61  O         23.8860  -19.1190  -20.8610 O.2   245  ASP245     -0.2867
     62  CB        22.0150  -17.1750  -21.7610 C.3   245  ASP245      0.1410
     63  CG        21.3590  -16.9060  -20.4130 C.2   245  ASP245      0.3668
     64  OD1       22.0100  -16.9990  -19.3510 O.co2 245  ASP245     -0.2456
     65  OD2       20.1570  -16.6040  -20.4290 O.co2 245  ASP245     -0.2456
     66  N         22.1330  -20.2840  -18.6290 N.3   248  LYS248     -0.1231
     67  CA        21.4760  -21.3550  -19.3770 C.3   248  LYS248      0.1693
     68  C         22.4580  -22.4330  -19.7950 C.2   248  LYS248      0.2591
     69  O         22.1030  -23.6180  -19.8310 O.2   248  LYS248     -0.2718
     70  CB        20.7880  -20.8080  -20.6340 C.3   248  LYS248      0.0285
     71  CG        19.5130  -20.0410  -20.3310 C.3   248  LYS248      0.0035
     72  CD        18.9480  -19.3890  -21.5920 C.3   248  LYS248      0.0206
     73  CE        17.6300  -18.6770  -21.3060 C.3   248  LYS248      0.1093
     74  NZ        17.2090  -17.8230  -22.4610 N.3   248  LYS248     -0.1314
     75  N         23.6690  -22.0510  -20.1860 N.am  249  VAL249     -0.1980
     76  CA        24.6720  -23.0700  -20.5120 C.3   249  VAL249      0.1595
     77  C         24.9610  -23.9190  -19.2840 C.2   249  VAL249      0.2287
     78  O         25.0440  -25.1470  -19.3740 O.2   249  VAL249     -0.2864
     79  CB        25.9460  -22.4050  -21.0780 C.3   249  VAL249      0.0276
     80  CG1       27.0560  -23.4440  -21.3540 C.3   249  VAL249      0.0022
     81  CG2       25.5990  -21.6520  -22.3750 C.3   249  VAL249      0.0022
     82  N         22.2600  -26.4270  -18.6270 N.3   252  GLU252     -0.1245
     83  CA        22.3910  -27.5310  -19.5740 C.3   252  GLU252      0.1567
     84  C         23.4700  -28.5030  -19.1100 C.2   252  GLU252      0.2260
     85  O         23.2860  -29.7260  -19.1520 O.2   252  GLU252     -0.2867
     86  CB        22.7180  -26.9860  -20.9860 C.3   252  GLU252      0.0388
     87  CG        22.9120  -28.0650  -22.1210 C.3   252  GLU252      0.1160
     88  CD        21.6560  -28.8650  -22.4690 C.2   252  GLU252      0.3649
     89  OE1       20.5220  -28.3660  -22.2470 O.co2 252  GLU252     -0.2457
     90  OE2       21.8110  -30.0040  -22.9740 O.co2 252  GLU252     -0.2457
@<TRIPOS>BOND
     1    49    50    2
     2    49    48    1
     3    48    47    1
     4    48    51    1
     5    51    52    1
     6    52    53    1
     7    21    20    2
     8    26    24   ar
     9    17    15   ar
    10    23    24    1
    11    23    22    1
    12    12    11    2
    13    20    19    1
    14    20    27   am
    15    19    22    1
    16    19    18    1
    17    24    25   ar
    18    53    54    1
    19    30    29    2
    20    42    41    2
    21    14    15    1
    22    14    13    1
    23    15    16   ar
    24    29    28    1
    25    11    18   am
    26    11    10    1
    27    54    55    2
    28    28    27    1
    29    28    31    1
    30    41    40    1
    31    13    10    1
    32    10     9    1
    33    40    39    1
    34    40    43    1
    35    55    57    1
    36    55    56    1
    37    46    44    1
    38     4     3    2
    39    43    44    1
    40     9     3   am
    41    44    45    1
    42     3     2    1
    43     2     1    1
    44     2     5    1
    45    35    34    2
    46     5     6    1
    47    34    33    1
    48    33    36    1
    49    33    32    1
    50    38    36    1
    51     6     7    1
    52    37    36    1
    53    58    59    1
    54    90    88   ar
    55     8     7    1
    56    88    89   ar
    57    88    87    1
    58    74    73    1
    59    81    79    1
    60    87    86    1
    61    62    59    1
    62    62    63    1
    63    59    60    1
    64    72    73    1
    65    72    71    1
    66    80    79    1
    67    79    76    1
    68    86    83    1
    69    61    60    2
    70    70    71    1
    71    70    67    1
    72    76    75    1
    73    76    77    1
    74    65    63   ar
    75    63    64   ar
    76    75    68   am
    77    69    68    2
    78    68    67    1
    79    83    84    1
    80    83    82    1
    81    67    66    1
    82    78    77    2
    83    85    84    2
