@<TRIPOS>MOLECULE
tmp/5qf2A00.pdb
 83 78 0 0 0
SMALL
GASTEIGER

@<TRIPOS>ATOM
      1  N        -56.4660   30.5870    1.9640 N.3   189  ALA189     -0.1245
      2  CA       -55.9830   31.4040    0.8560 C.3   189  ALA189      0.1562
      3  C        -54.4610   31.4420    0.7950 C.2   189  ALA189      0.2260
      4  O        -53.8870   31.3340   -0.2850 O.2   189  ALA189     -0.2867
      5  CB       -56.5640   32.8170    0.9530 C.3   189  ALA189      0.0290
      6  N        -52.9960   27.9910   -0.3240 N.3   192  LEU192     -0.1231
      7  CA       -53.1920   27.7920   -1.7710 C.3   192  LEU192      0.1693
      8  C        -52.2240   28.6330   -2.5860 C.2   192  LEU192      0.2592
      9  O        -51.6090   28.1520   -3.5270 O.2   192  LEU192     -0.2718
     10  CB       -54.6470   28.1060   -2.1670 C.3   192  LEU192      0.0284
     11  CG       -55.7020   27.0700   -1.7720 C.3   192  LEU192      0.0019
     12  CD1      -57.0960   27.6770   -1.8950 C.3   192  LEU192      0.0001
     13  CD2      -55.5900   25.8080   -2.6200 C.3   192  LEU192      0.0001
     14  N        -52.0700   29.9180   -2.2140 N.am  193  ASN193     -0.1974
     15  CA       -51.0900   30.7700   -2.8860 C.3   193  ASN193      0.1688
     16  C        -49.6950   30.1430   -2.8510 C.2   193  ASN193      0.2292
     17  O        -48.9570   30.1690   -3.8450 O.2   193  ASN193     -0.2864
     18  CB       -51.0930   32.1550   -2.2290 C.3   193  ASN193      0.1181
     19  CG       -50.2380   33.1680   -2.9680 C.2   193  ASN193      0.2629
     20  OD1      -50.4850   33.4760   -4.1320 O.2   193  ASN193     -0.2716
     21  ND2      -49.2440   33.7180   -2.2770 N.am  193  ASN193     -0.0877
     22  N        -49.4180   27.1550   -5.2900 N.3   196  PHE196     -0.1241
     23  CA       -49.2720   27.6410   -6.6600 C.3   196  PHE196      0.1605
     24  C        -47.8520   28.1350   -6.9230 C.2   196  PHE196      0.2264
     25  O        -47.3170   27.9520   -8.0180 O.2   196  PHE196     -0.2867
     26  CB       -50.3080   28.7440   -6.9390 C.3   196  PHE196      0.0534
     27  CG       -51.7430   28.2870   -6.8340 C.ar  196  PHE196     -0.0203
     28  CD1      -52.0780   26.9370   -6.9710 C.ar  196  PHE196     -0.0042
     29  CD2      -52.7680   29.2070   -6.5860 C.ar  196  PHE196     -0.0042
     30  CE1      -53.3920   26.5150   -6.8610 C.ar  196  PHE196     -0.0003
     31  CE2      -54.0910   28.7950   -6.4790 C.ar  196  PHE196     -0.0003
     32  CZ       -54.4050   27.4480   -6.6170 C.ar  196  PHE196     -0.0000
     33  N        -45.7960   25.0310   -7.5500 N.3   199  ARG199     -0.1231
     34  CA       -46.0950   24.5420   -8.9070 C.3   199  ARG199      0.1694
     35  C        -45.3590   25.3620   -9.9690 C.2   199  ARG199      0.2591
     36  O        -44.6980   24.8080  -10.8610 O.2   199  ARG199     -0.2718
     37  CB       -47.5990   24.6150   -9.1650 C.3   199  ARG199      0.0321
     38  CG       -48.4350   23.4740   -8.6080 C.3   199  ARG199      0.0489
     39  CD       -49.8860   23.6370   -9.0590 C.3   199  ARG199      0.2205
     40  NE       -50.7570   22.5280   -8.6560 N.pl3 199  ARG199     -0.0865
     41  CZ       -51.9680   22.2950   -9.1450 C.cat 199  ARG199      0.5346
     42  NH1      -52.4740   23.0730  -10.1100 N.pl3 199  ARG199      0.1354
     43  NH2      -52.6620   21.2620   -8.6990 N.pl3 199  ARG199      0.1354
     44  N        -45.4810   26.6910   -9.8850 N.am  200  GLU200     -0.1979
     45  CA       -44.9100   27.5720  -10.9100 C.3   200  GLU200      0.1602
     46  C        -43.4050   27.4070  -11.0480 C.2   200  GLU200      0.2287
     47  O        -42.8510   27.7180  -12.1020 O.2   200  GLU200     -0.2864
     48  CB       -45.2520   29.0300  -10.5820 C.3   200  GLU200      0.0415
     49  CG       -46.6990   29.3780  -10.7710 C.3   200  GLU200      0.1163
     50  CD       -47.0250   30.8140  -10.3690 C.2   200  GLU200      0.3649
     51  OE1      -46.0770   31.5720  -10.0350 O.co2 200  GLU200     -0.2457
     52  OE2      -48.2280   31.1670  -10.3900 O.co2 200  GLU200     -0.2457
     53  N        -59.0180   19.0310  -12.8850 N.3   236  ASP236     -0.1239
     54  CA       -58.6630   19.5920  -14.1940 C.3   236  ASP236      0.1674
     55  C        -58.6300   18.5470  -15.3000 C.2   236  ASP236      0.2266
     56  O        -58.8590   18.8810  -16.4660 O.2   236  ASP236     -0.2867
     57  CB       -57.2830   20.2420  -14.1370 C.3   236  ASP236      0.1410
     58  CG       -57.3200   21.6730  -13.6450 C.2   236  ASP236      0.3668
     59  OD1      -58.4040   22.2870  -13.6250 O.co2 236  ASP236     -0.2456
     60  OD2      -56.2420   22.1870  -13.2800 O.co2 236  ASP236     -0.2456
     61  N        -59.9120   26.3790   -3.9480 N.3   277  GLY277     -0.1225
     62  CA       -58.9610   26.2970   -5.0290 C.3   277  GLY277      0.1811
     63  C        -59.6150   25.9900   -6.3560 C.2   277  GLY277      0.2280
     64  O        -59.1380   26.4300   -7.3940 O.2   277  GLY277     -0.2866
     65  N        -60.7180   29.2470   -8.1540 N.3   280  PHE280     -0.1227
     66  CA       -59.6800   30.1180   -8.6580 C.3   280  PHE280      0.1736
     67  C        -59.0610   29.5640   -9.9180 C.2   280  PHE280      0.2595
     68  O        -58.5770   30.3330  -10.7500 O.2   280  PHE280     -0.2718
     69  CB       -58.6040   30.2790   -7.6020 C.3   280  PHE280      0.0547
     70  CG       -57.7470   31.4640   -7.8030 C.ar  280  PHE280     -0.0202
     71  CD1      -58.2270   32.7320   -7.5310 C.ar  280  PHE280     -0.0042
     72  CD2      -56.4500   31.3160   -8.2470 C.ar  280  PHE280     -0.0042
     73  CE1      -57.4260   33.8290   -7.7040 C.ar  280  PHE280     -0.0003
     74  CE2      -55.6430   32.4060   -8.4180 C.ar  280  PHE280     -0.0003
     75  CZ       -56.1310   33.6680   -8.1500 C.ar  280  PHE280     -0.0000
     76  N        -59.0560   28.2390  -10.0530 N.am  281  ILE281     -0.1980
     77  CA       -58.4360   27.5980  -11.2010 C.3   281  ILE281      0.1595
     78  C        -59.1240   28.0430  -12.4820 C.2   281  ILE281      0.2287
     79  O        -58.4780   28.1920  -13.5270 O.2   281  ILE281     -0.2864
     80  CB       -58.4750   26.0660  -11.0190 C.3   281  ILE281      0.0276
     81  CG1      -57.3230   25.3930  -11.7730 C.3   281  ILE281      0.0022
     82  CG2      -59.8200   25.4940  -11.4540 C.3   281  ILE281      0.0022
     83  CD1      -56.3240   24.7150  -10.8520 C.3   281  ILE281      0.0001
@<TRIPOS>BOND
     1    56    55    2
     2    55    54    1
     3    54    57    1
     4    54    53    1
     5    57    58    1
     6    58    59   ar
     7    58    60   ar
     8    79    78    2
     9    78    77    1
    10    47    46    2
    11    81    80    1
    12    81    83    1
    13    82    80    1
    14    77    80    1
    15    77    76    1
    16    46    45    1
    17    45    48    1
    18    45    44    1
    19    36    35    2
    20    49    48    1
    21    49    50    1
    22    68    67    2
    23    52    50   ar
    24    50    51   ar
    25    42    41    1
    26    76    67   am
    27    35    44   am
    28    35    34    1
    29    67    66    1
    30    37    34    1
    31    37    38    1
    32    41    43    1
    33    41    40    2
    34    39    40    1
    35    39    38    1
    36    34    33    1
    37    66    65    1
    38    66    69    1
    39    74    72   ar
    40    74    75   ar
    41    72    70   ar
    42    75    73   ar
    43    25    24    2
    44    70    69    1
    45    70    71   ar
    46    73    71   ar
    47    64    63    2
    48    28    30   ar
    49    28    27   ar
    50    26    27    1
    51    26    23    1
    52    24    23    1
    53    30    32   ar
    54    27    29   ar
    55    23    22    1
    56    32    31   ar
    57    29    31   ar
    58    63    62    1
    59    62    61    1
    60    20    19    2
    61    17    16    2
    62     9     8    2
    63    19    21   am
    64    19    18    1
    65    15    16    1
    66    15    18    1
    67    15    14    1
    68    13    11    1
    69     8    14   am
    70     8     7    1
    71    10    11    1
    72    10     7    1
    73    12    11    1
    74     7     6    1
    75     4     3    2
    76     3     2    1
    77     2     5    1
    78     2     1    1
