@<TRIPOS>MOLECULE
tmp/5qf4A00.pdb
 82 75 0 0 0
SMALL
GASTEIGER

@<TRIPOS>ATOM
      1  N         28.0710  -31.3830  -25.1040 N.3    74  MET74      -0.1245
      2  CA        27.4920  -30.0760  -25.4270 C.3    74  MET74       0.1570
      3  C         27.2000  -30.0540  -26.9320 C.2    74  MET74       0.2261
      4  O         28.1130  -29.9620  -27.7580 O.2    74  MET74      -0.2867
      5  CB        28.3940  -28.9270  -25.0070 C.3    74  MET74       0.0387
      6  CG        28.7120  -28.9170  -23.5100 C.3    74  MET74       0.0595
      7  SD        27.2320  -28.9180  -22.4310 S.3    74  MET74      -0.1393
      8  CE        26.6850  -27.2730  -22.7730 C.3    74  MET74       0.0692
      9  N         25.3120  -28.0460  -29.2100 N.3    76  GLU76      -0.1245
     10  CA        25.5240  -26.8890  -30.0960 C.3    76  GLU76       0.1567
     11  C         26.9970  -26.5240  -30.2120 C.2    76  GLU76       0.2260
     12  O         27.4710  -26.1550  -31.2870 O.2    76  GLU76      -0.2867
     13  CB        24.7440  -25.6670  -29.6020 C.3    76  GLU76       0.0388
     14  CG        24.8550  -24.4810  -30.5770 C.3    76  GLU76       0.1160
     15  CD        24.2780  -23.1700  -30.0420 C.2    76  GLU76       0.3649
     16  OE1       23.6980  -23.1490  -28.9320 O.co2  76  GLU76      -0.2457
     17  OE2       24.4160  -22.1420  -30.7440 O.co2  76  GLU76      -0.2457
     18  N         30.7860  -20.9150  -28.1420 N.3   234  LEU234     -0.1245
     19  CA        29.4900  -20.4580  -28.6580 C.3   234  LEU234      0.1561
     20  C         29.5300  -18.9980  -29.1220 C.2   234  LEU234      0.2260
     21  O         28.8380  -18.6390  -30.0840 O.2   234  LEU234     -0.2867
     22  CB        28.4020  -20.6240  -27.6060 C.3   234  LEU234      0.0270
     23  CG        28.0660  -22.0700  -27.2490 C.3   234  LEU234      0.0019
     24  CD1       27.1850  -22.1140  -26.0120 C.3   234  LEU234      0.0001
     25  CD2       27.3750  -22.7600  -28.3950 C.3   234  LEU234      0.0001
     26  N         28.2280  -18.1830  -33.1410 N.3   238  ARG238     -0.1245
     27  CA        26.9240  -17.5450  -33.3670 C.3   238  ARG238      0.1563
     28  C         27.0150  -16.1870  -34.0710 C.2   238  ARG238      0.2260
     29  O         27.9800  -15.4310  -33.9020 O.2   238  ARG238     -0.2867
     30  CB        26.1980  -17.3270  -32.0340 C.3   238  ARG238      0.0307
     31  CG        25.6240  -18.6070  -31.4030 C.3   238  ARG238      0.0489
     32  CD        24.8120  -18.2800  -30.1570 C.3   238  ARG238      0.2205
     33  NE        24.3770  -19.4900  -29.4690 N.pl3 238  ARG238     -0.0865
     34  CZ        23.7040  -19.5000  -28.3310 C.cat 238  ARG238      0.5346
     35  NH1       23.3970  -18.3600  -27.7360 N.pl3 238  ARG238      0.1354
     36  NH2       23.3580  -20.6590  -27.7840 N.pl3 238  ARG238      0.1354
     37  N         24.0400  -13.1240  -27.3940 N.3   243  SER243     -0.1202
     38  CA        22.9670  -14.0480  -27.0740 C.3   243  SER243      0.2020
     39  C         23.4160  -15.1990  -26.1840 C.2   243  SER243      0.2619
     40  O         22.5710  -15.9960  -25.7770 O.2   243  SER243     -0.2717
     41  CB        22.3500  -14.6410  -28.3530 C.3   243  SER243      0.2103
     42  OG        23.2250  -15.5610  -28.9790 O.3   243  SER243     -0.2182
     43  N         24.7020  -15.3230  -25.8760 N.am  244  VAL244     -0.1965
     44  CA        25.1530  -16.4690  -25.0840 C.3   244  VAL244      0.1727
     45  C         24.7940  -16.1930  -23.6240 C.2   244  VAL244      0.2616
     46  O         25.1720  -15.1640  -23.0630 O.2   244  VAL244     -0.2715
     47  CB        26.6560  -16.7310  -25.2870 C.3   244  VAL244      0.0290
     48  CG1       27.1830  -17.8320  -24.3350 C.3   244  VAL244      0.0023
     49  CG2       26.9320  -17.1700  -26.7320 C.3   244  VAL244      0.0023
     50  N         24.0360  -17.1010  -23.0180 N.am  245  ASP245     -0.1971
     51  CA        23.5160  -16.9310  -21.6620 C.3   245  ASP245      0.1709
     52  C         24.2140  -17.9270  -20.7380 C.2   245  ASP245      0.2293
     53  O         23.8930  -19.1200  -20.7590 O.2   245  ASP245     -0.2864
     54  CB        22.0080  -17.1540  -21.6660 C.3   245  ASP245      0.1436
     55  CG        21.3620  -16.8810  -20.3200 C.2   245  ASP245      0.3671
     56  OD1       22.0290  -16.9580  -19.2670 O.co2 245  ASP245     -0.2456
     57  OD2       20.1540  -16.5920  -20.3200 O.co2 245  ASP245     -0.2456
     58  N         22.1380  -20.2570  -18.5620 N.3   248  LYS248     -0.1231
     59  CA        21.5050  -21.3380  -19.3150 C.3   248  LYS248      0.1693
     60  C         22.5030  -22.4150  -19.7070 C.2   248  LYS248      0.2591
     61  O         22.1630  -23.6000  -19.7240 O.2   248  LYS248     -0.2718
     62  CB        20.8330  -20.7890  -20.5830 C.3   248  LYS248      0.0285
     63  CG        19.5560  -20.0190  -20.2920 C.3   248  LYS248      0.0035
     64  CD        18.9750  -19.3770  -21.5480 C.3   248  LYS248      0.0206
     65  CE        17.6460  -18.6680  -21.2470 C.3   248  LYS248      0.1093
     66  NZ        17.2060  -17.8210  -22.3960 N.3   248  LYS248     -0.1314
     67  N         23.7190  -22.0290  -20.0800 N.am  249  VAL249     -0.1980
     68  CA        24.7180  -23.0430  -20.4200 C.3   249  VAL249      0.1595
     69  C         25.0270  -23.9000  -19.1920 C.2   249  VAL249      0.2287
     70  O         25.1520  -25.1190  -19.2850 O.2   249  VAL249     -0.2864
     71  CB        25.9750  -22.3680  -21.0040 C.3   249  VAL249      0.0276
     72  CG1       27.0820  -23.3980  -21.3000 C.3   249  VAL249      0.0022
     73  CG2       25.6130  -21.6230  -22.2960 C.3   249  VAL249      0.0022
     74  N         22.2930  -26.3960  -18.5800 N.3   252  GLU252     -0.1245
     75  CA        22.4360  -27.5070  -19.5210 C.3   252  GLU252      0.1567
     76  C         23.5190  -28.4820  -19.0430 C.2   252  GLU252      0.2260
     77  O         23.3380  -29.7010  -19.0800 O.2   252  GLU252     -0.2867
     78  CB        22.7680  -26.9650  -20.9220 C.3   252  GLU252      0.0388
     79  CG        22.9820  -28.0400  -22.0400 C.3   252  GLU252      0.1160
     80  CD        21.7400  -28.8550  -22.4020 C.2   252  GLU252      0.3649
     81  OE1       20.6010  -28.3570  -22.1840 O.co2 252  GLU252     -0.2457
     82  OE2       21.9160  -29.9990  -22.9190 O.co2 252  GLU252     -0.2457
@<TRIPOS>BOND
     1    28    29    2
     2    28    27    1
     3    27    26    1
     4    27    30    1
     5    30    31    1
     6    31    32    1
     7    12    11    2
     8    17    15   ar
     9    14    15    1
    10    14    13    1
    11    11    10    1
    12    32    33    1
    13    10    13    1
    14    10     9    1
    15    21    20    2
    16    15    16   ar
    17    33    34    2
    18    20    19    1
    19    42    41    1
    20    19    18    1
    21    19    22    1
    22    25    23    1
    23    41    38    1
    24    34    36    1
    25    34    35    1
    26     4     3    2
    27    22    23    1
    28    37    38    1
    29    23    24    1
    30    38    39    1
    31     3     2    1
    32    49    47    1
    33    39    43   am
    34    39    40    2
    35    43    44    1
    36     2     1    1
    37     2     5    1
    38    47    44    1
    39    47    48    1
    40    44    45    1
    41     5     6    1
    42    45    46    2
    43    45    50   am
    44     6     7    1
    45    50    51    1
    46    82    80   ar
    47     8     7    1
    48    80    81   ar
    49    80    79    1
    50    66    65    1
    51    73    71    1
    52    79    78    1
    53    54    51    1
    54    54    55    1
    55    51    52    1
    56    64    65    1
    57    64    63    1
    58    72    71    1
    59    71    68    1
    60    78    75    1
    61    53    52    2
    62    62    63    1
    63    62    59    1
    64    68    67    1
    65    68    69    1
    66    55    57   ar
    67    55    56   ar
    68    67    60   am
    69    61    60    2
    70    60    59    1
    71    75    76    1
    72    75    74    1
    73    59    58    1
    74    70    69    2
    75    77    76    2
