@<TRIPOS>MOLECULE
tmp/5qf6A00.pdb
 91 84 0 0 0
SMALL
GASTEIGER

@<TRIPOS>ATOM
      1  N         27.5960  -30.9510  -24.8130 N.3    74  MET74      -0.1230
      2  CA        27.0180  -29.6350  -25.1020 C.3    74  MET74       0.1702
      3  C         26.7270  -29.5920  -26.6100 C.2    74  MET74       0.2592
      4  O         27.6470  -29.4970  -27.4230 O.2    74  MET74      -0.2718
      5  CB        27.9350  -28.4950  -24.6790 C.3    74  MET74       0.0401
      6  CG        28.2870  -28.4900  -23.1660 C.3    74  MET74       0.0596
      7  SD        26.8290  -28.4860  -22.0790 S.3    74  MET74      -0.1393
      8  CE        26.2900  -26.8230  -22.3040 C.3    74  MET74       0.0692
      9  N         25.4460  -29.7020  -26.9690 N.am   75  GLU75      -0.1966
     10  CA        25.0610  -30.0170  -28.3530 C.3    75  GLU75       0.1733
     11  C         25.3300  -28.8460  -29.3000 C.2    75  GLU75       0.2616
     12  O         26.0020  -29.0130  -30.3270 O.2    75  GLU75      -0.2715
     13  CB        23.5790  -30.4480  -28.3680 C.3    75  GLU75       0.0429
     14  CG        23.0660  -30.8900  -29.7260 C.3    75  GLU75       0.1163
     15  CD        21.6700  -31.5170  -29.6710 C.2    75  GLU75       0.3649
     16  OE1       20.8880  -31.2200  -28.7420 O.co2  75  GLU75      -0.2457
     17  OE2       21.3640  -32.3200  -30.5720 O.co2  75  GLU75      -0.2457
     18  N         24.8390  -27.6440  -28.9750 N.am   76  GLU76      -0.1963
     19  CA        25.0290  -26.4910  -29.8650 C.3    76  GLU76       0.1733
     20  C         26.5060  -26.1270  -29.9970 C.2    76  GLU76       0.2616
     21  O         26.9800  -25.8050  -31.0880 O.2    76  GLU76      -0.2715
     22  CB        24.2510  -25.2760  -29.3590 C.3    76  GLU76       0.0429
     23  CG        24.3360  -24.0690  -30.3200 C.3    76  GLU76       0.1163
     24  CD        23.7170  -22.7810  -29.7780 C.2    76  GLU76       0.3649
     25  OE1       23.1160  -22.7860  -28.6850 O.co2  76  GLU76      -0.2457
     26  OE2       23.8400  -21.7380  -30.4520 O.co2  76  GLU76      -0.2457
     27  N         27.2460  -26.1690  -28.8870 N.am   77  ALA77      -0.1977
     28  CA        28.6700  -25.8180  -28.9080 C.3    77  ALA77       0.1597
     29  C         29.5270  -26.8760  -29.5830 C.2    77  ALA77       0.2287
     30  O         30.6740  -26.5870  -29.9360 O.2    77  ALA77      -0.2864
     31  CB        29.1610  -25.5990  -27.4560 C.3    77  ALA77       0.0319
     32  N         32.7530  -23.3390  -22.8360 N.3   230  THR230     -0.1218
     33  CA        31.5390  -23.4400  -23.6650 C.3   230  THR230      0.1862
     34  C         30.9450  -22.0570  -23.9780 C.2   230  THR230      0.2287
     35  O         30.5710  -21.7810  -25.1300 O.2   230  THR230     -0.2866
     36  CB        30.5020  -24.3700  -22.9840 C.3   230  THR230      0.1770
     37  OG1       30.8990  -25.7520  -23.1460 O.3   230  THR230     -0.2211
     38  CG2       29.0920  -24.2110  -23.6360 C.3   230  THR230      0.0375
     39  N         30.4210  -20.5150  -27.8330 N.3   234  LEU234     -0.1245
     40  CA        29.1180  -20.0700  -28.3540 C.3   234  LEU234      0.1561
     41  C         29.1530  -18.6160  -28.8220 C.2   234  LEU234      0.2260
     42  O         28.4720  -18.2600  -29.7950 O.2   234  LEU234     -0.2867
     43  CB        28.0180  -20.2360  -27.3050 C.3   234  LEU234      0.0270
     44  CG        27.6300  -21.6630  -26.9180 C.3   234  LEU234      0.0019
     45  CD1       26.7310  -21.6810  -25.6910 C.3   234  LEU234      0.0001
     46  CD2       26.9630  -22.3790  -28.0630 C.3   234  LEU234      0.0001
     47  N         27.7990  -17.8720  -32.8020 N.3   238  ARG238     -0.1245
     48  CA        26.4990  -17.2270  -33.0430 C.3   238  ARG238      0.1563
     49  C         26.6230  -15.8850  -33.7680 C.2   238  ARG238      0.2260
     50  O         27.6340  -15.1830  -33.6490 O.2   238  ARG238     -0.2867
     51  CB        25.7760  -16.9770  -31.7120 C.3   238  ARG238      0.0307
     52  CG        25.2000  -18.2390  -31.0540 C.3   238  ARG238      0.0489
     53  CD        24.3970  -17.8900  -29.8030 C.3   238  ARG238      0.2205
     54  NE        23.9490  -19.0990  -29.1130 N.pl3 238  ARG238     -0.0865
     55  CZ        23.3160  -19.0990  -27.9440 C.cat 238  ARG238      0.5346
     56  NH1       23.0440  -17.9510  -27.3290 N.pl3 238  ARG238      0.1354
     57  NH2       22.9620  -20.2490  -27.3890 N.pl3 238  ARG238      0.1354
     58  N         21.8230  -19.8280  -18.2600 N.3   248  LYS248     -0.1231
     59  CA        21.1950  -20.9010  -19.0340 C.3   248  LYS248      0.1693
     60  C         22.1940  -21.9830  -19.4420 C.2   248  LYS248      0.2591
     61  O         21.8430  -23.1660  -19.4900 O.2   248  LYS248     -0.2718
     62  CB        20.5150  -20.3210  -20.2770 C.3   248  LYS248      0.0285
     63  CG        19.2310  -19.5590  -19.9510 C.3   248  LYS248      0.0035
     64  CD        18.6240  -18.9310  -21.2080 C.3   248  LYS248      0.0206
     65  CE        17.3050  -18.2270  -20.8920 C.3   248  LYS248      0.1093
     66  NZ        16.8650  -17.3680  -22.0230 N.3   248  LYS248     -0.1314
     67  N         23.4300  -21.6000  -19.7870 N.am  249  VAL249     -0.1980
     68  CA        24.4370  -22.6110  -20.1050 C.3   249  VAL249      0.1595
     69  C         24.7310  -23.4690  -18.8720 C.2   249  VAL249      0.2287
     70  O         24.8440  -24.6960  -18.9760 O.2   249  VAL249     -0.2864
     71  CB        25.7000  -21.9360  -20.6700 C.3   249  VAL249      0.0276
     72  CG1       26.7870  -22.9700  -20.9540 C.3   249  VAL249      0.0022
     73  CG2       25.3300  -21.1780  -21.9760 C.3   249  VAL249      0.0022
     74  N         21.9540  -25.9670  -18.3090 N.3   252  GLU252     -0.1245
     75  CA        22.0980  -27.0730  -19.2620 C.3   252  GLU252      0.1567
     76  C         23.1820  -28.0580  -18.7990 C.2   252  GLU252      0.2260
     77  O         22.9920  -29.2770  -18.8400 O.2   252  GLU252     -0.2867
     78  CB        22.4170  -26.5270  -20.6690 C.3   252  GLU252      0.0388
     79  CG        22.6220  -27.5900  -21.7930 C.3   252  GLU252      0.1160
     80  CD        21.3570  -28.3520  -22.2070 C.2   252  GLU252      0.3649
     81  OE1       20.2300  -27.8700  -21.9270 O.co2 252  GLU252     -0.2457
     82  OE2       21.5150  -29.4270  -22.8290 O.co2 252  GLU252     -0.2457
     83  N         22.2250  -30.5290  -16.1280 N.3   255  LYS255     -0.1245
     84  CA        21.4790  -31.7260  -16.5100 C.3   255  LYS255      0.1561
     85  C         22.3650  -32.9690  -16.4790 C.2   255  LYS255      0.2260
     86  O         21.8380  -34.0770  -16.3690 O.2   255  LYS255     -0.2867
     87  CB        20.8420  -31.5780  -17.9120 C.3   255  LYS255      0.0271
     88  CG        19.8030  -30.4450  -18.0520 C.3   255  LYS255      0.0035
     89  CD        19.2760  -30.3410  -19.5110 C.3   255  LYS255      0.0206
     90  CE        18.2080  -29.2400  -19.6730 C.3   255  LYS255      0.1093
     91  NZ        17.8440  -29.0720  -21.1290 N.3   255  LYS255     -0.1314
@<TRIPOS>BOND
     1    49    50    2
     2    49    48    1
     3    48    47    1
     4    48    51    1
     5    51    52    1
     6    21    20    2
     7    52    53    1
     8    17    15   ar
     9    26    24   ar
    10    12    11    2
    11    23    24    1
    12    23    22    1
    13    20    19    1
    14    20    27   am
    15    30    29    2
    16    19    22    1
    17    19    18    1
    18    53    54    1
    19    42    41    2
    20    24    25   ar
    21    14    15    1
    22    14    13    1
    23    15    16   ar
    24    29    28    1
    25    11    18   am
    26    11    10    1
    27    54    55    2
    28    28    27    1
    29    28    31    1
    30    41    40    1
    31    13    10    1
    32    40    39    1
    33    40    43    1
    34    10     9    1
    35    46    44    1
    36    55    57    1
    37    55    56    1
    38     4     3    2
    39    43    44    1
    40     9     3   am
    41    44    45    1
    42     3     2    1
    43    35    34    2
    44     2     1    1
    45     2     5    1
    46     5     6    1
    47    34    33    1
    48    33    36    1
    49    33    32    1
    50    38    36    1
    51     6     7    1
    52    37    36    1
    53    82    80   ar
    54     8     7    1
    55    80    81   ar
    56    80    79    1
    57    66    65    1
    58    73    71    1
    59    79    78    1
    60    64    65    1
    61    64    63    1
    62    91    90    1
    63    72    71    1
    64    71    68    1
    65    78    75    1
    66    62    63    1
    67    62    59    1
    68    68    67    1
    69    68    69    1
    70    67    60   am
    71    90    89    1
    72    89    88    1
    73    61    60    2
    74    60    59    1
    75    75    76    1
    76    75    74    1
    77    59    58    1
    78    70    69    2
    79    77    76    2
    80    88    87    1
    81    87    84    1
    82    84    85    1
    83    84    83    1
    84    85    86    2
