@<TRIPOS>MOLECULE
tmp/5qf8A00.pdb
 93 87 0 0 0
SMALL
GASTEIGER

@<TRIPOS>ATOM
      1  N        -58.9320   36.4670  -20.3710 N.3   146  SER146     -0.1202
      2  CA       -59.4680   35.1130  -20.2680 C.3   146  SER146      0.2020
      3  C        -58.4980   34.2870  -19.4420 C.2   146  SER146      0.2619
      4  O        -57.3510   34.6800  -19.2280 O.2   146  SER146     -0.2717
      5  CB       -59.6700   34.4460  -21.6400 C.3   146  SER146      0.2103
      6  OG       -58.4290   34.0620  -22.1700 O.3   146  SER146     -0.2182
      7  N        -58.9830   33.1410  -18.9720 N.am  147  GLU147     -0.1965
      8  CA       -58.2580   32.2790  -18.0450 C.3   147  GLU147      0.1733
      9  C        -58.7160   30.8550  -18.3340 C.2   147  GLU147      0.2616
     10  O        -59.9100   30.6150  -18.5190 O.2   147  GLU147     -0.2715
     11  CB       -58.5400   32.6840  -16.5840 C.3   147  GLU147      0.0429
     12  CG       -57.8840   31.8480  -15.5060 C.3   147  GLU147      0.1163
     13  CD       -57.9810   32.5120  -14.1460 C.2   147  GLU147      0.3649
     14  OE1      -56.9310   32.7980  -13.5370 O.co2 147  GLU147     -0.2457
     15  OE2      -59.1120   32.7450  -13.6800 O.co2 147  GLU147     -0.2457
     16  N        -57.7700   29.9210  -18.3990 N.am  148  ASP148     -0.1971
     17  CA       -58.0650   28.5040  -18.6240 C.3   148  ASP148      0.1709
     18  C        -57.3480   27.6630  -17.5700 C.2   148  ASP148      0.2293
     19  O        -56.1240   27.4930  -17.6450 O.2   148  ASP148     -0.2864
     20  CB       -57.6340   28.0980  -20.0300 C.3   148  ASP148      0.1436
     21  CG       -58.1000   26.7150  -20.4120 C.2   148  ASP148      0.3671
     22  OD1      -58.7190   26.0340  -19.5700 O.co2 148  ASP148     -0.2456
     23  OD2      -57.8270   26.3060  -21.5600 O.co2 148  ASP148     -0.2456
     24  N        -56.4390   24.2890  -15.7040 N.3   150  LYS150     -0.1245
     25  CA       -56.2850   22.8570  -15.8840 C.3   150  LYS150      0.1561
     26  C        -55.7590   22.2410  -14.5950 C.2   150  LYS150      0.2260
     27  O        -55.5070   22.9250  -13.5960 O.2   150  LYS150     -0.2867
     28  CB       -55.3630   22.5670  -17.0670 C.3   150  LYS150      0.0271
     29  CG       -55.7730   23.2470  -18.3840 C.3   150  LYS150      0.0035
     30  CD       -56.8130   22.4680  -19.1570 C.3   150  LYS150      0.0206
     31  CE       -56.4610   22.4140  -20.6400 C.3   150  LYS150      0.1093
     32  NZ       -56.3620   23.7670  -21.2610 N.3   150  LYS150     -0.1314
     33  N        -53.4060   28.8260  -17.8540 N.3   155  VAL155     -0.1231
     34  CA       -52.9960   29.8030  -18.8640 C.3   155  VAL155      0.1692
     35  C        -53.9370   30.9850  -18.8310 C.2   155  VAL155      0.2592
     36  O        -55.1540   30.8150  -18.9360 O.2   155  VAL155     -0.2718
     37  CB       -53.0130   29.2280  -20.2970 C.3   155  VAL155      0.0266
     38  CG1      -52.3760   30.1960  -21.2260 C.3   155  VAL155      0.0020
     39  CG2      -52.3250   27.9850  -20.3530 C.3   155  VAL155      0.0020
     40  N        -53.3810   32.1730  -18.8110 N.am  156  ARG156     -0.1966
     41  CA       -54.1560   33.4010  -18.8330 C.3   156  ARG156      0.1729
     42  C        -53.7710   34.2680  -20.0140 C.2   156  ARG156      0.2616
     43  O        -52.5830   34.3830  -20.3600 O.2   156  ARG156     -0.2715
     44  CB       -53.9380   34.1990  -17.5460 C.3   156  ARG156      0.0348
     45  CG       -54.1640   33.3870  -16.2870 C.3   156  ARG156      0.0492
     46  CD       -54.0420   34.2040  -14.9930 C.3   156  ARG156      0.2205
     47  NE       -54.3590   33.3730  -13.8210 N.pl3 156  ARG156     -0.0865
     48  CZ       -53.4740   32.6480  -13.1340 C.cat 156  ARG156      0.5346
     49  NH1      -52.1750   32.6690  -13.4600 N.pl3 156  ARG156      0.1354
     50  NH2      -53.8790   31.9180  -12.1060 N.pl3 156  ARG156      0.1354
     51  N        -54.7740   34.8940  -20.6290 N.am  157  GLN157     -0.1977
     52  CA       -54.5370   35.9490  -21.6070 C.3   157  GLN157      0.1601
     53  C        -54.7050   37.3000  -20.9320 C.2   157  GLN157      0.2287
     54  O        -55.7480   37.5700  -20.3340 O.2   157  GLN157     -0.2864
     55  CB       -55.4900   35.8710  -22.8040 C.3   157  GLN157      0.0394
     56  CG       -55.4050   34.6460  -23.6560 C.3   157  GLN157      0.0908
     57  CD       -56.3390   34.7800  -24.8580 C.2   157  GLN157      0.2608
     58  OE1      -57.5300   35.1260  -24.7100 O.2   157  GLN157     -0.2717
     59  NE2      -55.7950   34.5720  -26.0530 N.am  157  GLN157     -0.0878
     60  N        -49.1720   36.3050  -22.7210 N.3   172  LEU172     -0.1245
     61  CA       -49.6230   35.0140  -22.2060 C.3   172  LEU172      0.1561
     62  C        -48.9280   34.6900  -20.8730 C.2   172  LEU172      0.2260
     63  O        -47.7010   34.7620  -20.7670 O.2   172  LEU172     -0.2867
     64  CB       -49.3480   33.9040  -23.2250 C.3   172  LEU172      0.0270
     65  CG       -49.9490   34.0850  -24.6520 C.3   172  LEU172      0.0019
     66  CD1      -49.5800   32.8850  -25.5150 C.3   172  LEU172      0.0001
     67  CD2      -51.4520   34.2390  -24.6020 C.3   172  LEU172      0.0001
     68  N        -48.2360   31.7480  -18.2930 N.3   174  PHE174     -0.1241
     69  CA       -48.2070   30.3040  -18.1120 C.3   174  PHE174      0.1605
     70  C        -47.8370   30.0000  -16.6650 C.2   174  PHE174      0.2264
     71  O        -46.6940   30.1980  -16.2530 O.2   174  PHE174     -0.2867
     72  CB       -47.2260   29.6610  -19.0870 C.3   174  PHE174      0.0534
     73  CG       -47.7480   29.6090  -20.5240 C.ar  174  PHE174     -0.0203
     74  CD1      -48.5510   28.5520  -20.9300 C.ar  174  PHE174     -0.0042
     75  CD2      -47.4560   30.6080  -21.4360 C.ar  174  PHE174     -0.0042
     76  CE1      -49.0440   28.4840  -22.2250 C.ar  174  PHE174     -0.0003
     77  CE2      -47.9590   30.5380  -22.7650 C.ar  174  PHE174     -0.0003
     78  CZ       -48.7480   29.4780  -23.1250 C.ar  174  PHE174     -0.0000
     79  N        -46.5070   23.1190  -23.8750 N.3   197  LYS197     -0.1245
     80  CA       -47.5660   24.1290  -24.0680 C.3   197  LYS197      0.1561
     81  C        -46.9870   25.5330  -24.2330 C.2   197  LYS197      0.2260
     82  O        -47.5190   26.3420  -25.0090 O.2   197  LYS197     -0.2867
     83  CB       -48.5660   24.1280  -22.9030 C.3   197  LYS197      0.0271
     84  CG       -49.3490   22.8300  -22.7510 C.3   197  LYS197      0.0035
     85  CD       -50.2940   22.5630  -23.9380 C.3   197  LYS197      0.0206
     86  CE       -51.1650   21.3290  -23.6780 C.3   197  LYS197      0.1093
     87  NZ       -51.9910   20.9420  -24.8530 N.3   197  LYS197     -0.1314
     88  N        -47.1560   27.8980  -27.9610 N.3   201  SER201     -0.1217
     89  CA       -47.7310   29.2450  -27.9950 C.3   201  SER201      0.1889
     90  C        -46.9560   30.2550  -28.8370 C.2   201  SER201      0.2288
     91  O        -47.4920   31.3440  -29.1100 O.2   201  SER201     -0.2866
     92  CB       -47.8290   29.7970  -26.5500 C.3   201  SER201      0.2089
     93  OG       -46.5750   30.2730  -26.0720 O.3   201  SER201     -0.2183
@<TRIPOS>BOND
     1    91    90    2
     2    90    89    1
     3    89    88    1
     4    89    92    1
     5    92    93    1
     6    59    57   am
     7    66    65    1
     8    82    81    2
     9    57    58    2
    10    57    56    1
    11    87    86    1
    12    65    67    1
    13    65    64    1
    14    81    80    1
    15    80    79    1
    16    80    83    1
    17    85    86    1
    18    85    84    1
    19    56    55    1
    20    64    61    1
    21    78    77   ar
    22    78    76   ar
    23    83    84    1
    24    55    52    1
    25    77    75   ar
    26    60    61    1
    27    76    74   ar
    28    61    62    1
    29     6     5    1
    30     5     2    1
    31    52    53    1
    32    52    51    1
    33    23    21   ar
    34    75    73   ar
    35    32    31    1
    36    38    37    1
    37    53    54    2
    38    74    73   ar
    39    62    63    2
    40    31    30    1
    41    51    42   am
    42    73    72    1
    43    21    20    1
    44    21    22   ar
    45     1     2    1
    46    43    42    2
    47    39    37    1
    48    37    34    1
    49     2     3    1
    50    20    17    1
    51    42    41    1
    52     3     4    2
    53     3     7   am
    54    30    29    1
    55    72    69    1
    56     7     8    1
    57    36    35    2
    58    34    35    1
    59    34    33    1
    60    41    40    1
    61    41    44    1
    62    35    40   am
    63    17    16    1
    64    17    18    1
    65    10     9    2
    66    16     9   am
    67    29    28    1
    68     9     8    1
    69    68    69    1
    70    69    70    1
    71     8    11    1
    72    19    18    2
    73    44    45    1
    74    28    25    1
    75    70    71    2
    76    11    12    1
    77    45    46    1
    78    25    24    1
    79    25    26    1
    80    12    13    1
    81    46    47    1
    82    26    27    2
    83    13    15   ar
    84    13    14   ar
    85    47    48    2
    86    49    48    1
    87    48    50    1
