@<TRIPOS>MOLECULE
tmp/5qf9A00.pdb
 91 86 0 0 0
SMALL
GASTEIGER

@<TRIPOS>ATOM
      1  N         11.0490   47.6060  108.6980 N.3   189  ALA189     -0.1245
      2  CA        10.5920   46.8030  107.5820 C.3   189  ALA189      0.1562
      3  C          9.0740   46.7530  107.4900 C.2   189  ALA189      0.2260
      4  O          8.5230   46.8270  106.3880 O.2   189  ALA189     -0.2867
      5  CB        11.1740   45.3930  107.6720 C.3   189  ALA189      0.0290
      6  N          7.6220   50.2920  106.4750 N.3   192  LEU192     -0.1231
      7  CA         7.7940   50.5280  105.0330 C.3   192  LEU192      0.1693
      8  C          6.8170   49.6950  104.2150 C.2   192  LEU192      0.2592
      9  O          6.2180   50.1970  103.2540 O.2   192  LEU192     -0.2718
     10  CB         9.2300   50.2160  104.6150 C.3   192  LEU192      0.0284
     11  CG        10.2910   51.2200  105.0650 C.3   192  LEU192      0.0019
     12  CD1       11.6750   50.6120  104.9340 C.3   192  LEU192      0.0001
     13  CD2       10.1840   52.5230  104.2440 C.3   192  LEU192      0.0001
     14  N          6.6380   48.4230  104.5820 N.am  193  ASN193     -0.1974
     15  CA         5.6680   47.5860  103.8800 C.3   193  ASN193      0.1688
     16  C          4.2730   48.1840  103.9660 C.2   193  ASN193      0.2292
     17  O          3.4880   48.0910  103.0150 O.2   193  ASN193     -0.2864
     18  CB         5.6740   46.1710  104.4640 C.3   193  ASN193      0.1181
     19  CG         4.7650   45.2320  103.7070 C.2   193  ASN193      0.2629
     20  OD1        4.9430   45.0030  102.5030 O.2   193  ASN193     -0.2716
     21  ND2        3.7900   44.6640  104.4050 N.am  193  ASN193     -0.0877
     22  N          3.5600   51.4910  104.3320 N.3   195  LEU195     -0.1231
     23  CA         3.5690   52.6670  103.4550 C.3   195  LEU195      0.1693
     24  C          3.3410   52.2670  101.9890 C.2   195  LEU195      0.2592
     25  O          2.5590   52.8870  101.2700 O.2   195  LEU195     -0.2718
     26  CB         4.9030   53.3850  103.6230 C.3   195  LEU195      0.0284
     27  CG         5.2250   54.5040  102.5920 C.3   195  LEU195      0.0019
     28  CD1        4.1730   55.5950  102.6460 C.3   195  LEU195      0.0001
     29  CD2        6.5790   55.0850  102.8060 C.3   195  LEU195      0.0001
     30  N          4.0150   51.2110  101.5590 N.am  196  PHE196     -0.1976
     31  CA         3.8490   50.7470  100.1740 C.3   196  PHE196      0.1639
     32  C          2.4230   50.2830   99.9170 C.2   196  PHE196      0.2290
     33  O          1.8440   50.5650   98.8630 O.2   196  PHE196     -0.2864
     34  CB         4.8670   49.6420   99.8790 C.3   196  PHE196      0.0560
     35  CG         6.3240   50.0960   99.9830 C.ar  196  PHE196     -0.0200
     36  CD1        6.6690   51.4510   99.8760 C.ar  196  PHE196     -0.0042
     37  CD2        7.3540   49.1580  100.1730 C.ar  196  PHE196     -0.0042
     38  CE1        8.0080   51.8740   99.9810 C.ar  196  PHE196     -0.0003
     39  CE2        8.7010   49.5610  100.2730 C.ar  196  PHE196     -0.0003
     40  CZ         9.0240   50.9300  100.1700 C.ar  196  PHE196     -0.0000
     41  N          0.4200   53.4380   99.3890 N.3   199  ARG199     -0.1245
     42  CA         0.7210   53.9640   98.0430 C.3   199  ARG199      0.1563
     43  C         -0.0200   53.1690   96.9610 C.2   199  ARG199      0.2260
     44  O         -0.6640   53.7420   96.0670 O.2   199  ARG199     -0.2867
     45  CB         2.2220   53.9040   97.8090 C.3   199  ARG199      0.0307
     46  CG         3.0650   54.9980   98.4370 C.3   199  ARG199      0.0489
     47  CD         4.5340   54.7790   98.0810 C.3   199  ARG199      0.2205
     48  NE         5.4070   55.8710   98.4830 N.pl3 199  ARG199     -0.0865
     49  CZ         6.6160   56.1040   97.9960 C.cat 199  ARG199      0.5346
     50  NH1        7.1220   55.3280   97.0440 N.pl3 199  ARG199      0.1354
     51  NH2        7.3100   57.1530   98.4250 N.pl3 199  ARG199      0.1354
     52  N         11.5290   59.6680  100.2150 N.3   232  LEU232     -0.1245
     53  CA        11.7010   58.6190   99.2110 C.3   232  LEU232      0.1561
     54  C         11.2590   59.0890   97.8220 C.2   232  LEU232      0.2260
     55  O         11.9210   58.7870   96.8250 O.2   232  LEU232     -0.2867
     56  CB        10.9380   57.3620   99.6550 C.3   232  LEU232      0.0270
     57  CG        11.5370   56.6210  100.8630 C.3   232  LEU232      0.0019
     58  CD1       10.5460   55.5850  101.4460 C.3   232  LEU232      0.0001
     59  CD2       12.8660   55.9420  100.4940 C.3   232  LEU232      0.0001
     60  N         16.7260   52.4490  104.3770 N.3   276  GLU276     -0.1231
     61  CA        16.3640   51.0890  103.9750 C.3   276  GLU276      0.1699
     62  C         15.3840   51.0920  102.8140 C.2   276  GLU276      0.2592
     63  O         15.4530   50.2270  101.9330 O.2   276  GLU276     -0.2718
     64  CB        15.7750   50.3170  105.1600 C.3   276  GLU276      0.0402
     65  CG        15.5530   48.8270  104.8870 C.3   276  GLU276      0.1161
     66  CD        16.8340   48.1050  104.5360 C.2   276  GLU276      0.3649
     67  OE1       17.9040   48.5210  105.0270 O.co2 276  GLU276     -0.2457
     68  OE2       16.7690   47.1320  103.7610 O.co2 276  GLU276     -0.2457
     69  N         14.4700   52.0470  102.7960 N.am  277  GLY277     -0.1957
     70  CA        13.4880   52.0780  101.7180 C.3   277  GLY277      0.1869
     71  C         14.1240   52.3410  100.3640 C.2   277  GLY277      0.2309
     72  O         13.6090   51.8600   99.3430 O.2   277  GLY277     -0.2863
     73  N         15.2470   49.1480   98.3760 N.3   280  PHE280     -0.1227
     74  CA        14.1570   48.3310   97.8930 C.3   280  PHE280      0.1736
     75  C         13.5570   48.9070   96.6360 C.2   280  PHE280      0.2595
     76  O         12.9470   48.1800   95.8440 O.2   280  PHE280     -0.2718
     77  CB        13.0850   48.2510   98.9640 C.3   280  PHE280      0.0547
     78  CG        12.1620   47.1270   98.7750 C.ar  280  PHE280     -0.0202
     79  CD1       12.5840   45.8430   99.0220 C.ar  280  PHE280     -0.0042
     80  CD2       10.8810   47.3400   98.3230 C.ar  280  PHE280     -0.0042
     81  CE1       11.7360   44.7880   98.8380 C.ar  280  PHE280     -0.0003
     82  CE2       10.0280   46.2950   98.1380 C.ar  280  PHE280     -0.0003
     83  CZ        10.4540   45.0130   98.3960 C.ar  280  PHE280     -0.0000
     84  N         13.6950   50.2130   96.4550 N.am  281  ILE281     -0.1980
     85  CA        13.1820   50.8530   95.2580 C.3   281  ILE281      0.1595
     86  C         13.9540   50.3690   94.0540 C.2   281  ILE281      0.2287
     87  O         13.3740   49.9370   93.0510 O.2   281  ILE281     -0.2864
     88  CB        13.3010   52.3790   95.3980 C.3   281  ILE281      0.0276
     89  CG1       12.3930   52.8450   96.5250 C.3   281  ILE281      0.0022
     90  CG2       13.0080   53.1140   94.0580 C.3   281  ILE281      0.0022
     91  CD1       12.5700   54.2990   96.8890 C.3   281  ILE281      0.0001
@<TRIPOS>BOND
     1    87    86    2
     2    86    85    1
     3    90    88    1
     4    85    88    1
     5    85    84    1
     6    88    89    1
     7    76    75    2
     8    44    43    2
     9    84    75   am
    10    89    91    1
    11    75    74    1
    12    55    54    2
    13    43    42    1
    14    50    49    1
    15    45    42    1
    16    45    46    1
    17    54    53    1
    18    74    73    1
    19    74    77    1
    20    49    51    1
    21    49    48    2
    22    42    41    1
    23    47    46    1
    24    47    48    1
    25    82    80   ar
    26    82    83   ar
    27    80    78   ar
    28    83    81   ar
    29    78    77    1
    30    78    79   ar
    31    81    79   ar
    32    33    32    2
    33    53    56    1
    34    53    52    1
    35    72    71    2
    36    56    57    1
    37    36    38   ar
    38    36    35   ar
    39    34    35    1
    40    34    31    1
    41    32    31    1
    42    38    40   ar
    43    35    37   ar
    44    40    39   ar
    45    37    39   ar
    46    31    30    1
    47    71    70    1
    48    59    57    1
    49    57    58    1
    50    25    24    2
    51    30    24   am
    52    70    69    1
    53    63    62    2
    54    24    23    1
    55    20    19    2
    56    27    28    1
    57    27    29    1
    58    27    26    1
    59    69    62   am
    60    62    61    1
    61    17    16    2
    62     9     8    2
    63    23    26    1
    64    23    22    1
    65    19    21   am
    66    19    18    1
    67    68    66   ar
    68    15    16    1
    69    15    18    1
    70    15    14    1
    71    61    60    1
    72    61    64    1
    73     8    14   am
    74     8     7    1
    75    13    11    1
    76    66    65    1
    77    66    67   ar
    78    10     7    1
    79    10    11    1
    80    65    64    1
    81    12    11    1
    82     7     6    1
    83     4     3    2
    84     3     2    1
    85     2     5    1
    86     2     1    1
