@<TRIPOS>MOLECULE
tmp/5qfcA00.pdb
 101 95 0 0 0
SMALL
GASTEIGER

@<TRIPOS>ATOM
      1  N        -70.9300   15.1460   -3.9920 N.3     2  GLU2       -0.1231
      2  CA       -69.9980   16.2000   -4.3490 C.3     2  GLU2        0.1699
      3  C        -69.2390   16.6230   -3.0880 C.2     2  GLU2        0.2592
      4  O        -69.5200   16.1630   -1.9740 O.2     2  GLU2       -0.2718
      5  CB       -70.7390   17.3820   -4.9850 C.3     2  GLU2        0.0402
      6  CG       -69.8600   18.5960   -5.3080 C.3     2  GLU2        0.1161
      7  CD       -70.6440   19.8160   -5.7000 C.2     2  GLU2        0.3649
      8  OE1      -70.4210   20.3310   -6.8180 O.co2   2  GLU2       -0.2457
      9  OE2      -71.4720   20.2840   -4.8890 O.co2   2  GLU2       -0.2457
     10  N        -68.2610   17.5000   -3.2670 N.am    3  MET3       -0.1965
     11  CA       -67.4350   17.9340   -2.1530 C.3     3  MET3        0.1736
     12  C        -68.0270   19.0970   -1.3590 C.2     3  MET3        0.2616
     13  O        -68.1280   19.0070   -0.1310 O.2     3  MET3       -0.2715
     14  CB       -66.0570   18.3030   -2.6770 C.3     3  MET3        0.0427
     15  CG       -65.0350   18.5150   -1.5850 C.3     3  MET3        0.0599
     16  SD       -63.3850   18.6830   -2.2540 S.3     3  MET3       -0.1393
     17  CE       -63.7270   19.3910   -3.8590 C.3     3  MET3        0.0692
     18  N        -68.3770   20.2050   -2.0210 N.am    4  GLU4       -0.1977
     19  CA       -68.7790   21.4060   -1.2870 C.3     4  GLU4        0.1602
     20  C        -70.0560   21.1910   -0.4870 C.2     4  GLU4        0.2287
     21  O        -70.2580   21.8400    0.5480 O.2     4  GLU4       -0.2864
     22  CB       -68.9700   22.5890   -2.2360 C.3     4  GLU4        0.0415
     23  CG       -69.5710   23.8180   -1.5530 C.3     4  GLU4        0.1163
     24  CD       -69.0170   25.1360   -2.0840 C.2     4  GLU4        0.3649
     25  OE1      -68.7750   25.2320   -3.3080 O.co2   4  GLU4       -0.2457
     26  OE2      -68.8170   26.0770   -1.2740 O.co2   4  GLU4       -0.2457
     27  N        -56.7540   18.6630   -6.7430 N.3   232  LEU232     -0.1245
     28  CA       -56.8950   19.7190   -7.7560 C.3   232  LEU232      0.1561
     29  C        -56.4320   19.2700   -9.1430 C.2   232  LEU232      0.2260
     30  O        -57.0450   19.6370  -10.1440 O.2   232  LEU232     -0.2867
     31  CB       -56.1300   20.9640   -7.3050 C.3   232  LEU232      0.0270
     32  CG       -56.7310   21.6550   -6.0860 C.3   232  LEU232      0.0019
     33  CD1      -55.7270   22.7000   -5.5200 C.3   232  LEU232      0.0001
     34  CD2      -58.0590   22.2960   -6.4070 C.3   232  LEU232      0.0001
     35  N        -59.1370   17.1200  -10.6500 N.3   235  MET235     -0.1230
     36  CA       -60.2970   17.9030  -11.0770 C.3   235  MET235      0.1702
     37  C        -60.0600   18.5570  -12.4350 C.2   235  MET235      0.2592
     38  O        -61.0190   18.7740  -13.1800 O.2   235  MET235     -0.2718
     39  CB       -60.6640   18.9590  -10.0370 C.3   235  MET235      0.0401
     40  CG       -61.2550   18.3630   -8.7970 C.3   235  MET235      0.0596
     41  SD       -61.5880   19.5610   -7.4570 S.3   235  MET235     -0.1393
     42  CE       -63.1320   20.2310   -8.0150 C.3   235  MET235      0.0692
     43  N        -58.8070   18.8410  -12.7850 N.am  236  ASP236     -0.1974
     44  CA       -58.4590   19.3900  -14.1050 C.3   236  ASP236      0.1709
     45  C        -58.4260   18.3340  -15.2060 C.2   236  ASP236      0.2293
     46  O        -58.6450   18.6550  -16.3790 O.2   236  ASP236     -0.2864
     47  CB       -57.0770   20.0430  -14.0630 C.3   236  ASP236      0.1436
     48  CG       -57.1220   21.5240  -13.7560 C.2   236  ASP236      0.3671
     49  OD1      -58.2150   22.1300  -13.8160 O.co2 236  ASP236     -0.2456
     50  OD2      -56.0450   22.0800  -13.4550 O.co2 236  ASP236     -0.2456
     51  N        -65.4260   16.8600  -12.8890 N.3   241  PRO241     -0.2102
     52  CA       -64.6410   17.1820  -11.6760 C.3   241  PRO241      0.1504
     53  C        -65.3370   16.8290  -10.3740 C.2   241  PRO241      0.2576
     54  O        -64.6540   16.5400   -9.3890 O.2   241  PRO241     -0.2718
     55  CB       -64.4170   18.6920  -11.7970 C.3   241  PRO241      0.0282
     56  CG       -64.5360   18.9750  -13.2410 C.3   241  PRO241      0.0208
     57  CD       -65.5650   18.0240  -13.7680 C.3   241  PRO241      0.0893
     58  N        -66.6680   16.8330  -10.3400 N.am  242  SER242     -0.1953
     59  CA       -67.3840   16.5050   -9.1130 C.3   242  SER242      0.1924
     60  C        -67.2670   15.0330   -8.7430 C.2   242  SER242      0.2314
     61  O        -67.7480   14.6420   -7.6760 O.2   242  SER242     -0.2863
     62  CB       -68.8670   16.8690   -9.2470 C.3   242  SER242      0.2116
     63  OG       -69.5410   15.9370  -10.0820 O.3   242  SER242     -0.2180
     64  N        -61.7700   22.9760   -2.1600 N.3   275  ILE275     -0.1245
     65  CA       -62.9750   23.6900   -2.5840 C.3   275  ILE275      0.1561
     66  C        -62.6480   25.0880   -3.0880 C.2   275  ILE275      0.2260
     67  O        -63.1080   25.5030   -4.1520 O.2   275  ILE275     -0.2867
     68  CB       -63.9730   23.7350   -1.4240 C.3   275  ILE275      0.0252
     69  CG1      -64.4970   22.3400   -1.1620 C.3   275  ILE275      0.0019
     70  CG2      -65.1080   24.6480   -1.7370 C.3   275  ILE275      0.0019
     71  CD1      -65.2580   22.2130    0.0930 C.3   275  ILE275      0.0001
     72  N        -60.4370   25.0750   -6.3110 N.3   278  ALA278     -0.1231
     73  CA       -61.0790   24.7140   -7.5720 C.3   278  ALA278      0.1694
     74  C        -61.7470   25.9130   -8.2430 C.2   278  ALA278      0.2591
     75  O        -61.9640   25.8900   -9.4500 O.2   278  ALA278     -0.2718
     76  CB       -62.1060   23.6040   -7.3430 C.3   278  ALA278      0.0304
     77  N        -62.0470   26.9690   -7.4930 N.am  279  LYS279     -0.1980
     78  CA       -62.6830   28.1540   -8.0630 C.3   279  LYS279      0.1596
     79  C        -61.6590   29.0720   -8.6910 C.2   279  LYS279      0.2287
     80  O        -61.9360   29.7340   -9.6870 O.2   279  LYS279     -0.2864
     81  CB       -63.4430   28.8970   -6.9720 C.3   279  LYS279      0.0298
     82  CG       -64.3710   27.9950   -6.2040 C.3   279  LYS279      0.0038
     83  CD       -64.8540   28.6480   -4.9420 C.3   279  LYS279      0.0206
     84  CE       -66.2010   28.0760   -4.5180 C.3   279  LYS279      0.1093
     85  NZ       -66.4790   28.2850   -3.0520 N.3   279  LYS279     -0.1314
     86  N        -58.8280   28.0880  -10.0460 N.3   281  ILE281     -0.1231
     87  CA       -58.2070   27.4630  -11.2040 C.3   281  ILE281      0.1692
     88  C        -58.8940   27.9340  -12.4760 C.2   281  ILE281      0.2591
     89  O        -58.2480   28.1500  -13.5110 O.2   281  ILE281     -0.2718
     90  CB       -58.2480   25.9290  -11.0530 C.3   281  ILE281      0.0266
     91  CG1      -57.0760   25.2750  -11.7800 C.3   281  ILE281      0.0019
     92  CG2      -59.5690   25.3560  -11.5540 C.3   281  ILE281      0.0020
     93  CD1      -56.1400   24.5480  -10.8430 C.3   281  ILE281      0.0001
     94  N        -60.2040   28.1330  -12.4090 N.am  282  MET282     -0.1979
     95  CA       -60.9740   28.5070  -13.5840 C.3   282  MET282      0.1605
     96  C        -61.2190   30.0160  -13.6320 C.2   282  MET282      0.2287
     97  O        -61.2940   30.6120  -14.7120 O.2   282  MET282     -0.2864
     98  CB       -62.3040   27.7550  -13.5980 C.3   282  MET282      0.0413
     99  CG       -62.1810   26.2720  -13.2550 C.3   282  MET282      0.0598
    100  SD       -63.7500   25.3890  -13.3600 S.3   282  MET282     -0.1393
    101  CE       -63.1960   23.6810  -13.1640 C.3   282  MET282      0.0692
@<TRIPOS>BOND
     1    46    45    2
     2    45    44    1
     3    97    96    2
     4    44    47    1
     5    44    43    1
     6    47    48    1
     7    49    48   ar
     8    57    56    1
     9    57    51    1
    10    48    50   ar
    11    96    95    1
    12    98    95    1
    13    98    99    1
    14    95    94    1
    15    89    88    2
    16   100    99    1
    17   100   101    1
    18    56    55    1
    19    38    37    2
    20    51    52    1
    21    43    37   am
    22    88    94   am
    23    88    87    1
    24    37    36    1
    25    55    52    1
    26    91    90    1
    27    91    93    1
    28    52    53    1
    29    92    90    1
    30    87    90    1
    31    87    86    1
    32    36    35    1
    33    36    39    1
    34    53    58   am
    35    53    54    2
    36    58    59    1
    37    30    29    2
    38    63    62    1
    39    39    40    1
    40    80    79    2
    41    75    74    2
    42    62    59    1
    43    29    28    1
    44    59    60    1
    45    40    41    1
    46    60    61    2
    47    79    78    1
    48    74    73    1
    49    74    77   am
    50    78    77    1
    51    78    81    1
    52    42    41    1
    53    28    31    1
    54    28    27    1
    55    73    76    1
    56    73    72    1
    57    31    32    1
    58    81    82    1
    59     8     7   ar
    60    34    32    1
    61    82    83    1
    62    32    33    1
    63     7     6    1
    64     7     9   ar
    65     6     5    1
    66     5     2    1
    67    83    84    1
    68    84    85    1
    69     2     1    1
    70     2     3    1
    71    67    66    2
    72    17    16    1
    73    25    24   ar
    74    10     3   am
    75    10    11    1
    76    66    65    1
    77     3     4    2
    78    14    11    1
    79    14    15    1
    80    65    64    1
    81    65    68    1
    82    16    15    1
    83    22    23    1
    84    22    19    1
    85    11    12    1
    86    24    23    1
    87    24    26   ar
    88    18    12   am
    89    18    19    1
    90    70    68    1
    91    68    69    1
    92    12    13    2
    93    19    20    1
    94    69    71    1
    95    20    21    2
