@<TRIPOS>MOLECULE
tmp/5qfeA00.pdb
 91 86 0 0 0
SMALL
GASTEIGER

@<TRIPOS>ATOM
      1  N         43.2040  -13.8730  -15.6970 N.3   189  ALA189     -0.1245
      2  CA        44.1650  -13.8900  -16.7990 C.3   189  ALA189      0.1562
      3  C         44.9650  -15.1870  -16.8600 C.2   189  ALA189      0.2260
      4  O         45.1500  -15.7480  -17.9390 O.2   189  ALA189     -0.2867
      5  CB        45.1010  -12.6790  -16.7050 C.3   189  ALA189      0.0290
      6  N         42.6680  -18.1540  -18.0060 N.3   192  LEU192     -0.1231
      7  CA        42.3950  -18.0870  -19.4560 C.3   192  LEU192      0.1693
      8  C         43.6220  -18.4800  -20.2690 C.2   192  LEU192      0.2592
      9  O         43.5070  -19.2430  -21.2290 O.2   192  LEU192     -0.2718
     10  CB        41.9400  -16.6750  -19.8610 C.3   192  LEU192      0.0284
     11  CG        40.5220  -16.2730  -19.4650 C.3   192  LEU192      0.0019
     12  CD1       40.3750  -14.7690  -19.5880 C.3   192  LEU192      0.0001
     13  CD2       39.4750  -16.9910  -20.3120 C.3   192  LEU192      0.0001
     14  N         44.8020  -17.9920  -19.9000 N.am  193  ASN193     -0.1974
     15  CA        46.0220  -18.4280  -20.5750 C.3   193  ASN193      0.1688
     16  C         46.1640  -19.9460  -20.5300 C.2   193  ASN193      0.2292
     17  O         46.5380  -20.5750  -21.5270 O.2   193  ASN193     -0.2864
     18  CB        47.2310  -17.7500  -19.9300 C.3   193  ASN193      0.1181
     19  CG        48.5220  -18.0070  -20.6830 C.2   193  ASN193      0.2629
     20  OD1       48.6550  -17.6460  -21.8530 O.2   193  ASN193     -0.2716
     21  ND2       49.4900  -18.6100  -20.0060 N.am  193  ASN193     -0.0877
     22  N         43.6270  -22.1830  -20.1980 N.3   195  LEU195     -0.1231
     23  CA        42.6090  -22.7500  -21.0960 C.3   195  LEU195      0.1693
     24  C         43.0980  -22.7320  -22.5480 C.2   195  LEU195      0.2592
     25  O         42.9610  -23.7320  -23.2690 O.2   195  LEU195     -0.2718
     26  CB        41.2970  -21.9730  -20.9690 C.3   195  LEU195      0.0284
     27  CG        40.2440  -22.2580  -22.0630 C.3   195  LEU195      0.0019
     28  CD1       39.8410  -23.7200  -22.0550 C.3   195  LEU195      0.0001
     29  CD2       39.0440  -21.3660  -21.8650 C.3   195  LEU195      0.0001
     30  N         43.7010  -21.6280  -22.9610 N.am  196  PHE196     -0.1976
     31  CA        44.1860  -21.5120  -24.3340 C.3   196  PHE196      0.1639
     32  C         45.3130  -22.5030  -24.6100 C.2   196  PHE196      0.2290
     33  O         45.3910  -23.0600  -25.7040 O.2   196  PHE196     -0.2864
     34  CB        44.6230  -20.0690  -24.6140 C.3   196  PHE196      0.0560
     35  CG        43.5100  -19.0650  -24.5120 C.ar  196  PHE196     -0.0200
     36  CD1       42.1790  -19.4500  -24.6750 C.ar  196  PHE196     -0.0042
     37  CD2       43.7900  -17.7340  -24.2550 C.ar  196  PHE196     -0.0042
     38  CE1       41.1510  -18.5280  -24.5640 C.ar  196  PHE196     -0.0003
     39  CE2       42.7660  -16.7980  -24.1540 C.ar  196  PHE196     -0.0003
     40  CZ        41.4470  -17.1950  -24.3070 C.ar  196  PHE196     -0.0000
     41  N         43.6170  -25.8130  -25.2560 N.3   199  ARG199     -0.1231
     42  CA        43.0350  -25.7630  -26.6120 C.3   199  ARG199      0.1694
     43  C         44.1000  -25.9740  -27.6800 C.2   199  ARG199      0.2591
     44  O         43.9240  -26.7910  -28.5900 O.2   199  ARG199     -0.2718
     45  CB        42.3530  -24.4160  -26.8310 C.3   199  ARG199      0.0321
     46  CG        40.9430  -24.2780  -26.2740 C.3   199  ARG199      0.0489
     47  CD        40.3800  -22.9230  -26.6840 C.3   199  ARG199      0.2205
     48  NE        38.9880  -22.7460  -26.2680 N.pl3 199  ARG199     -0.0865
     49  CZ        38.1710  -21.8230  -26.7510 C.cat 199  ARG199      0.5346
     50  NH1       38.5920  -20.9660  -27.6900 N.pl3 199  ARG199      0.1354
     51  NH2       36.9280  -21.7650  -26.3140 N.pl3 199  ARG199      0.1354
     52  N         45.2110  -25.2380  -27.5750 N.am  200  GLU200     -0.1979
     53  CA        46.2480  -25.3000  -28.6080 C.3   200  GLU200      0.1602
     54  C         46.8610  -26.6830  -28.7540 C.2   200  GLU200      0.2287
     55  O         47.3740  -27.0060  -29.8260 O.2   200  GLU200     -0.2864
     56  CB        47.3390  -24.2850  -28.3000 C.3   200  GLU200      0.0415
     57  CG        46.9100  -22.8680  -28.4880 C.3   200  GLU200      0.1163
     58  CD        47.9740  -21.8810  -28.0760 C.2   200  GLU200      0.3649
     59  OE1       49.0850  -22.3230  -27.6830 O.co2 200  GLU200     -0.2457
     60  OE2       47.6890  -20.6670  -28.1460 O.co2 200  GLU200     -0.2457
     61  N         32.7130  -19.3160  -24.4580 N.3   232  LEU232     -0.1245
     62  CA        33.5700  -18.6500  -25.4500 C.3   232  LEU232      0.1561
     63  C         33.4160  -19.2530  -26.8490 C.2   232  LEU232      0.2260
     64  O         33.3860  -18.5130  -27.8430 O.2   232  LEU232     -0.2867
     65  CB        35.0260  -18.6900  -24.9890 C.3   232  LEU232      0.0270
     66  CG        35.3190  -17.8120  -23.7870 C.3   232  LEU232      0.0019
     67  CD1       36.7140  -18.1470  -23.2090 C.3   232  LEU232      0.0001
     68  CD2       35.2010  -16.3270  -24.1100 C.3   232  LEU232      0.0001
     69  N         37.8070  -12.9890  -21.6350 N.3   277  GLY277     -0.1225
     70  CA        38.1980  -13.8670  -22.7060 C.3   277  GLY277      0.1811
     71  C         37.6110  -13.4470  -24.0360 C.2   277  GLY277      0.2280
     72  O         38.2400  -13.6290  -25.0730 O.2   277  GLY277     -0.2866
     73  N         39.8680  -10.8750  -25.8490 N.3   280  PHE280     -0.1227
     74  CA        41.1440  -11.3340  -26.3470 C.3   280  PHE280      0.1736
     75  C         40.9790  -12.1420  -27.6100 C.2   280  PHE280      0.2595
     76  O         41.8850  -12.1660  -28.4440 O.2   280  PHE280     -0.2718
     77  CB        41.8240  -12.1840  -25.2880 C.3   280  PHE280      0.0547
     78  CG        43.2820  -12.3390  -25.4930 C.ar  280  PHE280     -0.0202
     79  CD1       44.1460  -11.2910  -25.2240 C.ar  280  PHE280     -0.0042
     80  CD2       43.7960  -13.5380  -25.9420 C.ar  280  PHE280     -0.0042
     81  CE1       45.4990  -11.4410  -25.4020 C.ar  280  PHE280     -0.0003
     82  CE2       45.1450  -13.6960  -26.1210 C.ar  280  PHE280     -0.0003
     83  CZ        46.0010  -12.6450  -25.8530 C.ar  280  PHE280     -0.0000
     84  N         39.8350  -12.8110  -27.7520 N.am  281  ILE281     -0.1980
     85  CA        39.5920  -13.6530  -28.9150 C.3   281  ILE281      0.1595
     86  C         39.6280  -12.8180  -30.1840 C.2   281  ILE281      0.2287
     87  O         40.0710  -13.2910  -31.2380 O.2   281  ILE281     -0.2864
     88  CB        38.2490  -14.3960  -28.7480 C.3   281  ILE281      0.0276
     89  CG1       38.2340  -15.6900  -29.5580 C.3   281  ILE281      0.0022
     90  CG2       37.0750  -13.5160  -29.1620 C.3   281  ILE281      0.0022
     91  CD1       38.0300  -16.9160  -28.6990 C.3   281  ILE281      0.0001
@<TRIPOS>BOND
     1    87    86    2
     2    86    85    1
     3    55    54    2
     4    89    88    1
     5    89    91    1
     6    90    88    1
     7    85    88    1
     8    85    84    1
     9    54    53    1
    10    53    56    1
    11    53    52    1
    12    44    43    2
    13    57    56    1
    14    57    58    1
    15    76    75    2
    16    60    58   ar
    17    58    59   ar
    18    64    63    2
    19    84    75   am
    20    50    49    1
    21    43    52   am
    22    43    42    1
    23    75    74    1
    24    63    62    1
    25    45    42    1
    26    45    46    1
    27    49    51    1
    28    49    48    2
    29    47    46    1
    30    47    48    1
    31    42    41    1
    32    74    73    1
    33    74    77    1
    34    82    80   ar
    35    82    83   ar
    36    80    78   ar
    37    83    81   ar
    38    33    32    2
    39    78    77    1
    40    78    79   ar
    41    62    65    1
    42    62    61    1
    43    81    79   ar
    44    72    71    2
    45    65    66    1
    46    36    38   ar
    47    36    35   ar
    48    34    35    1
    49    34    31    1
    50    32    31    1
    51    38    40   ar
    52    35    37   ar
    53    31    30    1
    54    40    39   ar
    55    37    39   ar
    56    68    66    1
    57    71    70    1
    58    66    67    1
    59    25    24    2
    60    30    24   am
    61    70    69    1
    62    24    23    1
    63    27    28    1
    64    27    29    1
    65    27    26    1
    66    20    19    2
    67    17    16    2
    68     9     8    2
    69    23    26    1
    70    23    22    1
    71    19    21   am
    72    19    18    1
    73    15    16    1
    74    15    18    1
    75    15    14    1
    76    13    11    1
    77     8    14   am
    78     8     7    1
    79    10    11    1
    80    10     7    1
    81    12    11    1
    82     7     6    1
    83     4     3    2
    84     3     2    1
    85     2     5    1
    86     2     1    1
