@<TRIPOS>MOLECULE
tmp/5qffA00.pdb
 90 85 0 0 0
SMALL
GASTEIGER

@<TRIPOS>ATOM
      1  N         43.2010  -13.9060  -15.7190 N.3   189  ALA189     -0.1245
      2  CA        44.1480  -13.9120  -16.8260 C.3   189  ALA189      0.1562
      3  C         44.9430  -15.2080  -16.9020 C.2   189  ALA189      0.2260
      4  O         45.1230  -15.7560  -17.9920 O.2   189  ALA189     -0.2867
      5  CB        45.0830  -12.7000  -16.7280 C.3   189  ALA189      0.0290
      6  N         42.6310  -18.1810  -18.0270 N.3   192  LEU192     -0.1231
      7  CA        42.3610  -18.1140  -19.4750 C.3   192  LEU192      0.1693
      8  C         43.5780  -18.5180  -20.2980 C.2   192  LEU192      0.2592
      9  O         43.4610  -19.2780  -21.2540 O.2   192  LEU192     -0.2718
     10  CB        41.9050  -16.6990  -19.8750 C.3   192  LEU192      0.0284
     11  CG        40.4940  -16.2870  -19.4760 C.3   192  LEU192      0.0019
     12  CD1       40.3470  -14.7850  -19.5960 C.3   192  LEU192      0.0001
     13  CD2       39.4530  -16.9990  -20.3250 C.3   192  LEU192      0.0001
     14  N         44.7710  -18.0320  -19.9210 N.am  193  ASN193     -0.1974
     15  CA        45.9930  -18.4600  -20.5980 C.3   193  ASN193      0.1688
     16  C         46.1330  -19.9780  -20.5670 C.2   193  ASN193      0.2292
     17  O         46.5040  -20.6020  -21.5700 O.2   193  ASN193     -0.2864
     18  CB        47.2030  -17.7880  -19.9400 C.3   193  ASN193      0.1181
     19  CG        48.4980  -18.0290  -20.6980 C.2   193  ASN193      0.2629
     20  OD1       48.6230  -17.6690  -21.8670 O.2   193  ASN193     -0.2716
     21  ND2       49.4740  -18.6210  -20.0270 N.am  193  ASN193     -0.0877
     22  N         43.6680  -21.6710  -22.9840 N.3   196  PHE196     -0.1227
     23  CA        44.1500  -21.5590  -24.3600 C.3   196  PHE196      0.1736
     24  C         45.2750  -22.5560  -24.6420 C.2   196  PHE196      0.2595
     25  O         45.3510  -23.1150  -25.7360 O.2   196  PHE196     -0.2718
     26  CB        44.5940  -20.1150  -24.6430 C.3   196  PHE196      0.0547
     27  CG        43.4860  -19.1000  -24.5340 C.ar  196  PHE196     -0.0202
     28  CD1       42.1550  -19.4740  -24.6930 C.ar  196  PHE196     -0.0042
     29  CD2       43.7760  -17.7650  -24.2690 C.ar  196  PHE196     -0.0042
     30  CE1       41.1320  -18.5430  -24.5830 C.ar  196  PHE196     -0.0003
     31  CE2       42.7610  -16.8210  -24.1630 C.ar  196  PHE196     -0.0003
     32  CZ        41.4360  -17.2100  -24.3200 C.ar  196  PHE196     -0.0000
     33  N         46.1330  -22.8330  -23.6520 N.am  197  LYS197     -0.1980
     34  CA        47.1810  -23.8470  -23.8400 C.3   197  LYS197      0.1596
     35  C         46.5920  -25.2470  -24.0130 C.2   197  LYS197      0.2287
     36  O         47.0790  -26.0380  -24.8340 O.2   197  LYS197     -0.2864
     37  CB        48.1710  -23.8370  -22.6590 C.3   197  LYS197      0.0298
     38  CG        48.9480  -22.5390  -22.5080 C.3   197  LYS197      0.0038
     39  CD        49.8880  -22.2730  -23.6960 C.3   197  LYS197      0.0206
     40  CE        50.7610  -21.0370  -23.4390 C.3   197  LYS197      0.1093
     41  NZ        51.6020  -20.6620  -24.6110 N.3   197  LYS197     -0.1314
     42  N         45.1810  -25.2960  -27.5960 N.3   200  GLU200     -0.1245
     43  CA        46.2210  -25.3500  -28.6190 C.3   200  GLU200      0.1567
     44  C         46.8360  -26.7320  -28.7640 C.2   200  GLU200      0.2260
     45  O         47.3430  -27.0620  -29.8400 O.2   200  GLU200     -0.2867
     46  CB        47.3020  -24.3250  -28.2960 C.3   200  GLU200      0.0388
     47  CG        46.8750  -22.8990  -28.4950 C.3   200  GLU200      0.1160
     48  CD        47.9450  -21.9040  -28.0860 C.2   200  GLU200      0.3649
     49  OE1       49.0710  -22.3350  -27.7240 O.co2 200  GLU200     -0.2457
     50  OE2       47.6490  -20.6930  -28.1330 O.co2 200  GLU200     -0.2457
     51  N         32.6900  -19.3080  -24.4630 N.3   232  LEU232     -0.1245
     52  CA        33.5420  -18.6430  -25.4610 C.3   232  LEU232      0.1561
     53  C         33.3740  -19.2390  -26.8650 C.2   232  LEU232      0.2260
     54  O         33.3390  -18.4990  -27.8590 O.2   232  LEU232     -0.2867
     55  CB        35.0000  -18.7010  -24.9980 C.3   232  LEU232      0.0270
     56  CG        35.2990  -17.8270  -23.7840 C.3   232  LEU232      0.0019
     57  CD1       36.6970  -18.1640  -23.2150 C.3   232  LEU232      0.0001
     58  CD2       35.1950  -16.3460  -24.1030 C.3   232  LEU232      0.0001
     59  N         36.3440  -11.3000  -20.0390 N.3   276  GLU276     -0.1231
     60  CA        37.6950  -10.8910  -20.4260 C.3   276  GLU276      0.1699
     61  C         38.1810  -11.7040  -21.6130 C.2   276  GLU276      0.2592
     62  O         38.9120  -11.1970  -22.4850 O.2   276  GLU276     -0.2718
     63  CB        38.6370  -11.0720  -19.2420 C.3   276  GLU276      0.0402
     64  CG        40.0240  -10.5420  -19.5000 C.3   276  GLU276      0.1161
     65  CD        40.0190   -9.0630  -19.8280 C.2   276  GLU276      0.3649
     66  OE1       39.0780   -8.3600  -19.4000 O.co2 276  GLU276     -0.2457
     67  OE2       40.9480   -8.6090  -20.5240 O.co2 276  GLU276     -0.2457
     68  N         37.8040  -12.9600  -21.6330 N.am  277  GLY277     -0.1957
     69  CA        38.2000  -13.8360  -22.7070 C.3   277  GLY277      0.1869
     70  C         37.6280  -13.4070  -24.0410 C.2   277  GLY277      0.2309
     71  O         38.2730  -13.5710  -25.0720 O.2   277  GLY277     -0.2863
     72  N         39.8760  -10.8580  -25.8460 N.3   280  PHE280     -0.1227
     73  CA        41.1540  -11.3120  -26.3400 C.3   280  PHE280      0.1736
     74  C         40.9940  -12.1140  -27.6050 C.2   280  PHE280      0.2595
     75  O         41.9060  -12.1400  -28.4360 O.2   280  PHE280     -0.2718
     76  CB        41.8270  -12.1710  -25.2870 C.3   280  PHE280      0.0547
     77  CG        43.2810  -12.3370  -25.4990 C.ar  280  PHE280     -0.0202
     78  CD1       44.1490  -11.2950  -25.2360 C.ar  280  PHE280     -0.0042
     79  CD2       43.7860  -13.5390  -25.9530 C.ar  280  PHE280     -0.0042
     80  CE1       45.5010  -11.4510  -25.4190 C.ar  280  PHE280     -0.0003
     81  CE2       45.1340  -13.7040  -26.1360 C.ar  280  PHE280     -0.0003
     82  CZ        45.9960  -12.6560  -25.8730 C.ar  280  PHE280     -0.0000
     83  N         39.8510  -12.7830  -27.7500 N.am  281  ILE281     -0.1980
     84  CA        39.6230  -13.6410  -28.9010 C.3   281  ILE281      0.1595
     85  C         39.6500  -12.8170  -30.1770 C.2   281  ILE281      0.2287
     86  O         40.1000  -13.2920  -31.2290 O.2   281  ILE281     -0.2864
     87  CB        38.2920  -14.3960  -28.7220 C.3   281  ILE281      0.0276
     88  CG1       38.3000  -15.7140  -29.4940 C.3   281  ILE281      0.0022
     89  CG2       37.1080  -13.5330  -29.1590 C.3   281  ILE281      0.0022
     90  CD1       38.0940  -16.9240  -28.5990 C.3   281  ILE281      0.0001
@<TRIPOS>BOND
     1    86    85    2
     2    85    84    1
     3    45    44    2
     4    88    87    1
     5    88    90    1
     6    89    87    1
     7    84    87    1
     8    84    83    1
     9    44    43    1
    10    43    46    1
    11    43    42    1
    12    47    46    1
    13    47    48    1
    14    75    74    2
    15    50    48   ar
    16    48    49   ar
    17    54    53    2
    18    83    74   am
    19    74    73    1
    20    53    52    1
    21    73    72    1
    22    73    76    1
    23    81    79   ar
    24    81    82   ar
    25    79    77   ar
    26    82    80   ar
    27    25    24    2
    28    77    76    1
    29    77    78   ar
    30    52    55    1
    31    52    51    1
    32    80    78   ar
    33    71    70    2
    34    55    56    1
    35    36    35    2
    36    28    30   ar
    37    28    27   ar
    38    26    27    1
    39    26    23    1
    40    24    23    1
    41    24    33   am
    42    41    40    1
    43    30    32   ar
    44    27    29   ar
    45    23    22    1
    46    32    31   ar
    47    29    31   ar
    48    58    56    1
    49    70    69    1
    50    35    34    1
    51    34    33    1
    52    34    37    1
    53    56    57    1
    54    39    40    1
    55    39    38    1
    56    69    68    1
    57    37    38    1
    58    62    61    2
    59    20    19    2
    60    68    61   am
    61    61    60    1
    62    17    16    2
    63     9     8    2
    64    19    21   am
    65    19    18    1
    66    15    16    1
    67    15    18    1
    68    15    14    1
    69    67    65   ar
    70    60    59    1
    71    60    63    1
    72    13    11    1
    73     8    14   am
    74     8     7    1
    75    10    11    1
    76    10     7    1
    77    65    64    1
    78    65    66   ar
    79    12    11    1
    80    64    63    1
    81     7     6    1
    82     4     3    2
    83     3     2    1
    84     2     5    1
    85     2     1    1
