@<TRIPOS>MOLECULE
tmp/5qfjA00.pdb
 98 91 0 0 0
SMALL
GASTEIGER

@<TRIPOS>ATOM
      1  N        -28.3070   31.6090  -25.2610 N.3    74  MET74      -0.1230
      2  CA       -27.7120   30.3020  -25.6140 C.3    74  MET74       0.1702
      3  C        -27.4010   30.2960  -27.1240 C.2    74  MET74       0.2592
      4  O        -28.3180   30.2680  -27.9550 O.2    74  MET74      -0.2718
      5  CB       -28.6240   29.1500  -25.2060 C.3    74  MET74       0.0401
      6  CG       -28.9300   29.1190  -23.6820 C.3    74  MET74       0.0596
      7  SD       -27.4710   29.0990  -22.5870 S.3    74  MET74      -0.1393
      8  CE       -26.9530   27.4540  -22.8710 C.3    74  MET74       0.0692
      9  N        -26.1130   30.3380  -27.4620 N.am   75  GLU75      -0.1966
     10  CA       -25.7030   30.6480  -28.8220 C.3    75  GLU75       0.1733
     11  C        -25.9330   29.4720  -29.7710 C.2    75  GLU75       0.2616
     12  O        -26.5590   29.6290  -30.8190 O.2    75  GLU75      -0.2715
     13  CB       -24.2340   31.0960  -28.8100 C.3    75  GLU75       0.0429
     14  CG       -23.7370   31.5630  -30.1510 C.3    75  GLU75       0.1163
     15  CD       -22.3400   32.1860  -30.0950 C.2    75  GLU75       0.3649
     16  OE1      -21.5390   31.8560  -29.1860 O.co2  75  GLU75      -0.2457
     17  OE2      -22.0510   33.0280  -30.9700 O.co2  75  GLU75      -0.2457
     18  N        -25.4800   28.2750  -29.4150 N.am   76  GLU76      -0.1977
     19  CA       -25.6910   27.1270  -30.3050 C.3    76  GLU76       0.1602
     20  C        -27.1650   26.7540  -30.4280 C.2    76  GLU76       0.2287
     21  O        -27.6130   26.3560  -31.5010 O.2    76  GLU76      -0.2864
     22  CB       -24.9210   25.9030  -29.8190 C.3    76  GLU76       0.0415
     23  CG       -25.0420   24.7170  -30.8130 C.3    76  GLU76       0.1163
     24  CD       -24.4530   23.4020  -30.3040 C.2    76  GLU76       0.3649
     25  OE1      -23.8330   23.3880  -29.2240 O.co2  76  GLU76      -0.2457
     26  OE2      -24.6280   22.3670  -30.9790 O.co2  76  GLU76      -0.2457
     27  N        -33.3680   23.8700  -23.3900 N.3   230  THR230     -0.1218
     28  CA       -32.1730   23.9910  -24.2200 C.3   230  THR230      0.1862
     29  C        -31.5690   22.6190  -24.5490 C.2   230  THR230      0.2287
     30  O        -31.1720   22.3660  -25.6910 O.2   230  THR230     -0.2866
     31  CB       -31.1390   24.9000  -23.5270 C.3   230  THR230      0.1770
     32  OG1      -31.5370   26.2760  -23.6520 O.3   230  THR230     -0.2211
     33  CG2      -29.7500   24.7640  -24.1740 C.3   230  THR230      0.0375
     34  N        -31.0470   21.1010  -28.3990 N.3   234  LEU234     -0.1245
     35  CA       -29.7480   20.6670  -28.9140 C.3   234  LEU234      0.1561
     36  C        -29.7880   19.2120  -29.3910 C.2   234  LEU234      0.2260
     37  O        -29.1130   18.8610  -30.3620 O.2   234  LEU234     -0.2867
     38  CB       -28.6550   20.8280  -27.8750 C.3   234  LEU234      0.0270
     39  CG       -28.2900   22.2550  -27.4810 C.3   234  LEU234      0.0019
     40  CD1      -27.4140   22.2820  -26.2180 C.3   234  LEU234      0.0001
     41  CD2      -27.6070   22.9600  -28.6100 C.3   234  LEU234      0.0001
     42  N        -28.4780   18.4280  -33.3890 N.3   238  ARG238     -0.1245
     43  CA       -27.1610   17.8160  -33.6100 C.3   238  ARG238      0.1563
     44  C        -27.2460   16.4610  -34.3030 C.2   238  ARG238      0.2260
     45  O        -28.2100   15.7100  -34.1250 O.2   238  ARG238     -0.2867
     46  CB       -26.4380   17.5980  -32.2770 C.3   238  ARG238      0.0307
     47  CG       -25.8600   18.8610  -31.6420 C.3   238  ARG238      0.0489
     48  CD       -24.9970   18.5210  -30.4310 C.3   238  ARG238      0.2205
     49  NE       -24.5480   19.7200  -29.7410 N.pl3 238  ARG238     -0.0865
     50  CZ       -23.8960   19.7140  -28.5850 C.cat 238  ARG238      0.5346
     51  NH1      -23.6100   18.5650  -28.0030 N.pl3 238  ARG238      0.1354
     52  NH2      -23.5370   20.8560  -28.0270 N.pl3 238  ARG238      0.1354
     53  N        -24.2340   13.3210  -27.7160 N.3   243  SER243     -0.1202
     54  CA       -23.1670   14.2520  -27.3780 C.3   243  SER243      0.2020
     55  C        -23.6100   15.3890  -26.4640 C.2   243  SER243      0.2619
     56  O        -22.7570   16.1380  -26.0000 O.2   243  SER243     -0.2717
     57  CB       -22.5580   14.8540  -28.6430 C.3   243  SER243      0.2103
     58  OG       -23.4490   15.7190  -29.3160 O.3   243  SER243     -0.2182
     59  N        -24.9050   15.5290  -26.1800 N.am  244  VAL244     -0.1965
     60  CA       -25.3780   16.6540  -25.3740 C.3   244  VAL244      0.1727
     61  C        -25.0380   16.3740  -23.9130 C.2   244  VAL244      0.2616
     62  O        -25.4200   15.3390  -23.3620 O.2   244  VAL244     -0.2715
     63  CB       -26.8860   16.8950  -25.5810 C.3   244  VAL244      0.0290
     64  CG1      -27.4250   17.9700  -24.6070 C.3   244  VAL244      0.0023
     65  CG2      -27.1700   17.3410  -27.0320 C.3   244  VAL244      0.0023
     66  N        -24.2800   17.2780  -23.2950 N.am  245  ASP245     -0.1971
     67  CA       -23.7690   17.0820  -21.9380 C.3   245  ASP245      0.1709
     68  C        -24.4680   18.0660  -21.0000 C.2   245  ASP245      0.2293
     69  O        -24.1600   19.2590  -21.0130 O.2   245  ASP245     -0.2864
     70  CB       -22.2620   17.2970  -21.9350 C.3   245  ASP245      0.1436
     71  CG       -21.6150   16.9950  -20.5890 C.2   245  ASP245      0.3671
     72  OD1      -22.2840   17.0330  -19.5350 O.co2 245  ASP245     -0.2456
     73  OD2      -20.4020   16.7150  -20.5930 O.co2 245  ASP245     -0.2456
     74  N        -22.3740   20.3870  -18.8210 N.3   248  LYS248     -0.1231
     75  CA       -21.7410   21.4770  -19.5620 C.3   248  LYS248      0.1693
     76  C        -22.7420   22.5550  -19.9290 C.2   248  LYS248      0.2591
     77  O        -22.4040   23.7430  -19.9290 O.2   248  LYS248     -0.2718
     78  CB       -21.0730   20.9550  -20.8450 C.3   248  LYS248      0.0285
     79  CG       -19.7810   20.1990  -20.5620 C.3   248  LYS248      0.0035
     80  CD       -19.2000   19.5780  -21.8120 C.3   248  LYS248      0.0206
     81  CE       -17.8740   18.8620  -21.5050 C.3   248  LYS248      0.1093
     82  NZ       -17.4360   18.0090  -22.6500 N.3   248  LYS248     -0.1314
     83  N        -23.9570   22.1630  -20.3060 N.am  249  VAL249     -0.1980
     84  CA       -24.9550   23.1900  -20.6430 C.3   249  VAL249      0.1595
     85  C        -25.2520   24.0320  -19.4050 C.2   249  VAL249      0.2287
     86  O        -25.3300   25.2680  -19.4700 O.2   249  VAL249     -0.2864
     87  CB       -26.2180   22.5190  -21.2290 C.3   249  VAL249      0.0276
     88  CG1      -27.3360   23.5520  -21.5250 C.3   249  VAL249      0.0022
     89  CG2      -25.8540   21.7650  -22.5150 C.3   249  VAL249      0.0022
     90  N        -22.4990   26.5340  -18.7840 N.3   252  GLU252     -0.1245
     91  CA       -22.6530   27.6590  -19.7110 C.3   252  GLU252      0.1567
     92  C        -23.7310   28.6400  -19.2230 C.2   252  GLU252      0.2260
     93  O        -23.5310   29.8620  -19.2350 O.2   252  GLU252     -0.2867
     94  CB       -22.9870   27.1290  -21.1190 C.3   252  GLU252      0.0388
     95  CG       -23.1930   28.2030  -22.2170 C.3   252  GLU252      0.1160
     96  CD       -21.9470   28.9990  -22.5690 C.2   252  GLU252      0.3649
     97  OE1      -20.8200   28.4870  -22.3680 O.co2 252  GLU252     -0.2457
     98  OE2      -22.1060   30.1430  -23.0610 O.co2 252  GLU252     -0.2457
@<TRIPOS>BOND
     1    44    45    2
     2    44    43    1
     3    43    42    1
     4    43    46    1
     5    46    47    1
     6    47    48    1
     7    21    20    2
     8    26    24   ar
     9    17    15   ar
    10    12    11    2
    11    23    24    1
    12    23    22    1
    13    48    49    1
    14    20    19    1
    15    37    36    2
    16    19    22    1
    17    19    18    1
    18    24    25   ar
    19    14    15    1
    20    14    13    1
    21    15    16   ar
    22    11    18   am
    23    11    10    1
    24    49    50    2
    25    36    35    1
    26    58    57    1
    27    35    34    1
    28    35    38    1
    29    10    13    1
    30    10     9    1
    31    57    54    1
    32    41    39    1
    33    50    52    1
    34    50    51    1
    35     4     3    2
    36    38    39    1
    37    53    54    1
    38    39    40    1
    39     9     3   am
    40    54    55    1
    41     3     2    1
    42    65    63    1
    43    55    59   am
    44    55    56    2
    45    59    60    1
    46    30    29    2
    47     2     1    1
    48     2     5    1
    49    63    60    1
    50    63    64    1
    51    60    61    1
    52     5     6    1
    53    29    28    1
    54    28    31    1
    55    28    27    1
    56    33    31    1
    57    61    62    2
    58    61    66   am
    59     6     7    1
    60    32    31    1
    61    66    67    1
    62    98    96   ar
    63     8     7    1
    64    82    81    1
    65    96    97   ar
    66    96    95    1
    67    89    87    1
    68    95    94    1
    69    67    70    1
    70    67    68    1
    71    70    71    1
    72    80    81    1
    73    80    79    1
    74    88    87    1
    75    87    84    1
    76    94    91    1
    77    69    68    2
    78    78    79    1
    79    78    75    1
    80    84    83    1
    81    84    85    1
    82    73    71   ar
    83    71    72   ar
    84    83    76   am
    85    77    76    2
    86    76    75    1
    87    91    92    1
    88    91    90    1
    89    75    74    1
    90    86    85    2
    91    93    92    2
