@<TRIPOS>MOLECULE
tmp/5qflA01.pdb
 113 107 0 0 0
SMALL
GASTEIGER

@<TRIPOS>ATOM
      1  N        -40.2000    9.8770   15.8910 N.3    46  TYR46      -0.1227
      2  CA       -41.3610    9.4360   16.6710 C.3    46  TYR46       0.1736
      3  C        -41.5120    7.9230   16.5150 C.2    46  TYR46       0.2595
      4  O        -41.4690    7.4000   15.4000 O.2    46  TYR46      -0.2718
      5  CB       -42.6580   10.1500   16.2390 C.3    46  TYR46       0.0548
      6  CG       -42.6470   11.6830   16.3010 C.ar   46  TYR46      -0.0200
      7  CD1      -42.7540   12.3610   17.5160 C.ar   46  TYR46      -0.0009
      8  CD2      -42.5390   12.4520   15.1360 C.ar   46  TYR46      -0.0009
      9  CE1      -42.7450   13.7470   17.5640 C.ar   46  TYR46       0.0417
     10  CE2      -42.5230   13.8370   15.1880 C.ar   46  TYR46       0.0417
     11  CZ       -42.6360   14.4830   16.4010 C.ar   46  TYR46       0.1957
     12  OH       -42.6180   15.8780   16.4750 O.3    46  TYR46      -0.2866
     13  N        -41.6850    7.2030   17.6350 N.am   47  ARG47      -0.1966
     14  CA       -41.7170    5.7420   17.5590 C.3    47  ARG47       0.1729
     15  C        -42.9650    5.2090   16.8500 C.2    47  ARG47       0.2616
     16  O        -42.9420    4.0900   16.3350 O.2    47  ARG47      -0.2715
     17  CB       -41.6390    5.1350   18.9660 C.3    47  ARG47       0.0348
     18  CG       -42.7170    5.6210   19.8910 C.3    47  ARG47       0.0492
     19  CD       -43.0380    4.5810   20.9650 C.3    47  ARG47       0.2205
     20  NE       -44.0370    5.0550   21.9220 N.pl3  47  ARG47      -0.0865
     21  CZ       -45.3290    5.2210   21.6450 C.cat  47  ARG47       0.5346
     22  NH1      -45.7970    4.9630   20.4300 N.pl3  47  ARG47       0.1354
     23  NH2      -46.1550    5.6570   22.5870 N.pl3  47  ARG47       0.1354
     24  N        -44.0410    5.9850   16.7960 N.am   48  ASP48      -0.1957
     25  CA       -45.2780    5.5480   16.1630 C.3    48  ASP48       0.1840
     26  C        -45.4620    6.0690   14.7340 C.2    48  ASP48       0.2621
     27  O        -46.5630    5.9300   14.1910 O.2    48  ASP48      -0.2715
     28  CB       -46.4750    5.9790   17.0060 C.3    48  ASP48       0.1450
     29  CG       -46.5360    7.4810   17.2200 C.2    48  ASP48       0.3671
     30  OD1      -45.4690    8.1330   17.1920 O.co2  48  ASP48      -0.2456
     31  OD2      -47.6490    8.0140   17.4200 O.co2  48  ASP48      -0.2456
     32  N        -44.4310    6.6640   14.1270 N.am   49  VAL49      -0.1977
     33  CA       -44.5040    7.1170   12.7200 C.3    49  VAL49       0.1596
     34  C        -43.3290    6.5040   11.9740 C.2    49  VAL49       0.2287
     35  O        -42.1800    6.9310   12.1610 O.2    49  VAL49      -0.2864
     36  CB       -44.4820    8.6500   12.5870 C.3    49  VAL49       0.0276
     37  CG1      -44.5710    9.0710   11.0790 C.3    49  VAL49       0.0022
     38  CG2      -45.6120    9.2960   13.3830 C.3    49  VAL49       0.0022
     39  N        -43.0680   23.5410    8.5570 N.3   111  ASN111     -0.1240
     40  CA       -42.9380   23.8200    9.9950 C.3   111  ASN111      0.1653
     41  C        -41.8380   24.8550   10.2200 C.2   111  ASN111      0.2266
     42  O        -41.0420   25.1460    9.3300 O.2   111  ASN111     -0.2867
     43  CB       -42.6160   22.5320   10.7890 C.3   111  ASN111      0.1155
     44  CG       -41.2660   21.9600   10.4380 C.2   111  ASN111      0.2627
     45  OD1      -41.0880   21.4330    9.3580 O.2   111  ASN111     -0.2716
     46  ND2      -40.2780   22.1340   11.3190 N.am  111  ASN111     -0.0877
     47  N        -41.1460   25.2740   17.5050 N.3   115  GLU115     -0.1245
     48  CA       -42.5800   25.5420   17.7190 C.3   115  GLU115      0.1567
     49  C        -42.9630   25.0740   19.1210 C.2   115  GLU115      0.2260
     50  O        -42.4520   24.0630   19.6080 O.2   115  GLU115     -0.2867
     51  CB       -43.5090   24.8250   16.6840 C.3   115  GLU115      0.0388
     52  CG       -43.2400   25.2020   15.2160 C.3   115  GLU115      0.1160
     53  CD       -44.2010   24.5260   14.2430 C.2   115  GLU115      0.3649
     54  OE1      -45.1150   23.7960   14.7070 O.co2 115  GLU115     -0.2457
     55  OE2      -44.0370   24.7340   13.0230 O.co2 115  GLU115     -0.2457
     56  N        -38.5020   21.1720   16.5140 N.3   120  LYS120     -0.1245
     57  CA       -39.2880   20.3000   15.6440 C.3   120  LYS120      0.1561
     58  C        -38.4870   19.7090   14.4840 C.2   120  LYS120      0.2260
     59  O        -38.9660   18.7570   13.8290 O.2   120  LYS120     -0.2867
     60  CB       -40.4730   21.0770   15.0840 C.3   120  LYS120      0.0271
     61  CG       -41.4660   21.5740   16.1420 C.3   120  LYS120      0.0035
     62  CD       -42.1390   20.4010   16.8440 C.3   120  LYS120      0.0206
     63  CE       -42.9040   20.8250   18.0880 C.3   120  LYS120      0.1093
     64  NZ       -43.2450   19.6490   18.9060 N.3   120  LYS120     -0.1314
     65  N        -42.7840   18.0580    7.4360 N.3   215  CYS215     -0.1221
     66  CA       -43.1010   18.8960    8.5810 C.3   215  CYS215      0.1808
     67  C        -42.3100   18.3240    9.7600 C.2   215  CYS215      0.2602
     68  O        -41.1340   17.9840    9.5790 O.2   215  CYS215     -0.2717
     69  CB       -44.6220   18.9630    8.7640 C.3   215  CYS215      0.0970
     70  SG       -45.4950   17.3320    8.6200 S.3   215  CYS215     -0.0800
     71  N        -42.8950   18.1700   10.9480 N.am  216  SER216     -0.1938
     72  CA       -42.1140   17.4900   11.9810 C.3   216  SER216      0.2055
     73  C        -42.1770   15.9580   11.8150 C.2   216  SER216      0.2642
     74  O        -41.1330   15.2980   11.7420 O.2   216  SER216     -0.2714
     75  CB       -42.5720   17.9080   13.3820 C.3   216  SER216      0.2130
     76  OG       -41.6140   17.4230   14.3290 O.3   216  SER216     -0.2179
     77  N        -43.3750   15.3760   11.7460 N.am  217  ALA217     -0.1977
     78  CA       -43.4750   13.9200   11.5450 C.3   217  ALA217      0.1597
     79  C        -43.6020   13.5060   10.0880 C.2   217  ALA217      0.2287
     80  O        -43.3770   12.3240    9.7710 O.2   217  ALA217     -0.2864
     81  CB       -44.6660   13.3400   12.3240 C.3   217  ALA217      0.0319
     82  N        -46.4790   13.6410    8.1890 N.3   219  ILE219     -0.1231
     83  CA       -47.7660   12.9940    7.9050 C.3   219  ILE219      0.1692
     84  C        -48.9540   13.9510    7.9830 C.2   219  ILE219      0.2593
     85  O        -49.9600   13.7680    7.2840 O.2   219  ILE219     -0.2718
     86  CB       -47.9980   11.7690    8.8250 C.3   219  ILE219      0.0266
     87  CG1      -48.0160   12.1420   10.3030 C.3   219  ILE219      0.0019
     88  CG2      -46.9670   10.6860    8.5470 C.3   219  ILE219      0.0020
     89  CD1      -48.4010   10.9670   11.2430 C.3   219  ILE219      0.0001
     90  N        -48.8720   14.9810    8.8130 N.am  220  GLY220     -0.1942
     91  CA       -50.0100   15.8770    9.0100 C.3   220  GLY220      0.2014
     92  C        -50.1390   17.0430    8.0340 C.2   220  GLY220      0.2638
     93  O        -50.8960   16.9530    7.0590 O.2   220  GLY220     -0.2714
     94  N        -49.4280   18.1530    8.2970 N.am  221  ARG221     -0.1977
     95  CA       -49.3210   19.2300    7.3010 C.3   221  ARG221      0.1597
     96  C        -48.8500   18.7070    5.9400 C.2   221  ARG221      0.2287
     97  O        -49.3410   19.1390    4.8850 O.2   221  ARG221     -0.2864
     98  CB       -48.3620   20.3200    7.8010 C.3   221  ARG221      0.0334
     99  CG       -48.8370   20.9820    9.0820 C.3   221  ARG221      0.0492
    100  CD       -47.8030   21.9440    9.6570 C.3   221  ARG221      0.2205
    101  NE       -48.0710   22.1840   11.0750 N.pl3 221  ARG221     -0.0865
    102  CZ       -47.2940   22.9170   11.8700 C.cat 221  ARG221      0.5346
    103  NH1      -46.1810   23.4600   11.3910 N.pl3 221  ARG221      0.1354
    104  NH2      -47.6220   23.0930   13.1470 N.pl3 221  ARG221      0.1354
    105  N        -53.7010   14.1280   10.3730 N.3   262  GLN262     -0.1245
    106  CA       -53.5650   13.7050   11.7740 C.3   262  GLN262      0.1566
    107  C        -54.7740   14.0210   12.6500 C.2   262  GLN262      0.2260
    108  O        -54.8820   13.4520   13.7500 O.2   262  GLN262     -0.2867
    109  CB       -52.3480   14.3860   12.4210 C.3   262  GLN262      0.0367
    110  CG       -51.0080   13.7990   12.0430 C.3   262  GLN262      0.0905
    111  CD       -49.8310   14.5790   12.6690 C.2   262  GLN262      0.2608
    112  OE1      -49.5930   15.7490   12.3520 O.2   262  GLN262     -0.2717
    113  NE2      -49.1170   13.9310   13.5620 N.am  262  GLN262     -0.0878
@<TRIPOS>BOND
     1    97    96    2
     2    96    95    1
     3    93    92    2
     4    85    84    2
     5    95    98    1
     6    95    94    1
     7    65    66    1
     8    98    99    1
     9    83    84    1
    10    83    82    1
    11    83    86    1
    12    84    90   am
    13    92    94   am
    14    92    91    1
    15    88    86    1
    16    39    40    1
    17    66    69    1
    18    66    67    1
    19    70    69    1
    20    90    91    1
    21    86    87    1
    22    99   100    1
    23    42    41    2
    24    45    44    2
    25    68    67    2
    26   100   101    1
    27    67    71   am
    28    80    79    2
    29    40    41    1
    30    40    43    1
    31    79    78    1
    32    87    89    1
    33   105   106    1
    34    44    43    1
    35    44    46   am
    36    71    72    1
    37   101   102    2
    38    37    36    1
    39   103   102    1
    40    78    77    1
    41    78    81    1
    42    74    73    2
    43    77    73   am
    44   106   109    1
    45   106   107    1
    46    73    72    1
    47   102   104    1
    48    34    35    2
    49    34    33    1
    50    72    75    1
    51   110   109    1
    52   110   111    1
    53   112   111    2
    54    36    33    1
    55    36    38    1
    56   107   108    2
    57   111   113   am
    58    33    32    1
    59    55    53   ar
    60    75    76    1
    61    59    58    2
    62    32    26   am
    63    27    26    2
    64    53    54   ar
    65    53    52    1
    66    58    57    1
    67    26    25    1
    68    60    57    1
    69    60    61    1
    70     8    10   ar
    71     8     6   ar
    72    10    11   ar
    73    52    51    1
    74     4     3    2
    75    57    56    1
    76     1     2    1
    77    61    62    1
    78    25    24    1
    79    25    28    1
    80     5     6    1
    81     5     2    1
    82     6     7   ar
    83    16    15    2
    84    11    12    1
    85    11     9   ar
    86     3     2    1
    87     3    13   am
    88    51    48    1
    89    24    15   am
    90    62    63    1
    91    15    14    1
    92    28    29    1
    93    30    29   ar
    94    29    31   ar
    95    47    48    1
    96     7     9   ar
    97    14    13    1
    98    14    17    1
    99    48    49    1
   100    63    64    1
   101    17    18    1
   102    49    50    2
   103    18    19    1
   104    22    21    1
   105    19    20    1
   106    21    20    2
   107    21    23    1
