@<TRIPOS>MOLECULE
tmp/5qfmA00.pdb
 91 85 0 0 0
SMALL
GASTEIGER

@<TRIPOS>ATOM
      1  N        -48.8230    8.7030   -7.4270 N.3    74  MET74      -0.1230
      2  CA       -50.2410    8.8520   -7.7790 C.3    74  MET74       0.1702
      3  C        -50.4000    8.6260   -9.2890 C.2    74  MET74       0.2592
      4  O        -50.0420    9.4880  -10.1050 O.2    74  MET74      -0.2718
      5  CB       -50.7870   10.2110   -7.3600 C.3    74  MET74       0.0401
      6  CG       -50.6810   10.4580   -5.8450 C.3    74  MET74       0.0596
      7  SD       -51.4520    9.1620   -4.7790 S.3    74  MET74      -0.1393
      8  CE       -53.1280    9.5720   -5.1070 C.3    74  MET74       0.0692
      9  N        -50.9570    7.4680   -9.6500 N.am   75  GLU75      -0.1966
     10  CA       -50.9060    6.9860  -11.0350 C.3    75  GLU75       0.1733
     11  C        -51.8100    7.8030  -11.9610 C.2    75  GLU75       0.2616
     12  O        -51.3570    8.3170  -12.9860 O.2    75  GLU75      -0.2715
     13  CB       -51.2730    5.4860  -11.0310 C.3    75  GLU75       0.0429
     14  CG       -51.1200    4.7830  -12.3410 C.3    75  GLU75       0.1163
     15  CD       -51.2550    3.2590  -12.2250 C.2    75  GLU75       0.3649
     16  OE1      -51.8950    2.7510  -11.2660 O.co2  75  GLU75      -0.2457
     17  OE2      -50.6980    2.5650  -13.1020 O.co2  75  GLU75      -0.2457
     18  N        -53.0820    7.9720  -11.6110 N.am   76  GLU76      -0.1977
     19  CA       -53.9810    8.7390  -12.4790 C.3    76  GLU76       0.1602
     20  C        -53.5650   10.2020  -12.5930 C.2    76  GLU76       0.2287
     21  O        -53.6790   10.8040  -13.6660 O.2    76  GLU76      -0.2864
     22  CB       -55.4110    8.6720  -11.9620 C.3    76  GLU76       0.0415
     23  CG       -56.3870    9.3550  -12.9390 C.3    76  GLU76       0.1163
     24  CD       -57.8030    9.4980  -12.4140 C.2    76  GLU76       0.3649
     25  OE1      -58.1190    8.9810  -11.3230 O.co2  76  GLU76      -0.2457
     26  OE2      -58.6110   10.1420  -13.1160 O.co2  76  GLU76      -0.2457
     27  N        -56.5530   16.2800  -10.5360 N.3   234  LEU234     -0.1245
     28  CA       -57.5960   15.3860  -11.0470 C.3   234  LEU234      0.1561
     29  C        -58.8410   16.1520  -11.5000 C.2   234  LEU234      0.2260
     30  O        -59.5070   15.7280  -12.4500 O.2   234  LEU234     -0.2867
     31  CB       -57.9970   14.3510   -9.9950 C.3   234  LEU234      0.0270
     32  CG       -56.9340   13.3230   -9.6290 C.3   234  LEU234      0.0019
     33  CD1      -57.3450   12.5280   -8.3780 C.3   234  LEU234      0.0001
     34  CD2      -56.6210   12.3920  -10.7680 C.3   234  LEU234      0.0001
     35  N        -60.1830   15.4070  -15.5060 N.3   238  ARG238     -0.1245
     36  CA       -61.3780   14.5830  -15.7310 C.3   238  ARG238      0.1563
     37  C        -62.5220   15.3310  -16.4230 C.2   238  ARG238      0.2260
     38  O        -62.6950   16.5450  -16.2590 O.2   238  ARG238     -0.2867
     39  CB       -61.9160   14.0560  -14.4050 C.3   238  ARG238      0.0307
     40  CG       -61.0990   12.9250  -13.7880 C.3   238  ARG238      0.0489
     41  CD       -61.7910   12.3760  -12.5590 C.3   238  ARG238      0.2205
     42  NE       -60.9640   11.3910  -11.8650 N.pl3 238  ARG238     -0.0865
     43  CZ       -61.3070   10.8160  -10.7240 C.cat 238  ARG238      0.5346
     44  NH1      -62.4420   11.1430  -10.1390 N.pl3 238  ARG238      0.1354
     45  NH2      -60.4910    9.9330  -10.1590 N.pl3 238  ARG238      0.1354
     46  N        -66.6530   14.2740   -9.8020 N.3   243  SER243     -0.1202
     47  CA       -66.3930   12.8830   -9.4690 C.3   243  SER243      0.2020
     48  C        -65.1950   12.6950   -8.5460 C.2   243  SER243      0.2619
     49  O        -64.9530   11.5820   -8.0900 O.2   243  SER243     -0.2717
     50  CB       -66.1710   12.0510  -10.7430 C.3   243  SER243      0.2103
     51  OG       -64.9330   12.3350  -11.3570 O.3   243  SER243     -0.2182
     52  N        -64.4340   13.7560   -8.2620 N.am  244  VAL244     -0.1965
     53  CA       -63.2160   13.5910   -7.4760 C.3   244  VAL244      0.1727
     54  C        -63.6310   13.4380   -6.0130 C.2   244  VAL244      0.2616
     55  O        -64.3560   14.2750   -5.4640 O.2   244  VAL244     -0.2715
     56  CB       -62.2440   14.7650   -7.6950 C.3   244  VAL244      0.0290
     57  CG1      -61.0430   14.6870   -6.7250 C.3   244  VAL244      0.0023
     58  CG2      -61.7150   14.7900   -9.1510 C.3   244  VAL244      0.0023
     59  N        -63.2310   12.3310   -5.3960 N.am  245  ASP245     -0.1971
     60  CA       -63.6610   11.9700   -4.0510 C.3   245  ASP245      0.1709
     61  C        -62.4510   12.0710   -3.1130 C.2   245  ASP245      0.2293
     62  O        -61.5720   11.2090   -3.1370 O.2   245  ASP245     -0.2864
     63  CB       -64.2500   10.5630   -4.0510 C.3   245  ASP245      0.1436
     64  CG       -64.8300   10.1520   -2.6900 C.2   245  ASP245      0.3671
     65  OD1      -64.4070   10.6620   -1.6340 O.co2 245  ASP245     -0.2456
     66  OD2      -65.7220    9.2900   -2.6760 O.co2 245  ASP245     -0.2456
     67  N        -61.4790    9.1320   -0.9450 N.3   248  LYS248     -0.1231
     68  CA       -60.8580    8.0300   -1.6830 C.3   248  LYS248      0.1693
     69  C        -59.4180    8.3410   -2.0450 C.2   248  LYS248      0.2591
     70  O        -58.5650    7.4440   -2.0270 O.2   248  LYS248     -0.2718
     71  CB       -61.6460    7.7210   -2.9660 C.3   248  LYS248      0.0285
     72  CG       -62.9510    6.9780   -2.6940 C.3   248  LYS248      0.0035
     73  CD       -63.7800    6.7900   -3.9550 C.3   248  LYS248      0.0206
     74  CE       -65.0630    5.9980   -3.6560 C.3   248  LYS248      0.1093
     75  NZ       -66.0150    6.0390   -4.8080 N.3   248  LYS248     -0.1314
     76  N        -59.1370    9.5870   -2.4390 N.am  249  VAL249     -0.1980
     77  CA       -57.7610    9.9510   -2.7780 C.3   249  VAL249      0.1595
     78  C        -56.8700    9.8130   -1.5430 C.2   249  VAL249      0.2287
     79  O        -55.7620    9.2630   -1.6130 O.2   249  VAL249     -0.2864
     80  CB       -57.7360   11.3760   -3.3750 C.3   249  VAL249      0.0276
     81  CG1      -56.2970   11.8320   -3.6790 C.3   249  VAL249      0.0022
     82  CG2      -58.5840   11.4430   -4.6730 C.3   249  VAL249      0.0022
     83  N        -56.1100    6.1620   -0.9030 N.3   252  GLU252     -0.1245
     84  CA       -55.0650    5.7290   -1.8340 C.3   252  GLU252      0.1567
     85  C        -53.6750    6.1770   -1.3660 C.2   252  GLU252      0.2260
     86  O        -52.7080    5.4180   -1.4560 O.2   252  GLU252     -0.2867
     87  CB       -55.3460    6.2830   -3.2380 C.3   252  GLU252      0.0388
     88  CG       -54.3210    5.9050   -4.3250 C.3   252  GLU252      0.1160
     89  CD       -54.2970    4.4300   -4.7030 C.2   252  GLU252      0.3649
     90  OE1      -55.3350    3.7290   -4.5300 O.co2 252  GLU252     -0.2457
     91  OE2      -53.2210    3.9820   -5.1840 O.co2 252  GLU252     -0.2457
@<TRIPOS>BOND
     1    37    38    2
     2    37    36    1
     3    36    35    1
     4    36    39    1
     5    39    40    1
     6    40    41    1
     7    21    20    2
     8    26    24   ar
     9    17    15   ar
    10    12    11    2
    11    23    24    1
    12    23    22    1
    13    20    19    1
    14    41    42    1
    15    19    22    1
    16    19    18    1
    17    30    29    2
    18    24    25   ar
    19    14    15    1
    20    14    13    1
    21    15    16   ar
    22    11    18   am
    23    11    10    1
    24    42    43    2
    25    29    28    1
    26    51    50    1
    27    28    27    1
    28    28    31    1
    29    10    13    1
    30    10     9    1
    31    34    32    1
    32    50    47    1
    33    43    45    1
    34    43    44    1
    35     4     3    2
    36    31    32    1
    37    46    47    1
    38     9     3   am
    39    32    33    1
    40    47    48    1
    41     3     2    1
    42    58    56    1
    43    48    52   am
    44    48    49    2
    45    52    53    1
    46     2     1    1
    47     2     5    1
    48    56    53    1
    49    56    57    1
    50    53    54    1
    51     5     6    1
    52    54    55    2
    53    54    59   am
    54     6     7    1
    55    59    60    1
    56    91    89   ar
    57     8     7    1
    58    75    74    1
    59    89    90   ar
    60    89    88    1
    61    82    80    1
    62    88    87    1
    63    63    60    1
    64    63    64    1
    65    60    61    1
    66    73    74    1
    67    73    72    1
    68    81    80    1
    69    80    77    1
    70    87    84    1
    71    62    61    2
    72    71    72    1
    73    71    68    1
    74    77    76    1
    75    77    78    1
    76    64    66   ar
    77    64    65   ar
    78    76    69   am
    79    69    70    2
    80    69    68    1
    81    84    85    1
    82    84    83    1
    83    68    67    1
    84    79    78    2
    85    86    85    2
