@<TRIPOS>MOLECULE
tmp/5qfnA02.pdb
 86 82 0 0 0
SMALL
GASTEIGER

@<TRIPOS>ATOM
      1  N         42.8390  -18.3140  -18.2510 N.3   192  LEU192     -0.1231
      2  CA        42.5550  -18.2580  -19.6940 C.3   192  LEU192      0.1693
      3  C         43.7650  -18.6680  -20.5120 C.2   192  LEU192      0.2592
      4  O         43.6360  -19.4300  -21.4720 O.2   192  LEU192     -0.2718
      5  CB        42.0910  -16.8460  -20.1000 C.3   192  LEU192      0.0284
      6  CG        40.6850  -16.4400  -19.6790 C.3   192  LEU192      0.0019
      7  CD1       40.5260  -14.9360  -19.8010 C.3   192  LEU192      0.0001
      8  CD2       39.6300  -17.1650  -20.5220 C.3   192  LEU192      0.0001
      9  N         44.9570  -18.1790  -20.1450 N.am  193  ASN193     -0.1974
     10  CA        46.1830  -18.6110  -20.8150 C.3   193  ASN193      0.1688
     11  C         46.3220  -20.1330  -20.7780 C.2   193  ASN193      0.2292
     12  O         46.6920  -20.7620  -21.7780 O.2   193  ASN193     -0.2864
     13  CB        47.3850  -17.9300  -20.1540 C.3   193  ASN193      0.1181
     14  CG        48.6890  -18.1600  -20.8990 C.2   193  ASN193      0.2629
     15  OD1       48.8290  -17.7820  -22.0600 O.2   193  ASN193     -0.2716
     16  ND2       49.6620  -18.7540  -20.2190 N.am  193  ASN193     -0.0877
     17  N         43.8530  -21.8510  -23.1950 N.3   196  PHE196     -0.1241
     18  CA        44.3330  -21.7300  -24.5710 C.3   196  PHE196      0.1605
     19  C         45.4710  -22.7110  -24.8540 C.2   196  PHE196      0.2264
     20  O         45.5600  -23.2630  -25.9520 O.2   196  PHE196     -0.2867
     21  CB        44.7650  -20.2810  -24.8450 C.3   196  PHE196      0.0534
     22  CG        43.6530  -19.2700  -24.7300 C.ar  196  PHE196     -0.0203
     23  CD1       42.3150  -19.6510  -24.8620 C.ar  196  PHE196     -0.0042
     24  CD2       43.9440  -17.9330  -24.4730 C.ar  196  PHE196     -0.0042
     25  CE1       41.2950  -18.7240  -24.7440 C.ar  196  PHE196     -0.0003
     26  CE2       42.9260  -16.9890  -24.3570 C.ar  196  PHE196     -0.0003
     27  CZ        41.6010  -17.3840  -24.4930 C.ar  196  PHE196     -0.0000
     28  N         43.7900  -26.0260  -25.4810 N.3   199  ARG199     -0.1231
     29  CA        43.2040  -26.0030  -26.8360 C.3   199  ARG199      0.1694
     30  C         44.2740  -26.2220  -27.9010 C.2   199  ARG199      0.2591
     31  O         44.1040  -27.0350  -28.8160 O.2   199  ARG199     -0.2718
     32  CB        42.5180  -24.6610  -27.0750 C.3   199  ARG199      0.0321
     33  CG        41.1180  -24.5090  -26.5040 C.3   199  ARG199      0.0489
     34  CD        40.5330  -23.1650  -26.9370 C.3   199  ARG199      0.2205
     35  NE        39.1460  -22.9690  -26.5100 N.pl3 199  ARG199     -0.0865
     36  CZ        38.3300  -22.0540  -27.0130 C.cat 199  ARG199      0.5346
     37  NH1       38.7450  -21.2350  -27.9860 N.pl3 199  ARG199      0.1354
     38  NH2       37.1010  -21.9590  -26.5560 N.pl3 199  ARG199      0.1354
     39  N         45.3920  -25.4870  -27.7920 N.am  200  GLU200     -0.1979
     40  CA        46.4240  -25.5430  -28.8320 C.3   200  GLU200      0.1602
     41  C         47.0190  -26.9360  -28.9940 C.2   200  GLU200      0.2287
     42  O         47.5100  -27.2770  -30.0770 O.2   200  GLU200     -0.2864
     43  CB        47.5240  -24.5300  -28.5180 C.3   200  GLU200      0.0415
     44  CG        47.1040  -23.1030  -28.7050 C.3   200  GLU200      0.1163
     45  CD        48.1860  -22.1060  -28.3240 C.2   200  GLU200      0.3649
     46  OE1       49.3140  -22.5420  -27.9710 O.co2 200  GLU200     -0.2457
     47  OE2       47.8970  -20.8930  -28.3840 O.co2 200  GLU200     -0.2457
     48  N         32.0110  -17.5540  -30.7140 N.3   236  ASP236     -0.1239
     49  CA        32.6700  -17.5920  -32.0280 C.3   236  ASP236      0.1674
     50  C         31.7820  -18.1550  -33.1300 C.2   236  ASP236      0.2266
     51  O         31.9510  -17.7990  -34.3010 O.2   236  ASP236     -0.2867
     52  CB        33.9230  -18.4680  -31.9790 C.3   236  ASP236      0.1410
     53  CG        35.1850  -17.6910  -31.7030 C.2   236  ASP236      0.3668
     54  OD1       35.1710  -16.4470  -31.7950 O.co2 236  ASP236     -0.2456
     55  OD2       36.2070  -18.3450  -31.3990 O.co2 236  ASP236     -0.2456
     56  N         37.9880  -13.1610  -21.8130 N.3   277  GLY277     -0.1225
     57  CA        38.3710  -14.0300  -22.8980 C.3   277  GLY277      0.1811
     58  C         37.7900  -13.5870  -24.2230 C.2   277  GLY277      0.2280
     59  O         38.4300  -13.7290  -25.2580 O.2   277  GLY277     -0.2866
     60  N         40.0320  -11.0330  -26.0520 N.3   280  PHE280     -0.1227
     61  CA        41.3030  -11.4900  -26.5550 C.3   280  PHE280      0.1736
     62  C         41.1300  -12.2940  -27.8160 C.2   280  PHE280      0.2595
     63  O         42.0360  -12.3280  -28.6520 O.2   280  PHE280     -0.2718
     64  CB        41.9810  -12.3490  -25.5030 C.3   280  PHE280      0.0547
     65  CG        43.4350  -12.5040  -25.7120 C.ar  280  PHE280     -0.0202
     66  CD1       44.2980  -11.4560  -25.4430 C.ar  280  PHE280     -0.0042
     67  CD2       43.9470  -13.7030  -26.1670 C.ar  280  PHE280     -0.0042
     68  CE1       45.6490  -11.6050  -25.6250 C.ar  280  PHE280     -0.0003
     69  CE2       45.2950  -13.8590  -26.3480 C.ar  280  PHE280     -0.0003
     70  CZ        46.1500  -12.8080  -26.0810 C.ar  280  PHE280     -0.0000
     71  N         39.9810  -12.9520  -27.9530 N.am  281  ILE281     -0.1966
     72  CA        39.7430  -13.8190  -29.0930 C.3   281  ILE281      0.1727
     73  C         39.7780  -13.0080  -30.3770 C.2   281  ILE281      0.2616
     74  O         40.2360  -13.4930  -31.4190 O.2   281  ILE281     -0.2715
     75  CB        38.4040  -14.5590  -28.9030 C.3   281  ILE281      0.0290
     76  CG1       38.3790  -15.8710  -29.6860 C.3   281  ILE281      0.0022
     77  CG2       37.2330  -13.6820  -29.3170 C.3   281  ILE281      0.0023
     78  CD1       38.0790  -17.0720  -28.8100 C.3   281  ILE281      0.0001
     79  N         39.3330  -11.7590  -30.3160 N.am  282  MET282     -0.1977
     80  CA        39.2770  -10.9170  -31.5010 C.3   282  MET282      0.1605
     81  C         40.4570   -9.9480  -31.5530 C.2   282  MET282      0.2287
     82  O         40.9140   -9.5720  -32.6370 O.2   282  MET282     -0.2864
     83  CB        37.9600  -10.1420  -31.5320 C.3   282  MET282      0.0413
     84  CG        36.7360  -10.9930  -31.1980 C.3   282  MET282      0.0598
     85  SD        35.1820  -10.0820  -31.3270 S.3   282  MET282     -0.1393
     86  CE        33.9920  -11.4120  -31.1220 C.3   282  MET282      0.0692
@<TRIPOS>BOND
     1    51    50    2
     2    50    49    1
     3    82    81    2
     4    49    52    1
     5    49    48    1
     6    52    53    1
     7    54    53   ar
     8    53    55   ar
     9    81    80    1
    10    83    80    1
    11    83    84    1
    12    80    79    1
    13    74    73    2
    14    85    84    1
    15    85    86    1
    16    73    79   am
    17    73    72    1
    18    42    41    2
    19    76    75    1
    20    76    78    1
    21    77    75    1
    22    72    75    1
    23    72    71    1
    24    41    40    1
    25    40    43    1
    26    40    39    1
    27    31    30    2
    28    44    43    1
    29    44    45    1
    30    63    62    2
    31    47    45   ar
    32    45    46   ar
    33    37    36    1
    34    71    62   am
    35    30    39   am
    36    30    29    1
    37    62    61    1
    38    32    29    1
    39    32    33    1
    40    36    38    1
    41    36    35    2
    42    34    35    1
    43    34    33    1
    44    29    28    1
    45    61    60    1
    46    61    64    1
    47    69    67   ar
    48    69    70   ar
    49    67    65   ar
    50    70    68   ar
    51    20    19    2
    52    65    64    1
    53    65    66   ar
    54    68    66   ar
    55    59    58    2
    56    23    25   ar
    57    23    22   ar
    58    19    18    1
    59    21    22    1
    60    21    18    1
    61    25    27   ar
    62    22    24   ar
    63    18    17    1
    64    27    26   ar
    65    24    26   ar
    66    58    57    1
    67    57    56    1
    68    15    14    2
    69    12    11    2
    70     4     3    2
    71    14    16   am
    72    14    13    1
    73    10    11    1
    74    10    13    1
    75    10     9    1
    76     8     6    1
    77     3     9   am
    78     3     2    1
    79     5     2    1
    80     5     6    1
    81     7     6    1
    82     2     1    1
