@<TRIPOS>MOLECULE
tmp/5qfnA01.pdb
 106 103 0 0 0
SMALL
GASTEIGER

@<TRIPOS>ATOM
      1  N         35.1930  -50.8920  -18.9940 N.3    60  HIS60      -0.1226
      2  CA        34.9850  -52.0970  -19.8220 C.3    60  HIS60       0.1752
      3  C         35.4870  -53.3180  -19.0590 C.2    60  HIS60       0.2595
      4  O         36.5180  -53.9180  -19.3580 O.2    60  HIS60      -0.2718
      5  CB        35.6920  -51.9750  -21.1590 C.3    60  HIS60       0.0759
      6  CG        35.2350  -50.8310  -22.0010 C.ar   60  HIS60       0.0818
      7  ND1       35.8130  -50.5400  -23.2160 N.ar   60  HIS60      -0.2268
      8  CD2       34.2870  -49.8860  -21.7990 C.ar   60  HIS60       0.1154
      9  CE1       35.2370  -49.4700  -23.7330 C.ar   60  HIS60       0.1986
     10  NE2       34.3070  -49.0510  -22.8900 N.ar   60  HIS60      -0.2212
     11  N         34.7210  -53.6610  -18.0380 N.am   61  GLN61      -0.1979
     12  CA        35.0640  -54.7170  -17.1050 C.3    61  GLN61       0.1601
     13  C         33.7470  -55.3370  -16.6720 C.2    61  GLN61       0.2287
     14  O         32.7470  -54.6300  -16.5460 O.2    61  GLN61      -0.2864
     15  CB        35.8500  -54.1340  -15.9190 C.3    61  GLN61       0.0394
     16  CG        36.9930  -54.9910  -15.4350 C.3    61  GLN61       0.0908
     17  CD        36.6300  -55.7400  -14.1750 C.2    61  GLN61       0.2608
     18  OE1       36.3840  -56.9500  -14.2030 O.2    61  GLN61      -0.2717
     19  NE2       36.5790  -55.0180  -13.0560 N.am   61  GLN61      -0.0878
     20  N         42.6150  -46.7690  -16.7650 N.3    97  GLU97      -0.1245
     21  CA        41.7840  -47.6280  -17.6090 C.3    97  GLU97       0.1567
     22  C         40.7730  -46.7920  -18.4040 C.2    97  GLU97       0.2260
     23  O         40.5990  -47.0040  -19.6160 O.2    97  GLU97      -0.2867
     24  CB        41.0650  -48.6790  -16.7520 C.3    97  GLU97       0.0388
     25  CG        40.0860  -49.5540  -17.5910 C.3    97  GLU97       0.1160
     26  CD        39.2310  -50.5530  -16.7980 C.2    97  GLU97       0.3649
     27  OE1       39.2930  -50.6590  -15.5470 O.co2  97  GLU97      -0.2457
     28  OE2       38.4530  -51.2690  -17.4900 O.co2  97  GLU97      -0.2457
     29  N         42.4630  -44.7830  -21.2240 N.3   100  TRP100     -0.1227
     30  CA        42.7580  -45.7010  -22.3310 C.3   100  TRP100      0.1737
     31  C         41.4990  -46.0270  -23.1390 C.2   100  TRP100      0.2595
     32  O         41.4770  -45.8830  -24.3710 O.2   100  TRP100     -0.2718
     33  CB        43.3660  -47.0040  -21.7940 C.3   100  TRP100      0.0564
     34  CG        43.7490  -47.9330  -22.9440 C.ar  100  TRP100      0.0003
     35  CD1       42.9640  -48.8950  -23.5260 C.ar  100  TRP100      0.0946
     36  CD2       44.9780  -47.9080  -23.6970 C.ar  100  TRP100      0.0152
     37  NE1       43.6290  -49.4720  -24.5980 N.ar  100  TRP100     -0.2442
     38  CE2       44.8640  -48.8860  -24.7190 C.ar  100  TRP100      0.0810
     39  CE3       46.1580  -47.1610  -23.6050 C.ar  100  TRP100      0.0012
     40  CZ2       45.8960  -49.1400  -25.6290 C.ar  100  TRP100      0.0191
     41  CZ3       47.1820  -47.4100  -24.5190 C.ar  100  TRP100      0.0001
     42  CH2       47.0390  -48.3920  -25.5200 C.ar  100  TRP100      0.0015
     43  N         40.4450  -46.4760  -22.4480 N.am  101  GLU101     -0.1979
     44  CA        39.2280  -46.9600  -23.1240 C.3   101  GLU101      0.1602
     45  C         38.4810  -45.8470  -23.8540 C.2   101  GLU101      0.2287
     46  O         37.9080  -46.0860  -24.9390 O.2   101  GLU101     -0.2864
     47  CB        38.3250  -47.6650  -22.1020 C.3   101  GLU101      0.0415
     48  CG        38.8450  -49.0370  -21.6390 C.3   101  GLU101      0.1163
     49  CD        38.1550  -49.6200  -20.4150 C.2   101  GLU101      0.3649
     50  OE1       37.2670  -48.9710  -19.8130 O.co2 101  GLU101     -0.2457
     51  OE2       38.5290  -50.7460  -20.0390 O.co2 101  GLU101     -0.2457
     52  N         48.6420  -52.9320  -11.4820 N.3   136  GLU136     -0.1231
     53  CA        48.4710  -54.3580  -11.7390 C.3   136  GLU136      0.1699
     54  C         47.0090  -54.7370  -11.8920 C.2   136  GLU136      0.2592
     55  O         46.7030  -55.6520  -12.6680 O.2   136  GLU136     -0.2718
     56  CB        49.1070  -55.1840  -10.6220 C.3   136  GLU136      0.0402
     57  CG        50.6170  -55.0030  -10.5350 C.3   136  GLU136      0.1161
     58  CD        51.2740  -55.9110   -9.5040 C.2   136  GLU136      0.3649
     59  OE1       50.5650  -56.4390   -8.6180 O.co2 136  GLU136     -0.2457
     60  OE2       52.5070  -56.0950   -9.5830 O.co2 136  GLU136     -0.2457
     61  N         46.1000  -54.0450  -11.1880 N.am  137  ASP137     -0.1960
     62  CA        44.6840  -54.4070  -11.2870 C.3   137  ASP137      0.1840
     63  C         44.1110  -54.1570  -12.6850 C.2   137  ASP137      0.2623
     64  O         43.1920  -54.8710  -13.0950 O.2   137  ASP137     -0.2715
     65  CB        43.8510  -53.6990  -10.1950 C.3   137  ASP137      0.1450
     66  CG        43.9060  -52.1640  -10.2550 C.2   137  ASP137      0.3671
     67  OD1       44.8460  -51.5790  -10.8420 O.co2 137  ASP137     -0.2456
     68  OD2       42.9970  -51.5390   -9.6620 O.co2 137  ASP137     -0.2456
     69  N         44.6300  -53.1860  -13.4480 N.am  138  THR138     -0.1937
     70  CA        44.1380  -52.9280  -14.8040 C.3   138  THR138      0.2028
     71  C         45.1760  -53.1740  -15.9050 C.2   138  THR138      0.2642
     72  O         44.8990  -52.9010  -17.0870 O.2   138  THR138     -0.2714
     73  CB        43.6070  -51.4900  -14.9080 C.3   138  THR138      0.1808
     74  OG1       44.6350  -50.5600  -14.5130 O.3   138  THR138     -0.2208
     75  CG2       42.3800  -51.3120  -14.0100 C.3   138  THR138      0.0379
     76  N         46.3660  -53.6510  -15.5470 N.am  139  ASN139     -0.1957
     77  CA        47.4060  -54.0670  -16.5040 C.3   139  ASN139      0.1819
     78  C         47.8710  -52.9270  -17.4160 C.2   139  ASN139      0.2621
     79  O         47.9420  -53.0680  -18.6420 O.2   139  ASN139     -0.2715
     80  CB        46.9410  -55.2680  -17.3300 C.3   139  ASN139      0.1195
     81  CG        48.0940  -56.2120  -17.6790 C.2   139  ASN139      0.2630
     82  OD1       49.0530  -56.3550  -16.9090 O.2   139  ASN139     -0.2716
     83  ND2       48.0220  -56.8280  -18.8520 N.am  139  ASN139     -0.0877
     84  N         48.2510  -51.8040  -16.7930 N.am  140  LEU140     -0.1977
     85  CA        48.7690  -50.6380  -17.5040 C.3   140  LEU140      0.1596
     86  C         50.1130  -50.2010  -16.9070 C.2   140  LEU140      0.2287
     87  O         50.3480  -50.3290  -15.6920 O.2   140  LEU140     -0.2864
     88  CB        47.7770  -49.4470  -17.4300 C.3   140  LEU140      0.0297
     89  CG        46.4640  -49.6290  -18.1990 C.3   140  LEU140      0.0022
     90  CD1       45.3820  -48.7130  -17.6350 C.3   140  LEU140      0.0001
     91  CD2       46.6670  -49.3840  -19.6710 C.3   140  LEU140      0.0001
     92  N         49.3260  -50.3240  -22.7470 N.3   162  ASN162     -0.1240
     93  CA        48.4290  -51.4260  -22.4330 C.3   162  ASN162      0.1653
     94  C         49.2590  -52.7020  -22.4550 C.2   162  ASN162      0.2266
     95  O         49.6530  -53.1670  -23.5310 O.2   162  ASN162     -0.2867
     96  CB        47.2860  -51.4600  -23.4440 C.3   162  ASN162      0.1155
     97  CG        46.3490  -52.6500  -23.2540 C.2   162  ASN162      0.2627
     98  OD1       46.6400  -53.5900  -22.5140 O.2   162  ASN162     -0.2716
     99  ND2       45.2110  -52.6000  -23.9230 N.am  162  ASN162     -0.0877
    100  N         48.5650  -55.7180  -21.9750 N.3   164  THR164     -0.1218
    101  CA        47.9330  -56.8910  -22.5770 C.3   164  THR164      0.1862
    102  C         48.2400  -56.9620  -24.0770 C.2   164  THR164      0.2287
    103  O         48.5320  -58.0440  -24.6050 O.2   164  THR164     -0.2866
    104  CB        46.4080  -56.8540  -22.3230 C.3   164  THR164      0.1770
    105  OG1       46.0890  -56.8470  -20.9130 O.3   164  THR164     -0.2211
    106  CG2       45.7170  -58.0530  -22.9330 C.3   164  THR164      0.0375
@<TRIPOS>BOND
     1    40    42   ar
     2    40    38   ar
     3    42    41   ar
     4    46    45    2
     5    38    37   ar
     6    38    36   ar
     7   103   102    2
     8    37    35   ar
     9    41    39   ar
    10    32    31    2
    11   102   101    1
    12    99    97   am
    13    45    44    1
    14     9     7   ar
    15     9    10   ar
    16    36    39   ar
    17    36    34   ar
    18    95    94    2
    19    35    34   ar
    20    96    97    1
    21    96    93    1
    22    97    98    2
    23     7     6   ar
    24    31    43   am
    25    31    30    1
    26    44    43    1
    27    44    47    1
    28    34    33    1
    29   106   104    1
    30    10     8   ar
    31    92    93    1
    32   101   104    1
    33   101   100    1
    34    94    93    1
    35    30    33    1
    36    30    29    1
    37   104   105    1
    38    47    48    1
    39     6     8   ar
    40     6     5    1
    41    48    49    1
    42     5     2    1
    43    49    51   ar
    44    49    50   ar
    45     2     3    1
    46     2     1    1
    47    91    89    1
    48    23    22    2
    49     4     3    2
    50     3    11   am
    51    83    81   am
    52    79    78    2
    53    22    21    1
    54    89    90    1
    55    89    88    1
    56    11    12    1
    57    81    80    1
    58    81    82    2
    59    21    20    1
    60    21    24    1
    61    25    26    1
    62    25    24    1
    63    85    88    1
    64    85    86    1
    65    85    84    1
    66    28    26   ar
    67    78    84   am
    68    78    77    1
    69    80    77    1
    70    12    13    1
    71    12    15    1
    72    72    71    2
    73    86    87    2
    74    26    27   ar
    75    13    14    2
    76    77    76    1
    77    15    16    1
    78    71    76   am
    79    71    70    1
    80    16    17    1
    81    73    70    1
    82    73    74    1
    83    73    75    1
    84    70    69    1
    85    18    17    2
    86    17    19   am
    87    69    63   am
    88    64    63    2
    89    63    62    1
    90    55    54    2
    91    54    53    1
    92    54    61   am
    93    53    52    1
    94    53    56    1
    95    62    61    1
    96    62    65    1
    97    67    66   ar
    98    56    57    1
    99    57    58    1
   100    66    65    1
   101    66    68   ar
   102    60    58   ar
   103    58    59   ar
