@<TRIPOS>MOLECULE
tmp/5qfoA00.pdb
 82 76 0 0 0
SMALL
GASTEIGER

@<TRIPOS>ATOM
      1  N         27.9420  -31.3200  -25.0630 N.3    74  MET74      -0.1230
      2  CA        27.3400  -30.0190  -25.3760 C.3    74  MET74       0.1702
      3  C         27.0110  -29.9670  -26.8770 C.2    74  MET74       0.2592
      4  O         27.9100  -29.8840  -27.7140 O.2    74  MET74      -0.2718
      5  CB        28.2660  -28.8850  -24.9710 C.3    74  MET74       0.0401
      6  CG        28.6420  -28.9100  -23.4770 C.3    74  MET74       0.0596
      7  SD        27.2530  -28.9420  -22.3200 S.3    74  MET74      -0.1393
      8  CE        26.6360  -27.2960  -22.6400 C.3    74  MET74       0.0692
      9  N         25.7320  -30.0240  -27.2190 N.am   75  GLU75      -0.1966
     10  CA        25.3380  -30.3200  -28.6050 C.3    75  GLU75       0.1733
     11  C         25.6080  -29.1420  -29.5470 C.2    75  GLU75       0.2616
     12  O         26.2670  -29.3060  -30.5740 O.2    75  GLU75      -0.2715
     13  CB        23.8700  -30.7560  -28.6150 C.3    75  GLU75       0.0429
     14  CG        23.3740  -31.2620  -29.9630 C.3    75  GLU75       0.1163
     15  CD        22.0000  -31.9100  -29.8840 C.2    75  GLU75       0.3649
     16  OE1       21.2110  -31.5600  -28.9730 O.co2  75  GLU75      -0.2457
     17  OE2       21.7170  -32.7840  -30.7340 O.co2  75  GLU75      -0.2457
     18  N         25.1560  -27.9330  -29.2070 N.am   76  GLU76      -0.1963
     19  CA        25.3930  -26.8010  -30.1090 C.3    76  GLU76       0.1733
     20  C         26.8760  -26.4570  -30.2190 C.2    76  GLU76       0.2616
     21  O         27.3630  -26.1120  -31.3010 O.2    76  GLU76      -0.2715
     22  CB        24.6220  -25.5720  -29.6410 C.3    76  GLU76       0.0429
     23  CG        24.7400  -24.4110  -30.6370 C.3    76  GLU76       0.1163
     24  CD        24.1400  -23.0830  -30.1670 C.2    76  GLU76       0.3649
     25  OE1       23.4340  -23.0150  -29.1360 O.co2  76  GLU76      -0.2457
     26  OE2       24.3850  -22.0670  -30.8530 O.co2  76  GLU76      -0.2457
     27  N         27.6050  -26.5050  -29.1170 N.am   77  ALA77      -0.1977
     28  CA        29.0310  -26.1710  -29.1580 C.3    77  ALA77       0.1597
     29  C         29.8640  -27.2600  -29.7990 C.2    77  ALA77       0.2287
     30  O         31.0240  -27.0160  -30.1300 O.2    77  ALA77      -0.2864
     31  CB        29.5570  -25.9130  -27.7360 C.3    77  ALA77       0.0319
     32  N         33.0350  -23.6830  -23.2120 N.3   230  THR230     -0.1218
     33  CA        31.8250  -23.8010  -24.0250 C.3   230  THR230      0.1862
     34  C         31.2360  -22.4190  -24.3510 C.2   230  THR230      0.2287
     35  O         30.8660  -22.1460  -25.5020 O.2   230  THR230     -0.2866
     36  CB        30.7970  -24.7020  -23.3120 C.3   230  THR230      0.1770
     37  OG1       31.1960  -26.0750  -23.4280 O.3   230  THR230     -0.2211
     38  CG2       29.3730  -24.5630  -23.9600 C.3   230  THR230      0.0375
     39  N         30.7120  -20.8960  -28.1810 N.3   234  LEU234     -0.1245
     40  CA        29.4200  -20.4350  -28.6950 C.3   234  LEU234      0.1561
     41  C         29.4800  -18.9820  -29.1700 C.2   234  LEU234      0.2260
     42  O         28.8190  -18.6250  -30.1480 O.2   234  LEU234     -0.2867
     43  CB        28.3230  -20.5750  -27.6430 C.3   234  LEU234      0.0270
     44  CG        27.9660  -22.0080  -27.2740 C.3   234  LEU234      0.0019
     45  CD1       27.0800  -22.0440  -26.0160 C.3   234  LEU234      0.0001
     46  CD2       27.2840  -22.7230  -28.4050 C.3   234  LEU234      0.0001
     47  N         28.1730  -18.1320  -33.1850 N.3   238  ARG238     -0.1245
     48  CA        26.8620  -17.5010  -33.4060 C.3   238  ARG238      0.1563
     49  C         26.9560  -16.1490  -34.1140 C.2   238  ARG238      0.2260
     50  O         27.9400  -15.4150  -33.9820 O.2   238  ARG238     -0.2867
     51  CB        26.1410  -17.2820  -32.0670 C.3   238  ARG238      0.0307
     52  CG        25.5320  -18.5440  -31.4540 C.3   238  ARG238      0.0489
     53  CD        24.7010  -18.2130  -30.2230 C.3   238  ARG238      0.2205
     54  NE        24.2350  -19.4200  -29.5560 N.pl3 238  ARG238     -0.0865
     55  CZ        23.5320  -19.4260  -28.4320 C.cat 238  ARG238      0.5346
     56  NH1       23.2270  -18.2830  -27.8340 N.pl3 238  ARG238      0.1354
     57  NH2       23.1580  -20.5790  -27.8970 N.pl3 238  ARG238      0.1354
     58  N         22.0650  -20.2100  -18.6220 N.3   248  LYS248     -0.1231
     59  CA        21.4480  -21.2990  -19.3730 C.3   248  LYS248      0.1693
     60  C         22.4560  -22.3820  -19.7470 C.2   248  LYS248      0.2591
     61  O         22.1200  -23.5690  -19.7620 O.2   248  LYS248     -0.2718
     62  CB        20.7860  -20.7580  -20.6460 C.3   248  LYS248      0.0285
     63  CG        19.4920  -19.9930  -20.3360 C.3   248  LYS248      0.0035
     64  CD        18.9000  -19.3570  -21.5870 C.3   248  LYS248      0.0206
     65  CE        17.5820  -18.6490  -21.2750 C.3   248  LYS248      0.1093
     66  NZ        17.1410  -17.7960  -22.4150 N.3   248  LYS248     -0.1314
     67  N         23.6740  -22.0020  -20.1050 N.am  249  VAL249     -0.1980
     68  CA        24.6700  -23.0180  -20.4330 C.3   249  VAL249      0.1595
     69  C         24.9770  -23.8510  -19.1940 C.2   249  VAL249      0.2287
     70  O         25.0890  -25.0820  -19.2620 O.2   249  VAL249     -0.2864
     71  CB        25.9230  -22.3410  -21.0170 C.3   249  VAL249      0.0276
     72  CG1       27.0590  -23.3740  -21.2750 C.3   249  VAL249      0.0022
     73  CG2       25.5650  -21.5950  -22.3230 C.3   249  VAL249      0.0022
     74  N         22.2410  -26.3630  -18.5810 N.3   252  GLU252     -0.1245
     75  CA        22.3590  -27.4750  -19.5130 C.3   252  GLU252      0.1567
     76  C         23.4270  -28.4550  -19.0260 C.2   252  GLU252      0.2260
     77  O         23.2300  -29.6750  -19.0570 O.2   252  GLU252     -0.2867
     78  CB        22.6910  -26.9510  -20.9300 C.3   252  GLU252      0.0388
     79  CG        22.9110  -28.0360  -22.0260 C.3   252  GLU252      0.1160
     80  CD        21.6480  -28.8360  -22.3920 C.2   252  GLU252      0.3649
     81  OE1       20.5180  -28.3320  -22.1410 O.co2 252  GLU252     -0.2457
     82  OE2       21.7880  -29.9700  -22.9210 O.co2 252  GLU252     -0.2457
@<TRIPOS>BOND
     1    49    50    2
     2    49    48    1
     3    48    47    1
     4    48    51    1
     5    51    52    1
     6    52    53    1
     7    21    20    2
     8    26    24   ar
     9    17    15   ar
    10    23    24    1
    11    23    22    1
    12    12    11    2
    13    53    54    1
    14    20    19    1
    15    20    27   am
    16    24    25   ar
    17    42    41    2
    18    30    29    2
    19    19    22    1
    20    19    18    1
    21    14    15    1
    22    14    13    1
    23    15    16   ar
    24    29    28    1
    25    54    55    2
    26    11    18   am
    27    11    10    1
    28    41    40    1
    29    28    27    1
    30    28    31    1
    31    40    39    1
    32    40    43    1
    33    13    10    1
    34    10     9    1
    35    55    57    1
    36    55    56    1
    37    46    44    1
    38     4     3    2
    39    43    44    1
    40    44    45    1
    41     9     3   am
    42     3     2    1
    43    35    34    2
    44     2     1    1
    45     2     5    1
    46     5     6    1
    47    34    33    1
    48    33    36    1
    49    33    32    1
    50    38    36    1
    51     6     7    1
    52    37    36    1
    53    82    80   ar
    54     8     7    1
    55    66    65    1
    56    80    81   ar
    57    80    79    1
    58    73    71    1
    59    79    78    1
    60    64    65    1
    61    64    63    1
    62    72    71    1
    63    71    68    1
    64    78    75    1
    65    62    63    1
    66    62    59    1
    67    68    67    1
    68    68    69    1
    69    67    60   am
    70    61    60    2
    71    60    59    1
    72    75    76    1
    73    75    74    1
    74    59    58    1
    75    70    69    2
    76    77    76    2
