@<TRIPOS>MOLECULE
tmp/5qfuA01.pdb
 97 94 0 0 0
SMALL
GASTEIGER

@<TRIPOS>ATOM
      1  N        -28.4670    4.8260   -1.1430 N.3    60  HIS60      -0.1226
      2  CA       -27.5260    4.0470   -1.9670 C.3    60  HIS60       0.1752
      3  C        -26.2280    3.8720   -1.1860 C.2    60  HIS60       0.2595
      4  O        -25.1910    4.4660   -1.4670 O.2    60  HIS60      -0.2718
      5  CB       -27.2760    4.7230   -3.3060 C.3    60  HIS60       0.0759
      6  CG       -28.4960    4.9110   -4.1500 C.ar   60  HIS60       0.0818
      7  ND1      -28.4530    5.5580   -5.3650 N.ar   60  HIS60      -0.2268
      8  CD2      -29.7900    4.5630   -3.9550 C.ar   60  HIS60       0.1154
      9  CE1      -29.6660    5.6020   -5.8830 C.ar   60  HIS60       0.1986
     10  NE2      -30.4990    5.0070   -5.0460 N.ar   60  HIS60      -0.2212
     11  N        -26.3230    3.0280   -0.1680 N.am   61  GLN61      -0.1979
     12  CA       -25.2410    2.7970    0.7720 C.3    61  GLN61       0.1601
     13  C        -25.3710    1.3520    1.2260 C.2    61  GLN61       0.2287
     14  O        -26.4830    0.8710    1.4460 O.2    61  GLN61      -0.2864
     15  CB       -25.3340    3.7820    1.9500 C.3    61  GLN61       0.0394
     16  CG       -24.0110    4.3640    2.4040 C.3    61  GLN61       0.0908
     17  CD       -23.5130    3.7110    3.6750 C.2    61  GLN61       0.2608
     18  OE1      -22.6220    2.8590    3.6410 O.2    61  GLN61      -0.2717
     19  NE2      -24.0960    4.1010    4.8080 N.am   61  GLN61      -0.0878
     20  N        -28.3210   13.3080    1.0880 N.3    97  GLU97      -0.1245
     21  CA       -27.9950   12.1650    0.2380 C.3    97  GLU97       0.1567
     22  C        -29.2280   11.7110   -0.5520 C.2    97  GLU97       0.2260
     23  O        -29.1420   11.4660   -1.7620 O.2    97  GLU97      -0.2867
     24  CB       -27.4380   11.0160    1.0860 C.3    97  GLU97       0.0388
     25  CG       -27.1980    9.7350    0.2450 C.3    97  GLU97       0.1160
     26  CD       -26.7500    8.5030    1.0290 C.2    97  GLU97       0.3649
     27  OE1      -26.6390    8.5010    2.2730 O.co2  97  GLU97      -0.2457
     28  OE2      -26.5030    7.4780    0.3310 O.co2  97  GLU97      -0.2457
     29  N        -30.1110   14.1850   -3.3520 N.3   100  TRP100     -0.1227
     30  CA       -29.1830   13.9910   -4.4700 C.3   100  TRP100      0.1737
     31  C        -29.5400   12.7430   -5.2760 C.2   100  TRP100      0.2595
     32  O        -29.6730   12.7980   -6.5100 O.2   100  TRP100     -0.2718
     33  CB       -27.7550   13.8740   -3.9460 C.3   100  TRP100      0.0564
     34  CG       -26.7580   13.7330   -5.0960 C.ar  100  TRP100      0.0003
     35  CD1      -26.3130   12.5680   -5.6630 C.ar  100  TRP100      0.0946
     36  CD2      -26.1620   14.8060   -5.8580 C.ar  100  TRP100      0.0152
     37  NE1      -25.4760   12.8440   -6.7380 N.ar  100  TRP100     -0.2442
     38  CE2      -25.3630   14.2060   -6.8670 C.ar  100  TRP100      0.0810
     39  CE3      -26.2290   16.1990   -5.7890 C.ar  100  TRP100      0.0012
     40  CZ2      -24.6310   14.9690   -7.7890 C.ar  100  TRP100      0.0191
     41  CZ3      -25.4880   16.9570   -6.7020 C.ar  100  TRP100      0.0001
     42  CH2      -24.7030   16.3320   -7.6910 C.ar  100  TRP100      0.0015
     43  N        -29.6740   11.6060   -4.5910 N.am  101  GLU101     -0.1979
     44  CA       -29.8500   10.3150   -5.2700 C.3   101  GLU101      0.1602
     45  C        -31.1820   10.2150   -6.0040 C.2   101  GLU101      0.2287
     46  O        -31.2550    9.5830   -7.0770 O.2   101  GLU101     -0.2864
     47  CB       -29.6820    9.1760   -4.2390 C.3   101  GLU101      0.0415
     48  CG       -28.2350    8.9470   -3.7930 C.3   101  GLU101      0.1163
     49  CD       -28.0550    8.0470   -2.5820 C.2   101  GLU101      0.3649
     50  OE1      -29.0520    7.6040   -1.9640 O.co2 101  GLU101     -0.2457
     51  OE2      -26.8840    7.7980   -2.2240 O.co2 101  GLU101     -0.2457
     52  N        -20.2560   12.6410    6.6330 N.3   137  ASP137     -0.1225
     53  CA       -20.6460   11.2370    6.5300 C.3   137  ASP137      0.1805
     54  C        -21.1310   10.8680    5.1220 C.2   137  ASP137      0.2598
     55  O        -20.9220    9.7320    4.6900 O.2   137  ASP137     -0.2718
     56  CB       -21.6830   10.8760    7.6080 C.3   137  ASP137      0.1424
     57  CG       -22.9690   11.7040    7.5430 C.2   137  ASP137      0.3668
     58  OD1      -23.0010   12.8220    6.9750 O.co2 137  ASP137     -0.2456
     59  OD2      -23.9620   11.2220    8.1260 O.co2 137  ASP137     -0.2456
     60  N        -21.7320   11.7950    4.3690 N.am  138  THR138     -0.1939
     61  CA       -22.2030   11.4990    3.0150 C.3   138  THR138      0.2028
     62  C        -21.4620   12.2640    1.9120 C.2   138  THR138      0.2642
     63  O        -21.8090   12.1280    0.7310 O.2   138  THR138     -0.2714
     64  CB       -23.7090   11.7730    2.9150 C.3   138  THR138      0.1808
     65  OG1      -23.9820   13.1220    3.3230 O.3   138  THR138     -0.2208
     66  CG2      -24.4880   10.8120    3.8200 C.3   138  THR138      0.0379
     67  N        -20.4690   13.0740    2.2700 N.am  139  ASN139     -0.1957
     68  CA       -19.5900   13.7690    1.3170 C.3   139  ASN139      0.1819
     69  C        -20.3450   14.7410    0.4060 C.2   139  ASN139      0.2621
     70  O        -20.1920   14.7270   -0.8200 O.2   139  ASN139     -0.2715
     71  CB       -18.7790   12.7720    0.4860 C.3   139  ASN139      0.1195
     72  CG       -17.3880   13.2990    0.1500 C.2   139  ASN139      0.2630
     73  OD1      -16.7930   14.0580    0.9250 O.2   139  ASN139     -0.2716
     74  ND2      -16.8800   12.9260   -1.0180 N.am  139  ASN139     -0.0877
     75  N        -21.1220   15.6360    1.0240 N.am  140  LEU140     -0.1977
     76  CA       -21.8710   16.6650    0.3120 C.3   140  LEU140      0.1596
     77  C        -21.5680   18.0430    0.8990 C.2   140  LEU140      0.2287
     78  O        -21.3310   18.1930    2.1110 O.2   140  LEU140     -0.2864
     79  CB       -23.4000   16.4020    0.3860 C.3   140  LEU140      0.0297
     80  CG       -23.8960   15.1740   -0.3850 C.3   140  LEU140      0.0022
     81  CD1      -25.2360   14.7150    0.1900 C.3   140  LEU140      0.0001
     82  CD2      -24.0070   15.4780   -1.8430 C.3   140  LEU140      0.0001
     83  N        -21.9200   17.2850   -4.9010 N.3   162  ASN162     -0.1240
     84  CA       -21.4070   15.9590   -4.5810 C.3   162  ASN162      0.1653
     85  C        -19.8850   16.0330   -4.6120 C.2   162  ASN162      0.2266
     86  O        -19.2900   16.1430   -5.6900 O.2   162  ASN162     -0.2867
     87  CB       -21.9580   14.9440   -5.5800 C.3   162  ASN162      0.1155
     88  CG       -21.4330   13.5270   -5.3500 C.2   162  ASN162      0.2627
     89  OD1      -20.5260   13.2920   -4.5510 O.2   162  ASN162     -0.2716
     90  ND2      -22.0170   12.5750   -6.0640 N.am  162  ASN162     -0.0877
     91  N        -17.6170   13.9140   -4.1410 N.3   164  THR164     -0.1218
     92  CA       -16.9270   12.7790   -4.7510 C.3   164  THR164      0.1862
     93  C        -16.7220   13.0110   -6.2500 C.2   164  THR164      0.2287
     94  O        -15.6570   12.6890   -6.7880 O.2   164  THR164     -0.2866
     95  CB       -17.7210   11.4720   -4.5100 C.3   164  THR164      0.1770
     96  OG1      -17.8690   11.1740   -3.1070 O.3   164  THR164     -0.2211
     97  CG2      -17.0220   10.2820   -5.1400 C.3   164  THR164      0.0375
@<TRIPOS>BOND
     1    40    42   ar
     2    40    38   ar
     3    42    41   ar
     4    46    45    2
     5    38    37   ar
     6    38    36   ar
     7    94    93    2
     8    37    35   ar
     9    41    39   ar
    10    32    31    2
    11    93    92    1
    12    90    88   am
    13    45    44    1
    14     9     7   ar
    15     9    10   ar
    16    36    39   ar
    17    36    34   ar
    18    86    85    2
    19    35    34   ar
    20    87    88    1
    21    87    84    1
    22     7     6   ar
    23    88    89    2
    24    31    43   am
    25    31    30    1
    26    44    43    1
    27    44    47    1
    28    97    95    1
    29    34    33    1
    30    10     8   ar
    31    83    84    1
    32    92    95    1
    33    92    91    1
    34    85    84    1
    35    95    96    1
    36    30    33    1
    37    30    29    1
    38    47    48    1
    39     6     8   ar
    40     6     5    1
    41    48    49    1
    42     5     2    1
    43    49    51   ar
    44    49    50   ar
    45     2     3    1
    46     2     1    1
    47    82    80    1
    48    23    22    2
    49     4     3    2
    50     3    11   am
    51    74    72   am
    52    70    69    2
    53    22    21    1
    54    80    81    1
    55    80    79    1
    56    11    12    1
    57    72    71    1
    58    72    73    2
    59    21    24    1
    60    21    20    1
    61    25    26    1
    62    25    24    1
    63    76    79    1
    64    76    77    1
    65    76    75    1
    66    28    26   ar
    67    69    75   am
    68    69    68    1
    69    71    68    1
    70    63    62    2
    71    12    13    1
    72    12    15    1
    73    77    78    2
    74    26    27   ar
    75    13    14    2
    76    68    67    1
    77    62    67   am
    78    62    61    1
    79    15    16    1
    80    16    17    1
    81    64    61    1
    82    64    65    1
    83    64    66    1
    84    61    60    1
    85    18    17    2
    86    17    19   am
    87    60    54   am
    88    55    54    2
    89    54    53    1
    90    53    52    1
    91    53    56    1
    92    58    57   ar
    93    57    56    1
    94    57    59   ar
