@<TRIPOS>MOLECULE
tmp/5qfvA00.pdb
 97 94 0 0 0
SMALL
GASTEIGER

@<TRIPOS>ATOM
      1  N        -28.4350    4.7660   -1.1750 N.3    60  HIS60      -0.1226
      2  CA       -27.4930    3.9820   -1.9970 C.3    60  HIS60       0.1752
      3  C        -26.1970    3.8050   -1.2130 C.2    60  HIS60       0.2595
      4  O        -25.1540    4.3820   -1.5070 O.2    60  HIS60      -0.2718
      5  CB       -27.2360    4.6590   -3.3340 C.3    60  HIS60       0.0759
      6  CG       -28.4550    4.8420   -4.1800 C.ar   60  HIS60       0.0818
      7  ND1      -28.4150    5.5020   -5.3890 N.ar   60  HIS60      -0.2268
      8  CD2      -29.7480    4.4950   -3.9830 C.ar   60  HIS60       0.1154
      9  CE1      -29.6290    5.5380   -5.9090 C.ar   60  HIS60       0.1986
     10  NE2      -30.4580    4.9330   -5.0750 N.ar   60  HIS60      -0.2212
     11  N        -26.2990    2.9730   -0.1850 N.am   61  GLN61      -0.1979
     12  CA       -25.2130    2.7450    0.7510 C.3    61  GLN61       0.1601
     13  C        -25.3380    1.3060    1.2300 C.2    61  GLN61       0.2287
     14  O        -26.4390    0.8460    1.5250 O.2    61  GLN61      -0.2864
     15  CB       -25.2980    3.7440    1.9160 C.3    61  GLN61       0.0394
     16  CG       -23.9640    4.2820    2.3870 C.3    61  GLN61       0.0908
     17  CD       -23.4780    3.5730    3.6280 C.2    61  GLN61       0.2608
     18  OE1      -22.6060    2.7040    3.5610 O.2    61  GLN61      -0.2717
     19  NE2      -24.0510    3.9330    4.7740 N.am   61  GLN61      -0.0878
     20  N        -28.2620   13.2440    1.0560 N.3    97  GLU97      -0.1245
     21  CA       -27.9450   12.1030    0.1990 C.3    97  GLU97       0.1567
     22  C        -29.1810   11.6480   -0.5820 C.2    97  GLU97       0.2260
     23  O        -29.1020   11.4030   -1.7890 O.2    97  GLU97      -0.2867
     24  CB       -27.3880   10.9510    1.0390 C.3    97  GLU97       0.0388
     25  CG       -27.1540    9.6610    0.2020 C.3    97  GLU97       0.1160
     26  CD       -26.7050    8.4300    0.9850 C.2    97  GLU97       0.3649
     27  OE1      -26.6040    8.4460    2.2340 O.co2  97  GLU97      -0.2457
     28  OE2      -26.4500    7.4050    0.2840 O.co2  97  GLU97      -0.2457
     29  N        -30.0970   14.1170   -3.3990 N.3   100  TRP100     -0.1227
     30  CA       -29.1620   13.9200   -4.5080 C.3   100  TRP100      0.1737
     31  C        -29.5180   12.6700   -5.3080 C.2   100  TRP100      0.2595
     32  O        -29.6570   12.7200   -6.5380 O.2   100  TRP100     -0.2718
     33  CB       -27.7310   13.7960   -3.9770 C.3   100  TRP100      0.0564
     34  CG       -26.7330   13.6500   -5.1300 C.ar  100  TRP100      0.0003
     35  CD1      -26.2890   12.4860   -5.6990 C.ar  100  TRP100      0.0946
     36  CD2      -26.1180   14.7180   -5.8760 C.ar  100  TRP100      0.0152
     37  NE1      -25.4390   12.7600   -6.7590 N.ar  100  TRP100     -0.2442
     38  CE2      -25.3120   14.1200   -6.8790 C.ar  100  TRP100      0.0810
     39  CE3      -26.1700   16.1120   -5.7960 C.ar  100  TRP100      0.0012
     40  CZ2      -24.5620   14.8790   -7.7930 C.ar  100  TRP100      0.0191
     41  CZ3      -25.4150   16.8680   -6.7040 C.ar  100  TRP100      0.0001
     42  CH2      -24.6290   16.2400   -7.6910 C.ar  100  TRP100      0.0015
     43  N        -29.6480   11.5360   -4.6170 N.am  101  GLU101     -0.1979
     44  CA       -29.8300   10.2440   -5.2970 C.3   101  GLU101      0.1602
     45  C        -31.1710   10.1470   -6.0240 C.2   101  GLU101      0.2287
     46  O        -31.2540    9.5100   -7.0880 O.2   101  GLU101     -0.2864
     47  CB       -29.6530    9.1000   -4.2800 C.3   101  GLU101      0.0415
     48  CG       -28.2110    8.8880   -3.8320 C.3   101  GLU101      0.1163
     49  CD       -28.0210    7.9850   -2.6300 C.2   101  GLU101      0.3649
     50  OE1      -29.0100    7.5260   -2.0140 O.co2 101  GLU101     -0.2457
     51  OE2      -26.8450    7.7550   -2.2710 O.co2 101  GLU101     -0.2457
     52  N        -20.1590   12.5730    6.5700 N.3   137  ASP137     -0.1225
     53  CA       -20.5610   11.1700    6.4710 C.3   137  ASP137      0.1805
     54  C        -21.0610   10.8020    5.0690 C.2   137  ASP137      0.2598
     55  O        -20.8930    9.6560    4.6500 O.2   137  ASP137     -0.2718
     56  CB       -21.5950   10.8200    7.5540 C.3   137  ASP137      0.1424
     57  CG       -22.8890   11.6360    7.4710 C.2   137  ASP137      0.3668
     58  OD1      -22.9160   12.7520    6.8950 O.co2 137  ASP137     -0.2456
     59  OD2      -23.8930   11.1440    8.0260 O.co2 137  ASP137     -0.2456
     60  N        -21.6400   11.7410    4.3140 N.am  138  THR138     -0.1939
     61  CA       -22.1080   11.4510    2.9570 C.3   138  THR138      0.2028
     62  C        -21.3550   12.2110    1.8560 C.2   138  THR138      0.2642
     63  O        -21.6800   12.0530    0.6740 O.2   138  THR138     -0.2714
     64  CB       -23.6140   11.7370    2.8620 C.3   138  THR138      0.1808
     65  OG1      -23.8720   13.0920    3.2700 O.3   138  THR138     -0.2208
     66  CG2      -24.3990   10.7780    3.7720 C.3   138  THR138      0.0379
     67  N        -20.3670   13.0300    2.2140 N.am  139  ASN139     -0.1957
     68  CA       -19.4960   13.7300    1.2560 C.3   139  ASN139      0.1819
     69  C        -20.2560   14.7010    0.3420 C.2   139  ASN139      0.2621
     70  O        -20.0920   14.7040   -0.8840 O.2   139  ASN139     -0.2715
     71  CB       -18.6820   12.7350    0.4290 C.3   139  ASN139      0.1195
     72  CG       -17.2900   13.2650    0.1100 C.2   139  ASN139      0.2630
     73  OD1      -16.7110   14.0330    0.8750 O.2   139  ASN139     -0.2716
     74  ND2      -16.7700   12.8850   -1.0330 N.am  139  ASN139     -0.0877
     75  N        -21.0510   15.5710    0.9600 N.am  140  LEU140     -0.1977
     76  CA       -21.8020   16.5980    0.2530 C.3   140  LEU140      0.1596
     77  C        -21.4930   17.9710    0.8420 C.2   140  LEU140      0.2287
     78  O        -21.2680   18.1190    2.0540 O.2   140  LEU140     -0.2864
     79  CB       -23.3300   16.3380    0.3340 C.3   140  LEU140      0.0297
     80  CG       -23.8210   15.1000   -0.4230 C.3   140  LEU140      0.0022
     81  CD1      -25.1640   14.6490    0.1400 C.3   140  LEU140      0.0001
     82  CD2      -23.9270   15.3970   -1.8880 C.3   140  LEU140      0.0001
     83  N        -21.8520   17.2230   -4.9420 N.3   162  ASN162     -0.1240
     84  CA       -21.3350   15.8970   -4.6260 C.3   162  ASN162      0.1653
     85  C        -19.8170   15.9780   -4.6610 C.2   162  ASN162      0.2266
     86  O        -19.2240   16.1040   -5.7400 O.2   162  ASN162     -0.2867
     87  CB       -21.8850   14.8840   -5.6280 C.3   162  ASN162      0.1155
     88  CG       -21.3350   13.4770   -5.4330 C.2   162  ASN162      0.2627
     89  OD1      -20.3900   13.2520   -4.6730 O.2   162  ASN162     -0.2716
     90  ND2      -21.9360   12.5180   -6.1290 N.am  162  ASN162     -0.0877
     91  N        -17.5560   13.8060   -4.1920 N.3   164  THR164     -0.1218
     92  CA       -16.8570   12.6870   -4.8240 C.3   164  THR164      0.1862
     93  C        -16.6430   12.9590   -6.3130 C.2   164  THR164      0.2287
     94  O        -15.5700   12.6650   -6.8530 O.2   164  THR164     -0.2866
     95  CB       -17.6330   11.3630   -4.6220 C.3   164  THR164      0.1770
     96  OG1      -17.7410   11.0080   -3.2390 O.3   164  THR164     -0.2211
     97  CG2      -16.9420   10.2140   -5.3470 C.3   164  THR164      0.0375
@<TRIPOS>BOND
     1    40    42   ar
     2    40    38   ar
     3    42    41   ar
     4    46    45    2
     5    38    37   ar
     6    38    36   ar
     7    94    93    2
     8    37    35   ar
     9    41    39   ar
    10    32    31    2
    11    93    92    1
    12    90    88   am
    13    45    44    1
    14     9     7   ar
    15     9    10   ar
    16    36    39   ar
    17    36    34   ar
    18    86    85    2
    19    35    34   ar
    20    87    88    1
    21    87    84    1
    22    88    89    2
    23     7     6   ar
    24    97    95    1
    25    31    43   am
    26    31    30    1
    27    44    43    1
    28    44    47    1
    29    34    33    1
    30    10     8   ar
    31    83    84    1
    32    92    95    1
    33    92    91    1
    34    85    84    1
    35    95    96    1
    36    30    33    1
    37    30    29    1
    38    47    48    1
    39     6     8   ar
    40     6     5    1
    41    48    49    1
    42     5     2    1
    43    49    51   ar
    44    49    50   ar
    45     2     3    1
    46     2     1    1
    47    82    80    1
    48    23    22    2
    49     4     3    2
    50     3    11   am
    51    74    72   am
    52    70    69    2
    53    22    21    1
    54    80    81    1
    55    80    79    1
    56    11    12    1
    57    72    71    1
    58    72    73    2
    59    21    24    1
    60    21    20    1
    61    25    26    1
    62    25    24    1
    63    76    79    1
    64    76    77    1
    65    76    75    1
    66    28    26   ar
    67    69    75   am
    68    69    68    1
    69    71    68    1
    70    63    62    2
    71    12    13    1
    72    12    15    1
    73    77    78    2
    74    26    27   ar
    75    13    14    2
    76    68    67    1
    77    62    67   am
    78    62    61    1
    79    15    16    1
    80    16    17    1
    81    64    61    1
    82    64    65    1
    83    64    66    1
    84    61    60    1
    85    18    17    2
    86    17    19   am
    87    60    54   am
    88    55    54    2
    89    54    53    1
    90    53    52    1
    91    53    56    1
    92    58    57   ar
    93    57    56    1
    94    57    59   ar
