@<TRIPOS>MOLECULE
tmp/5qfxA00.pdb
 123 117 0 0 0
SMALL
GASTEIGER

@<TRIPOS>ATOM
      1  N        -41.5760   25.1110   11.6200 N.3   112  ARG112     -0.1231
      2  CA       -40.4320   25.8910   12.0710 C.3   112  ARG112      0.1694
      3  C        -39.4980   24.9920   12.8830 C.2   112  ARG112      0.2592
      4  O        -39.9090   23.9730   13.4390 O.2   112  ARG112     -0.2718
      5  CB       -40.8920   27.1120   12.8960 C.3   112  ARG112      0.0321
      6  CG       -41.6800   28.1290   12.1060 C.3   112  ARG112      0.0489
      7  CD       -42.4090   29.1900   12.9430 C.3   112  ARG112      0.2205
      8  NE       -43.4190   28.6650   13.8620 N.pl3 112  ARG112     -0.0865
      9  CZ       -44.6420   28.2820   13.4880 C.cat 112  ARG112      0.5346
     10  NH1      -45.0080   28.3440   12.2050 N.pl3 112  ARG112      0.1354
     11  NH2      -45.5020   27.8110   14.3910 N.pl3 112  ARG112      0.1354
     12  N        -38.2140   25.3690   12.9250 N.am  113  VAL113     -0.1966
     13  CA       -37.2070   24.5570   13.6070 C.3   113  VAL113      0.1727
     14  C        -37.5650   24.3960   15.1010 C.2   113  VAL113      0.2616
     15  O        -37.4520   23.2970   15.6720 O.2   113  VAL113     -0.2715
     16  CB       -35.8050   25.1760   13.4100 C.3   113  VAL113      0.0290
     17  CG1      -34.8100   24.6050   14.3570 C.3   113  VAL113      0.0023
     18  CG2      -35.2960   24.9780   11.9510 C.3   113  VAL113      0.0023
     19  N        -38.0640   25.4580   15.7260 N.am  114  MET114     -0.1977
     20  CA       -38.6060   25.4150   17.0870 C.3   114  MET114      0.1605
     21  C        -40.0940   25.7640   17.0890 C.2   114  MET114      0.2287
     22  O        -40.5110   26.7960   16.5280 O.2   114  MET114     -0.2864
     23  CB       -37.8620   26.3620   18.0430 C.3   114  MET114      0.0413
     24  CG       -38.4830   26.3230   19.4590 C.3   114  MET114      0.0598
     25  SD       -37.4630   27.0170   20.8130 S.3   114  MET114     -0.1393
     26  CE       -36.2200   25.7500   20.8960 C.3   114  MET114      0.0692
     27  N        -31.3300   22.0680   12.1900 N.3   123  GLN123     -0.1245
     28  CA       -31.0400   23.1760   11.2690 C.3   123  GLN123      0.1566
     29  C        -30.2060   22.5780   10.1460 C.2   123  GLN123      0.2260
     30  O        -28.9820   22.4910   10.2280 O.2   123  GLN123     -0.2867
     31  CB       -30.3260   24.3250   11.9930 C.3   123  GLN123      0.0367
     32  CG       -29.9840   25.5560   11.0990 C.3   123  GLN123      0.0905
     33  CD       -31.1970   26.2240   10.5540 C.2   123  GLN123      0.2608
     34  OE1      -32.1280   26.5940   11.3050 O.2   123  GLN123     -0.2717
     35  NE2      -31.2380   26.3690    9.2270 N.am  123  GLN123     -0.0878
     36  N        -29.9300   23.2760    6.7700 N.3   125  TRP125     -0.1241
     37  CA       -29.4420   24.0790    5.6480 C.3   125  TRP125      0.1605
     38  C        -28.6810   25.2880    6.1910 C.2   125  TRP125      0.2264
     39  O        -28.8740   25.6940    7.3420 O.2   125  TRP125     -0.2867
     40  CB       -30.6030   24.5240    4.7310 C.3   125  TRP125      0.0550
     41  CG       -31.4720   25.6040    5.3420 C.ar  125  TRP125      0.0003
     42  CD1      -31.3610   27.0030    5.1400 C.ar  125  TRP125      0.0946
     43  CD2      -32.5590   25.4360    6.2630 C.ar  125  TRP125      0.0152
     44  NE1      -32.3000   27.6570    5.8840 N.ar  125  TRP125     -0.2442
     45  CE2      -33.0500   26.7330    6.5820 C.ar  125  TRP125      0.0810
     46  CE3      -33.1630   24.3240    6.8580 C.ar  125  TRP125      0.0012
     47  CZ2      -34.1070   26.9320    7.4640 C.ar  125  TRP125      0.0191
     48  CZ3      -34.2020   24.5230    7.7410 C.ar  125  TRP125      0.0001
     49  CH2      -34.6820   25.8120    8.0350 C.ar  125  TRP125      0.0015
     50  N        -27.4980   29.1650    6.8600 N.3   127  GLN127     -0.1245
     51  CA       -28.2280   30.4180    7.0120 C.3   127  GLN127      0.1566
     52  C        -27.4830   31.6380    6.4580 C.2   127  GLN127      0.2260
     53  O        -28.1100   32.6950    6.2900 O.2   127  GLN127     -0.2867
     54  CB       -28.5660   30.6480    8.4870 C.3   127  GLN127      0.0367
     55  CG       -29.5180   29.5920    9.0180 C.3   127  GLN127      0.0905
     56  CD       -29.7730   29.6930   10.4950 C.2   127  GLN127      0.2608
     57  OE1      -28.9600   29.2640   11.3200 O.2   127  GLN127     -0.2717
     58  NE2      -30.9170   30.2530   10.8440 N.am  127  GLN127     -0.0878
     59  N        -37.4850   36.3150    1.5460 N.3   149  ILE149     -0.1231
     60  CA       -38.3780   36.2160    2.7100 C.3   149  ILE149      0.1692
     61  C        -39.6620   36.9860    2.4510 C.2   149  ILE149      0.2592
     62  O        -39.6200   38.2080    2.2570 O.2   149  ILE149     -0.2718
     63  CB       -37.7000   36.7420    3.9790 C.3   149  ILE149      0.0266
     64  CG1      -36.4170   35.9690    4.2600 C.3   149  ILE149      0.0019
     65  CG2      -38.6570   36.6400    5.1400 C.3   149  ILE149      0.0020
     66  CD1      -35.6080   36.5310    5.3990 C.3   149  ILE149      0.0001
     67  N        -40.7900   36.2950    2.4730 N.am  150  LYS150     -0.1966
     68  CA       -42.1030   36.8890    2.2790 C.3   150  LYS150      0.1728
     69  C        -42.8960   36.7500    3.5690 C.2   150  LYS150      0.2616
     70  O        -42.4320   36.1910    4.5630 O.2   150  LYS150     -0.2715
     71  CB       -42.8290   36.2550    1.0770 C.3   150  LYS150      0.0311
     72  CG       -42.0500   36.2860   -0.2550 C.3   150  LYS150      0.0038
     73  CD       -42.2230   37.5870   -1.0320 C.3   150  LYS150      0.0206
     74  CE       -42.4770   37.3180   -2.5190 C.3   150  LYS150      0.1093
     75  NZ       -41.3760   36.5500   -3.1670 N.3   150  LYS150     -0.1314
     76  N        -44.1150   37.2720    3.5530 N.am  151  SER151     -0.1950
     77  CA       -44.8900   37.3440    4.7850 C.3   151  SER151      0.1924
     78  C        -45.2920   35.9610    5.2940 C.2   151  SER151      0.2314
     79  O        -45.3110   35.7340    6.5100 O.2   151  SER151     -0.2863
     80  CB       -46.1320   38.2240    4.5820 C.3   151  SER151      0.2116
     81  OG       -46.8050   37.9960    3.3450 O.3   151  SER151     -0.2180
     82  N        -40.7930   31.5910    2.9050 N.3   154  THR154     -0.1218
     83  CA       -39.4630   31.9380    2.4090 C.3   154  THR154      0.1862
     84  C        -39.0490   30.9420    1.3260 C.2   154  THR154      0.2287
     85  O        -39.2870   29.7380    1.4750 O.2   154  THR154     -0.2866
     86  CB       -38.4560   31.9090    3.5790 C.3   154  THR154      0.1770
     87  OG1      -38.8080   32.9170    4.5330 O.3   154  THR154     -0.2211
     88  CG2      -37.0210   32.1280    3.1290 C.3   154  THR154      0.0375
     89  N        -35.6360   29.6900   -0.8480 N.3   156  ARG156     -0.1245
     90  CA       -34.1850   29.6880   -0.9290 C.3   156  ARG156      0.1563
     91  C        -33.6930   28.8960   -2.1330 C.2   156  ARG156      0.2260
     92  O        -34.2460   27.8470   -2.4840 O.2   156  ARG156     -0.2867
     93  CB       -33.5800   29.1080    0.3510 C.3   156  ARG156      0.0307
     94  CG       -34.0650   29.7660    1.6110 C.3   156  ARG156      0.0489
     95  CD       -33.4650   29.1730    2.9080 C.3   156  ARG156      0.2205
     96  NE       -33.9930   29.8780    4.0820 N.pl3 156  ARG156     -0.0865
     97  CZ       -35.0560   29.4960    4.7910 C.cat 156  ARG156      0.5346
     98  NH1      -35.7010   28.3630    4.5080 N.pl3 156  ARG156      0.1354
     99  NH2      -35.4520   30.2240    5.8240 N.pl3 156  ARG156      0.1354
    100  N        -40.3030   27.1080    2.1500 N.3   175  HIS175     -0.1241
    101  CA       -40.5010   27.0380    3.6080 C.3   175  HIS175      0.1621
    102  C        -41.7370   27.8180    4.0220 C.2   175  HIS175      0.2264
    103  O        -41.7380   29.0640    4.0180 O.2   175  HIS175     -0.2867
    104  CB       -39.2460   27.5570    4.3150 C.3   175  HIS175      0.0745
    105  CG       -39.2470   27.3510    5.8020 C.ar  175  HIS175      0.0817
    106  ND1      -38.2250   27.8010    6.6080 N.ar  175  HIS175     -0.2268
    107  CD2      -40.1170   26.7080    6.6210 C.ar  175  HIS175      0.1154
    108  CE1      -38.4630   27.4480    7.8630 C.ar  175  HIS175      0.1986
    109  NE2      -39.6170   26.7960    7.9080 N.ar  175  HIS175     -0.2212
    110  N        -43.7960   29.2310    6.7540 N.3   177  THR177     -0.1203
    111  CA       -43.3170   29.6780    8.0620 C.3   177  THR177      0.1994
    112  C        -44.4330   30.0700    9.0210 C.2   177  THR177      0.2618
    113  O        -44.1410   30.3980   10.1750 O.2   177  THR177     -0.2717
    114  CB       -42.3400   30.8710    7.8850 C.3   177  THR177      0.1784
    115  OG1      -42.9540   31.9090    7.1050 O.3   177  THR177     -0.2211
    116  CG2      -41.0920   30.4540    7.1480 C.3   177  THR177      0.0376
    117  N        -45.7030   30.0030    8.6120 N.am  178  THR178     -0.1952
    118  CA       -46.7750   30.5890    9.4090 C.3   178  THR178      0.1897
    119  C        -47.8530   29.5990    9.8550 C.2   178  THR178      0.2313
    120  O        -48.9260   30.0260   10.3010 O.2   178  THR178     -0.2863
    121  CB       -47.3900   31.7640    8.6310 C.3   178  THR178      0.1794
    122  OG1      -47.7350   31.3610    7.2960 O.3   178  THR178     -0.2208
    123  CG2      -46.3730   32.9270    8.5340 C.3   178  THR178      0.0378
@<TRIPOS>BOND
     1    75    74    1
     2    74    73    1
     3    92    91    2
     4    91    90    1
     5    73    72    1
     6    90    89    1
     7    90    93    1
     8    72    71    1
     9    93    94    1
    10    71    68    1
    11    84    85    2
    12    84    83    1
    13    59    60    1
    14    94    95    1
    15   100   101    1
    16    62    61    2
    17    68    67    1
    18    68    69    1
    19    83    82    1
    20    83    86    1
    21    61    67   am
    22    61    60    1
    23    60    63    1
    24    95    96    1
    25    88    86    1
    26    81    80    1
    27    76    69   am
    28    76    77    1
    29    69    70    2
    30    86    87    1
    31   101   102    1
    32   101   104    1
    33    63    64    1
    34    63    65    1
    35   103   102    2
    36    96    97    2
    37    64    66    1
    38   104   105    1
    39    98    97    1
    40    80    77    1
    41    40    41    1
    42    40    37    1
    43    77    78    1
    44    97    99    1
    45    42    41   ar
    46    42    44   ar
    47    78    79    2
    48    41    43   ar
    49    37    38    1
    50    37    36    1
    51   105   106   ar
    52   105   107   ar
    53    44    45   ar
    54    38    39    2
    55    43    45   ar
    56    43    46   ar
    57    53    52    2
    58    52    51    1
    59    45    47   ar
    60   106   108   ar
    61   107   109   ar
    62   110   111    1
    63    46    48   ar
    64    50    51    1
    65    51    54    1
    66   115   114    1
    67   116   114    1
    68   122   121    1
    69    47    49   ar
    70    48    49   ar
    71   108   109   ar
    72   114   111    1
    73   111   112    1
    74    54    55    1
    75   123   121    1
    76   117   112   am
    77   117   118    1
    78   121   118    1
    79    55    56    1
    80   112   113    2
    81    35    33   am
    82   118   119    1
    83   119   120    2
    84    29    30    2
    85    29    28    1
    86    56    58   am
    87    56    57    2
    88    33    32    1
    89    33    34    2
    90    32    31    1
    91    28    31    1
    92    28    27    1
    93     1     2    1
    94    18    16    1
    95     2     3    1
    96     2     5    1
    97     6     5    1
    98     6     7    1
    99    10     9    1
   100     3    12   am
   101     3     4    2
   102    12    13    1
   103     7     8    1
   104    16    13    1
   105    16    17    1
   106     9     8    2
   107     9    11    1
   108    13    14    1
   109    14    15    2
   110    14    19   am
   111    19    20    1
   112    22    21    2
   113    20    21    1
   114    20    23    1
   115    23    24    1
   116    24    25    1
   117    25    26    1
