@<TRIPOS>MOLECULE
tmp/5qfzA00.pdb
 78 76 0 0 0
SMALL
GASTEIGER

@<TRIPOS>ATOM
      1  N         42.3260  -12.2280  -10.6440 N.3   187  SER187     -0.1203
      2  CA        42.2130  -11.9890  -12.0780 C.3   187  SER187      0.2005
      3  C         42.0470  -13.3160  -12.8150 C.2   187  SER187      0.2461
      4  O         42.6590  -14.3090  -12.4070 O.2   187  SER187     -0.2732
      5  CB        43.4650  -11.2860  -12.6150 C.3   187  SER187      0.2103
      6  OG        43.5500  -11.3780  -14.0210 O.3   187  SER187     -0.2182
      7  N         41.2590  -13.3600  -13.9010 N.am  188  PRO188     -0.2717
      8  CA        41.1370  -14.5970  -14.6860 C.3   188  PRO188      0.1535
      9  C         42.2290  -14.7850  -15.7070 C.2   188  PRO188      0.2598
     10  O         42.1670  -15.7440  -16.4780 O.2   188  PRO188     -0.2715
     11  CB        39.7780  -14.4240  -15.4020 C.3   188  PRO188      0.0310
     12  CG        39.7050  -12.9520  -15.6480 C.3   188  PRO188      0.0237
     13  CD        40.3020  -12.3340  -14.3700 C.3   188  PRO188      0.0939
     14  N         43.2290  -13.9050  -15.7400 N.am  189  ALA189     -0.1978
     15  CA        44.1760  -13.9140  -16.8450 C.3   189  ALA189      0.1597
     16  C         44.9710  -15.2070  -16.9100 C.2   189  ALA189      0.2287
     17  O         45.1840  -15.7450  -17.9940 O.2   189  ALA189     -0.2864
     18  CB        45.1130  -12.7030  -16.7560 C.3   189  ALA189      0.0319
     19  N         42.6670  -18.1820  -18.0470 N.3   192  LEU192     -0.1231
     20  CA        42.3890  -18.1210  -19.4960 C.3   192  LEU192      0.1693
     21  C         43.6030  -18.5270  -20.3170 C.2   192  LEU192      0.2592
     22  O         43.4780  -19.2950  -21.2670 O.2   192  LEU192     -0.2718
     23  CB        41.9350  -16.7140  -19.8940 C.3   192  LEU192      0.0284
     24  CG        40.5310  -16.3010  -19.4920 C.3   192  LEU192      0.0019
     25  CD1       40.3920  -14.7960  -19.6230 C.3   192  LEU192      0.0001
     26  CD2       39.4880  -17.0050  -20.3440 C.3   192  LEU192      0.0001
     27  N         44.7920  -18.0350  -19.9540 N.am  193  ASN193     -0.1974
     28  CA        46.0140  -18.4690  -20.6250 C.3   193  ASN193      0.1688
     29  C         46.1570  -19.9890  -20.5920 C.2   193  ASN193      0.2292
     30  O         46.5450  -20.6120  -21.5860 O.2   193  ASN193     -0.2864
     31  CB        47.2200  -17.7970  -19.9650 C.3   193  ASN193      0.1181
     32  CG        48.5160  -18.0500  -20.7090 C.2   193  ASN193      0.2629
     33  OD1       48.6520  -17.6950  -21.8770 O.2   193  ASN193     -0.2716
     34  ND2       49.4840  -18.6440  -20.0290 N.am  193  ASN193     -0.0877
     35  N         43.6730  -21.6830  -23.0040 N.3   196  PHE196     -0.1241
     36  CA        44.1650  -21.5740  -24.3780 C.3   196  PHE196      0.1605
     37  C         45.2950  -22.5590  -24.6560 C.2   196  PHE196      0.2264
     38  O         45.3740  -23.1090  -25.7490 O.2   196  PHE196     -0.2867
     39  CB        44.6090  -20.1320  -24.6690 C.3   196  PHE196      0.0534
     40  CG        43.5070  -19.1170  -24.5570 C.ar  196  PHE196     -0.0203
     41  CD1       42.1730  -19.4880  -24.7020 C.ar  196  PHE196     -0.0042
     42  CD2       43.8040  -17.7840  -24.3000 C.ar  196  PHE196     -0.0042
     43  CE1       41.1550  -18.5550  -24.5840 C.ar  196  PHE196     -0.0003
     44  CE2       42.7920  -16.8390  -24.1850 C.ar  196  PHE196     -0.0003
     45  CZ        41.4660  -17.2230  -24.3320 C.ar  196  PHE196     -0.0000
     46  N         36.3670  -11.3190  -20.0740 N.3   276  GLU276     -0.1231
     47  CA        37.7160  -10.9150  -20.4640 C.3   276  GLU276      0.1699
     48  C         38.2080  -11.7300  -21.6480 C.2   276  GLU276      0.2592
     49  O         38.9300  -11.2360  -22.5230 O.2   276  GLU276     -0.2718
     50  CB        38.6590  -11.0870  -19.2820 C.3   276  GLU276      0.0402
     51  CG        40.0460  -10.5510  -19.5360 C.3   276  GLU276      0.1161
     52  CD        40.0420   -9.0740  -19.8600 C.2   276  GLU276      0.3649
     53  OE1       39.0970   -8.3690  -19.4420 O.co2 276  GLU276     -0.2457
     54  OE2       40.9790   -8.6210  -20.5480 O.co2 276  GLU276     -0.2457
     55  N         37.8340  -12.9880  -21.6580 N.am  277  GLY277     -0.1957
     56  CA        38.2310  -13.8650  -22.7330 C.3   277  GLY277      0.1869
     57  C         37.6460  -13.4510  -24.0670 C.2   277  GLY277      0.2309
     58  O         38.2840  -13.6160  -25.1030 O.2   277  GLY277     -0.2863
     59  N         37.2680  -10.5770  -25.2410 N.3   279  LYS279     -0.1231
     60  CA        37.9740   -9.4270  -25.8000 C.3   279  LYS279      0.1693
     61  C         39.2840   -9.8460  -26.4290 C.2   279  LYS279      0.2592
     62  O         39.7240   -9.2610  -27.4200 O.2   279  LYS279     -0.2718
     63  CB        38.2350   -8.4030  -24.7020 C.3   279  LYS279      0.0285
     64  CG        36.9920   -8.0480  -23.9350 C.3   279  LYS279      0.0035
     65  CD        37.3170   -7.2930  -22.6800 C.3   279  LYS279      0.0206
     66  CE        36.1530   -6.3970  -22.2590 C.3   279  LYS279      0.1093
     67  NZ        36.1950   -6.0470  -20.7910 N.3   279  LYS279     -0.1314
     68  N         39.8930  -10.8790  -25.8840 N.am  280  PHE280     -0.1976
     69  CA        41.1720  -11.3370  -26.3790 C.3   280  PHE280      0.1639
     70  C         41.0130  -12.1420  -27.6430 C.2   280  PHE280      0.2290
     71  O         41.9220  -12.1630  -28.4790 O.2   280  PHE280     -0.2864
     72  CB        41.8460  -12.1980  -25.3260 C.3   280  PHE280      0.0560
     73  CG        43.3000  -12.3620  -25.5330 C.ar  280  PHE280     -0.0200
     74  CD1       44.1670  -11.3190  -25.2680 C.ar  280  PHE280     -0.0042
     75  CD2       43.8060  -13.5610  -25.9850 C.ar  280  PHE280     -0.0042
     76  CE1       45.5170  -11.4750  -25.4490 C.ar  280  PHE280     -0.0003
     77  CE2       45.1510  -13.7240  -26.1670 C.ar  280  PHE280     -0.0003
     78  CZ        46.0120  -12.6780  -25.9020 C.ar  280  PHE280     -0.0000
@<TRIPOS>BOND
     1    71    70    2
     2    70    69    1
     3    62    61    2
     4    61    68   am
     5    61    60    1
     6    69    68    1
     7    69    72    1
     8    77    75   ar
     9    77    78   ar
    10    75    73   ar
    11    78    76   ar
    12    60    59    1
    13    60    63    1
    14    38    37    2
    15    73    72    1
    16    73    74   ar
    17    76    74   ar
    18    58    57    2
    19    41    43   ar
    20    41    40   ar
    21    63    64    1
    22    39    40    1
    23    39    36    1
    24    37    36    1
    25    43    45   ar
    26    40    42   ar
    27    36    35    1
    28    45    44   ar
    29    42    44   ar
    30    57    56    1
    31    64    65    1
    32    56    55    1
    33    65    66    1
    34    49    48    2
    35    66    67    1
    36    33    32    2
    37    55    48   am
    38    48    47    1
    39    30    29    2
    40    22    21    2
    41    32    34   am
    42    32    31    1
    43    28    29    1
    44    28    31    1
    45    28    27    1
    46    54    52   ar
    47    47    46    1
    48    47    50    1
    49    26    24    1
    50    21    27   am
    51    21    20    1
    52    23    20    1
    53    23    24    1
    54    52    51    1
    55    52    53   ar
    56    25    24    1
    57    51    50    1
    58    20    19    1
    59    17    16    2
    60    16    15    1
    61    15    18    1
    62    15    14    1
    63    10     9    2
    64    14     9   am
    65     9     8    1
    66    12    11    1
    67    12    13    1
    68    11     8    1
    69     8     7    1
    70    13     7    1
    71     6     5    1
    72     7     3   am
    73     3     4    2
    74     3     2    1
    75     5     2    1
    76     2     1    1
