@<TRIPOS>MOLECULE
tmp/5qfzA01.pdb
 79 77 0 0 0
SMALL
GASTEIGER

@<TRIPOS>ATOM
      1  N         43.1180  -43.6410   -3.5120 N.3    89  PRO89      -0.2116
      2  CA        44.0980  -44.7360   -3.5330 C.3    89  PRO89       0.1372
      3  C         43.5960  -46.0030   -4.2090 C.2    89  PRO89       0.2244
      4  O         44.3720  -46.6860   -4.8920 O.2    89  PRO89      -0.2868
      5  CB        44.3990  -44.9630   -2.0350 C.3    89  PRO89       0.0268
      6  CG        44.0520  -43.6850   -1.3650 C.3    89  PRO89       0.0207
      7  CD        42.9390  -43.0530   -2.1740 C.3    89  PRO89       0.0892
      8  N         42.9920  -45.3320   -8.6460 N.3    92  VAL92      -0.1231
      9  CA        43.9450  -44.8180   -9.6360 C.3    92  VAL92       0.1692
     10  C         43.9830  -45.7240  -10.8680 C.2    92  VAL92       0.2592
     11  O         44.1060  -45.2500  -12.0040 O.2    92  VAL92      -0.2718
     12  CB        45.3420  -44.6330   -8.9920 C.3    92  VAL92       0.0266
     13  CG1       46.3460  -44.2690  -10.0680 C.3    92  VAL92       0.0020
     14  CG2       45.3050  -43.5060   -7.9670 C.3    92  VAL92       0.0020
     15  N         43.8750  -47.0420  -10.6790 N.am   93  GLY93      -0.1957
     16  CA        43.8600  -47.9360  -11.8330 C.3    93  GLY93       0.1869
     17  C         42.6120  -47.7730  -12.6890 C.2    93  GLY93       0.2309
     18  O         42.6910  -47.8100  -13.9180 O.2    93  GLY93      -0.2863
     19  N         45.0240  -38.5950   -4.8710 N.3   122  ALA122     -0.1231
     20  CA        46.1930  -39.4710   -4.8350 C.3   122  ALA122      0.1694
     21  C         47.2830  -38.9530   -5.7850 C.2   122  ALA122      0.2592
     22  O         46.9910  -38.2740   -6.7570 O.2   122  ALA122     -0.2718
     23  CB        45.7880  -40.8820   -5.2300 C.3   122  ALA122      0.0304
     24  N         48.5430  -39.3200   -5.5100 N.am  123  GLN123     -0.1966
     25  CA        49.6570  -39.0300   -6.4310 C.3   123  GLN123      0.1733
     26  C         49.5770  -40.0810   -7.5330 C.2   123  GLN123      0.2616
     27  O         50.1330  -41.1680   -7.4110 O.2   123  GLN123     -0.2715
     28  CB        51.0140  -39.0840   -5.7020 C.3   123  GLN123      0.0408
     29  CG        52.2410  -38.7450   -6.6120 C.3   123  GLN123      0.0908
     30  CD        52.1870  -37.3640   -7.2040 C.2   123  GLN123      0.2608
     31  OE1       52.0230  -36.3620   -6.4990 O.2   123  GLN123     -0.2717
     32  NE2       52.3220  -37.2920   -8.5260 N.am  123  GLN123     -0.0878
     33  N         48.8560  -39.7730   -8.6320 N.am  124  TYR124     -0.1974
     34  CA        48.4270  -40.8050   -9.5770 C.3   124  TYR124      0.1639
     35  C         49.2530  -40.8480  -10.8620 C.2   124  TYR124      0.2290
     36  O         48.9300  -41.6270  -11.7780 O.2   124  TYR124     -0.2864
     37  CB        46.9060  -40.6300   -9.9250 C.3   124  TYR124      0.0560
     38  CG        46.5270  -39.3580  -10.6850 C.ar  124  TYR124     -0.0198
     39  CD1       46.5880  -39.3000  -12.0930 C.ar  124  TYR124     -0.0009
     40  CD2       46.1160  -38.1970  -10.0050 C.ar  124  TYR124     -0.0009
     41  CE1       46.2410  -38.1540  -12.7810 C.ar  124  TYR124      0.0417
     42  CE2       45.7750  -37.0260  -10.6970 C.ar  124  TYR124      0.0417
     43  CZ        45.8300  -37.0290  -12.1040 C.ar  124  TYR124      0.1957
     44  OH        45.5250  -35.8950  -12.7970 O.3   124  TYR124     -0.2866
     45  N         55.0910  -46.3050  -13.2080 N.3   133  MET133     -0.1230
     46  CA        54.0160  -46.8510  -12.3760 C.3   133  MET133      0.1702
     47  C         53.3300  -47.9840  -13.1230 C.2   133  MET133      0.2592
     48  O         53.0700  -47.8770  -14.3240 O.2   133  MET133     -0.2718
     49  CB        52.9670  -45.7770  -12.0220 C.3   133  MET133      0.0401
     50  CG        53.4290  -44.7250  -11.0370 C.3   133  MET133      0.0596
     51  SD        52.1780  -43.4610  -10.7100 S.3   133  MET133     -0.1393
     52  CE        51.1460  -44.2560   -9.5400 C.3   133  MET133      0.0692
     53  N         53.0390  -49.0670  -12.4120 N.am  134  ILE134     -0.1966
     54  CA        52.2680  -50.1810  -12.9490 C.3   134  ILE134      0.1727
     55  C         51.0040  -50.3310  -12.1100 C.2   134  ILE134      0.2616
     56  O         51.0660  -50.3600  -10.8760 O.2   134  ILE134     -0.2715
     57  CB        53.0820  -51.4870  -12.9650 C.3   134  ILE134      0.0290
     58  CG1       54.2600  -51.3500  -13.9380 C.3   134  ILE134      0.0022
     59  CG2       52.2080  -52.6640  -13.4000 C.3   134  ILE134      0.0023
     60  CD1       55.2250  -52.4990  -13.9110 C.3   134  ILE134      0.0001
     61  N         49.8580  -50.4010  -12.7860 N.am  135  PHE135     -0.1974
     62  CA        48.5460  -50.5690  -12.1550 C.3   135  PHE135      0.1639
     63  C         48.1250  -52.0080  -12.4420 C.2   135  PHE135      0.2290
     64  O         47.6970  -52.3370  -13.5530 O.2   135  PHE135     -0.2864
     65  CB        47.5490  -49.5400  -12.6910 C.3   135  PHE135      0.0560
     66  CG        48.0280  -48.1300  -12.5410 C.ar  135  PHE135     -0.0200
     67  CD1       47.9940  -47.5050  -11.3130 C.ar  135  PHE135     -0.0042
     68  CD2       48.5490  -47.4470  -13.6180 C.ar  135  PHE135     -0.0042
     69  CE1       48.4700  -46.2170  -11.1630 C.ar  135  PHE135     -0.0003
     70  CE2       49.0290  -46.1670  -13.4640 C.ar  135  PHE135     -0.0003
     71  CZ        48.9790  -45.5510  -12.2560 C.ar  135  PHE135     -0.0000
     72  N         45.7500  -53.9780  -11.1410 N.3   137  ASP137     -0.1239
     73  CA        44.3280  -54.3280  -11.2360 C.3   137  ASP137      0.1674
     74  C         43.7600  -54.0830  -12.6410 C.2   137  ASP137      0.2266
     75  O         42.8620  -54.8160  -13.0690 O.2   137  ASP137     -0.2867
     76  CB        43.5030  -53.6090  -10.1540 C.3   137  ASP137      0.1410
     77  CG        43.5810  -52.0700  -10.2130 C.2   137  ASP137      0.3668
     78  OD1       44.5310  -51.4780  -10.7800 O.co2 137  ASP137     -0.2456
     79  OD2       42.6660  -51.4440   -9.6330 O.co2 137  ASP137     -0.2456
@<TRIPOS>BOND
     1    48    47    2
     2    58    60    1
     3    58    57    1
     4    18    17    2
     5    68    70   ar
     6    68    66   ar
     7    64    63    2
     8    70    71   ar
     9    59    57    1
    10    45    46    1
    11    47    53   am
    12    47    46    1
    13    75    74    2
    14    57    54    1
    15    54    53    1
    16    54    55    1
    17    44    43    1
    18    61    62    1
    19    61    55   am
    20    41    43   ar
    21    41    39   ar
    22    65    66    1
    23    65    62    1
    24    17    16    1
    25    74    73    1
    26    66    67   ar
    27    63    62    1
    28    46    49    1
    29    71    69   ar
    30    55    56    2
    31    43    42   ar
    32    39    38   ar
    33    49    50    1
    34    11    10    2
    35    16    15    1
    36    36    35    2
    37    67    69   ar
    38    73    72    1
    39    73    76    1
    40    50    51    1
    41    10    15   am
    42    10     9    1
    43    35    34    1
    44    78    77   ar
    45    51    52    1
    46    42    40   ar
    47    38    40   ar
    48    38    37    1
    49    77    76    1
    50    77    79   ar
    51    13    12    1
    52    37    34    1
    53     9    12    1
    54     9     8    1
    55    34    33    1
    56    12    14    1
    57    33    26   am
    58    32    30   am
    59    26    27    2
    60    26    25    1
    61    30    29    1
    62    30    31    2
    63    22    21    2
    64    29    28    1
    65    25    28    1
    66    25    24    1
    67    21    24   am
    68    21    20    1
    69    23    20    1
    70     4     3    2
    71    19    20    1
    72     3     2    1
    73     2     1    1
    74     2     5    1
    75     1     7    1
    76     7     6    1
    77     5     6    1
