@<TRIPOS>MOLECULE
tmp/5qg3A00.pdb
 80 77 0 0 0
SMALL
GASTEIGER

@<TRIPOS>ATOM
      1  N        -57.7050   29.0360    3.9170 N.3   188  PRO188     -0.2102
      2  CA       -56.7060   28.3190    3.1210 C.3   188  PRO188      0.1504
      3  C        -55.9960   29.1780    2.0810 C.2   188  PRO188      0.2575
      4  O        -55.1920   28.6500    1.3170 O.2   188  PRO188     -0.2718
      5  CB       -57.5390   27.2350    2.4130 C.3   188  PRO188      0.0282
      6  CG       -58.8430   27.9030    2.1720 C.3   188  PRO188      0.0208
      7  CD       -59.0770   28.7310    3.4460 C.3   188  PRO188      0.0893
      8  N        -56.2630   30.4810    2.0540 N.am  189  ALA189     -0.1980
      9  CA       -55.7660   31.3030    0.9590 C.3   189  ALA189      0.1597
     10  C        -54.2430   31.3320    0.9050 C.2   189  ALA189      0.2287
     11  O        -53.6690   31.2110   -0.1710 O.2   189  ALA189     -0.2864
     12  CB       -56.3480   32.7180    1.0520 C.3   189  ALA189      0.0319
     13  N        -52.8340   27.8450   -0.2520 N.3   192  LEU192     -0.1231
     14  CA       -53.0340   27.6490   -1.7000 C.3   192  LEU192      0.1693
     15  C        -52.0760   28.5080   -2.5140 C.2   192  LEU192      0.2592
     16  O        -51.4730   28.0310   -3.4720 O.2   192  LEU192     -0.2718
     17  CB       -54.4870   27.9710   -2.0870 C.3   192  LEU192      0.0284
     18  CG       -55.5400   26.9410   -1.6870 C.3   192  LEU192      0.0019
     19  CD1      -56.9210   27.5560   -1.7930 C.3   192  LEU192      0.0001
     20  CD2      -55.4460   25.6800   -2.5460 C.3   192  LEU192      0.0001
     21  N        -51.9060   29.7800   -2.1310 N.am  193  ASN193     -0.1974
     22  CA       -50.9160   30.6250   -2.7950 C.3   193  ASN193      0.1688
     23  C        -49.5320   29.9790   -2.7610 C.2   193  ASN193      0.2292
     24  O        -48.8070   29.9860   -3.7620 O.2   193  ASN193     -0.2864
     25  CB       -50.9010   32.0030   -2.1290 C.3   193  ASN193      0.1181
     26  CG       -50.0560   33.0180   -2.8770 C.2   193  ASN193      0.2629
     27  OD1      -50.3230   33.3330   -4.0370 O.2   193  ASN193     -0.2716
     28  ND2      -49.0470   33.5580   -2.2020 N.am  193  ASN193     -0.0877
     29  N        -49.2860   26.9890   -5.1890 N.3   196  PHE196     -0.1241
     30  CA       -49.1390   27.4720   -6.5610 C.3   196  PHE196      0.1605
     31  C        -47.7160   27.9600   -6.8320 C.2   196  PHE196      0.2264
     32  O        -47.1890   27.7660   -7.9290 O.2   196  PHE196     -0.2867
     33  CB       -50.1720   28.5760   -6.8420 C.3   196  PHE196      0.0534
     34  CG       -51.6070   28.1230   -6.7250 C.ar  196  PHE196     -0.0203
     35  CD1      -51.9510   26.7790   -6.8660 C.ar  196  PHE196     -0.0042
     36  CD2      -52.6160   29.0430   -6.4730 C.ar  196  PHE196     -0.0042
     37  CE1      -53.2680   26.3600   -6.7540 C.ar  196  PHE196     -0.0003
     38  CE2      -53.9380   28.6370   -6.3620 C.ar  196  PHE196     -0.0003
     39  CZ       -54.2660   27.2950   -6.5040 C.ar  196  PHE196     -0.0000
     40  N        -45.3760   26.5040   -9.7910 N.3   200  GLU200     -0.1245
     41  CA       -44.8130   27.3840  -10.8160 C.3   200  GLU200      0.1567
     42  C        -43.3110   27.2250  -10.9710 C.2   200  GLU200      0.2260
     43  O        -42.7810   27.5340  -12.0390 O.2   200  GLU200     -0.2867
     44  CB       -45.1480   28.8370  -10.4850 C.3   200  GLU200      0.0388
     45  CG       -46.5860   29.1840  -10.6760 C.3   200  GLU200      0.1160
     46  CD       -46.9100   30.5990  -10.2340 C.2   200  GLU200      0.3649
     47  OE1      -45.9660   31.3350   -9.8480 O.co2 200  GLU200     -0.2457
     48  OE2      -48.1030   30.9550  -10.2630 O.co2 200  GLU200     -0.2457
     49  N        -61.9640   25.8270   -2.2430 N.3   276  GLU276     -0.1231
     50  CA       -61.6410   27.1980   -2.6290 C.3   276  GLU276      0.1699
     51  C        -60.7000   27.2210   -3.8200 C.2   276  GLU276      0.2592
     52  O        -60.7790   28.0990   -4.6880 O.2   276  GLU276     -0.2718
     53  CB       -61.0060   27.9240   -1.4510 C.3   276  GLU276      0.0402
     54  CG       -60.7760   29.3950   -1.7030 C.3   276  GLU276      0.1161
     55  CD       -62.0600   30.1260   -2.0240 C.2   276  GLU276      0.3649
     56  OE1      -63.1360   29.6610   -1.5900 O.co2 276  GLU276     -0.2457
     57  OE2      -61.9950   31.1560   -2.7230 O.co2 276  GLU276     -0.2457
     58  N        -59.7910   26.2760   -3.8480 N.am  277  GLY277     -0.1957
     59  CA       -58.8380   26.1930   -4.9270 C.3   277  GLY277      0.1869
     60  C        -59.4960   25.9020   -6.2560 C.2   277  GLY277      0.2309
     61  O        -59.0400   26.3760   -7.2920 O.2   277  GLY277     -0.2863
     62  N        -60.5630   29.1280   -8.0440 N.3   280  PHE280     -0.1227
     63  CA       -59.5210   30.0000   -8.5400 C.3   280  PHE280      0.1736
     64  C        -58.9050   29.4510   -9.8050 C.2   280  PHE280      0.2595
     65  O        -58.4320   30.2240  -10.6400 O.2   280  PHE280     -0.2718
     66  CB       -58.4410   30.1530   -7.4860 C.3   280  PHE280      0.0547
     67  CG       -57.5750   31.3330   -7.6890 C.ar  280  PHE280     -0.0202
     68  CD1      -58.0480   32.6060   -7.4220 C.ar  280  PHE280     -0.0042
     69  CD2      -56.2780   31.1740   -8.1340 C.ar  280  PHE280     -0.0042
     70  CE1      -57.2380   33.7000   -7.5980 C.ar  280  PHE280     -0.0003
     71  CE2      -55.4650   32.2620   -8.3120 C.ar  280  PHE280     -0.0003
     72  CZ       -55.9450   33.5310   -8.0460 C.ar  280  PHE280     -0.0000
     73  N        -58.8950   28.1260   -9.9470 N.am  281  ILE281     -0.1980
     74  CA       -58.2830   27.4950  -11.1090 C.3   281  ILE281      0.1595
     75  C        -58.9870   27.9420  -12.3780 C.2   281  ILE281      0.2287
     76  O        -58.3540   28.0950  -13.4310 O.2   281  ILE281     -0.2864
     77  CB       -58.3070   25.9610  -10.9420 C.3   281  ILE281      0.0276
     78  CG1      -57.2050   25.3020  -11.7700 C.3   281  ILE281      0.0022
     79  CG2      -59.6680   25.3830  -11.3270 C.3   281  ILE281      0.0022
     80  CD1      -56.2270   24.5030  -10.9300 C.3   281  ILE281      0.0001
@<TRIPOS>BOND
     1    76    75    2
     2    75    74    1
     3    43    42    2
     4    78    77    1
     5    78    80    1
     6    79    77    1
     7    74    77    1
     8    74    73    1
     9    42    41    1
    10    41    44    1
    11    41    40    1
    12    45    44    1
    13    45    46    1
    14    65    64    2
    15    48    46   ar
    16    46    47   ar
    17    73    64   am
    18    64    63    1
    19    63    62    1
    20    63    66    1
    21    71    69   ar
    22    71    72   ar
    23    69    67   ar
    24    72    70   ar
    25    32    31    2
    26    67    66    1
    27    67    68   ar
    28    70    68   ar
    29    61    60    2
    30    35    37   ar
    31    35    34   ar
    32    33    34    1
    33    33    30    1
    34    31    30    1
    35    37    39   ar
    36    34    36   ar
    37    30    29    1
    38    39    38   ar
    39    36    38   ar
    40    60    59    1
    41    59    58    1
    42    52    51    2
    43    27    26    2
    44    58    51   am
    45    51    50    1
    46    24    23    2
    47    16    15    2
    48    26    28   am
    49    26    25    1
    50    22    23    1
    51    22    21    1
    52    22    25    1
    53    57    55   ar
    54    50    49    1
    55    50    53    1
    56    20    18    1
    57    15    21   am
    58    15    14    1
    59    17    14    1
    60    17    18    1
    61    55    54    1
    62    55    56   ar
    63    19    18    1
    64    54    53    1
    65    14    13    1
    66    11    10    2
    67    10     9    1
    68     9    12    1
    69     9     8    1
    70     4     3    2
    71     8     3   am
    72     3     2    1
    73     6     5    1
    74     6     7    1
    75     5     2    1
    76     2     1    1
    77     7     1    1
