@<TRIPOS>MOLECULE
tmp/5qg4A00.pdb
 102 93 0 0 0
SMALL
GASTEIGER

@<TRIPOS>ATOM
      1  N        -35.6470   18.3220   -7.3620 N.3   105  ARG105     -0.1245
      2  CA       -35.3630   19.7360   -7.5880 C.3   105  ARG105      0.1563
      3  C        -35.7180   20.5800   -6.3650 C.2   105  ARG105      0.2260
      4  O        -34.9730   21.5130   -6.0310 O.2   105  ARG105     -0.2867
      5  CB       -36.1350   20.2400   -8.8100 C.3   105  ARG105      0.0307
      6  CG       -35.9430   21.7290   -9.1290 C.3   105  ARG105      0.0489
      7  CD       -34.6900   21.9890   -9.9670 C.3   105  ARG105      0.2205
      8  NE       -34.4040   23.4190  -10.0680 N.pl3 105  ARG105     -0.0865
      9  CZ       -35.1610   24.2940  -10.7240 C.cat 105  ARG105      0.5346
     10  NH1      -36.2700   23.8990  -11.3510 N.pl3 105  ARG105      0.1354
     11  NH2      -34.8140   25.5760  -10.7480 N.pl3 105  ARG105      0.1354
     12  N        -29.1800   32.4130   -2.5020 N.3   146  SER146     -0.1202
     13  CA       -30.0710   33.5620   -2.3780 C.3   146  SER146      0.2020
     14  C        -31.2640   33.1590   -1.5340 C.2   146  SER146      0.2619
     15  O        -31.5550   31.9680   -1.3630 O.2   146  SER146     -0.2717
     16  CB       -30.5440   34.0710   -3.7500 C.3   146  SER146      0.2103
     17  OG       -31.5170   33.2190   -4.3130 O.3   146  SER146     -0.2182
     18  N        -31.9590   34.1730   -1.0260 N.am  147  GLU147     -0.1965
     19  CA       -33.0730   33.9920   -0.1030 C.3   147  GLU147      0.1733
     20  C        -34.0720   35.1010   -0.3830 C.2   147  GLU147      0.2616
     21  O        -33.6750   36.2660   -0.4760 O.2   147  GLU147     -0.2715
     22  CB       -32.5660   34.0410    1.3530 C.3   147  GLU147      0.0429
     23  CG       -33.6140   33.9090    2.4170 C.3   147  GLU147      0.1163
     24  CD       -33.0150   33.6840    3.7960 C.2   147  GLU147      0.3649
     25  OE1      -33.1930   32.5870    4.3530 O.co2 147  GLU147     -0.2457
     26  OE2      -32.3800   34.6090    4.3360 O.co2 147  GLU147     -0.2457
     27  N        -35.3530   34.7550   -0.5220 N.am  148  ASP148     -0.1971
     28  CA       -36.4280   35.7310   -0.7180 C.3   148  ASP148      0.1709
     29  C        -37.4950   35.5350    0.3630 C.2   148  ASP148      0.2293
     30  O        -38.2360   34.5400    0.3410 O.2   148  ASP148     -0.2864
     31  CB       -37.0120   35.5820   -2.1190 C.3   148  ASP148      0.1436
     32  CG       -37.9400   36.7080   -2.4960 C.2   148  ASP148      0.3671
     33  OD1      -38.1980   37.5790   -1.6480 O.co2 148  ASP148     -0.2456
     34  OD2      -38.4280   36.7040   -3.6450 O.co2 148  ASP148     -0.2456
     35  N        -40.8760   36.4360    2.2450 N.3   150  LYS150     -0.1245
     36  CA       -42.1970   37.0110    2.0390 C.3   150  LYS150      0.1561
     37  C        -42.9990   36.8580    3.3200 C.2   150  LYS150      0.2260
     38  O        -42.5310   36.2910    4.3080 O.2   150  LYS150     -0.2867
     39  CB       -42.9050   36.3650    0.8480 C.3   150  LYS150      0.0271
     40  CG       -42.1170   36.4050   -0.4660 C.3   150  LYS150      0.0035
     41  CD       -42.2860   37.7040   -1.2310 C.3   150  LYS150      0.0206
     42  CE       -42.5170   37.4340   -2.7180 C.3   150  LYS150      0.1093
     43  NZ       -41.3990   36.6770   -3.3490 N.3   150  LYS150     -0.1314
     44  N        -38.4980   31.5560    0.0740 N.3   155  VAL155     -0.1245
     45  CA       -37.8790   30.7080   -0.9510 C.3   155  VAL155      0.1561
     46  C        -36.3810   30.9220   -0.9490 C.2   155  VAL155      0.2260
     47  O        -35.9150   32.0540   -1.0930 O.2   155  VAL155     -0.2867
     48  CB       -38.3970   31.0020   -2.3680 C.3   155  VAL155      0.0252
     49  CG1      -37.8700   29.9630   -3.3360 C.3   155  VAL155      0.0019
     50  CG2      -39.8200   31.0300   -2.3860 C.3   155  VAL155      0.0019
     51  N        -32.6400   29.6200   -2.8120 N.3   157  GLN157     -0.1245
     52  CA       -31.8400   28.8930   -3.7830 C.3   157  GLN157      0.1566
     53  C        -30.5960   28.3640   -3.1080 C.2   157  GLN157      0.2260
     54  O        -29.8730   29.1270   -2.4550 O.2   157  GLN157     -0.2867
     55  CB       -31.4430   29.7670   -4.9910 C.3   157  GLN157      0.0367
     56  CG       -32.5460   30.3210   -5.8100 C.3   157  GLN157      0.0905
     57  CD       -31.9710   31.0950   -7.0020 C.2   157  GLN157      0.2608
     58  OE1      -31.1510   32.0000   -6.8310 O.2   157  GLN157     -0.2717
     59  NE2      -32.3600   30.7070   -8.2040 N.am  157  GLN157     -0.0878
     60  N        -28.6820   22.7900   -8.5570 N.3   170  GLU170     -0.1245
     61  CA       -29.4910   23.8050   -7.9040 C.3   170  GLU170      0.1567
     62  C        -30.7500   23.1940   -7.2760 C.2   170  GLU170      0.2260
     63  O        -31.5720   22.6010   -7.9770 O.2   170  GLU170     -0.2867
     64  CB       -29.8750   24.8650   -8.9200 C.3   170  GLU170      0.0388
     65  CG       -30.6700   26.0330   -8.3450 C.3   170  GLU170      0.1160
     66  CD       -31.1190   26.9900   -9.4370 C.2   170  GLU170      0.3649
     67  OE1      -30.3600   27.1880  -10.4140 O.co2 170  GLU170     -0.2457
     68  OE2      -32.2440   27.5090   -9.3430 O.co2 170  GLU170     -0.2457
     69  N        -34.2010   24.1290   -4.9140 N.3   172  LEU172     -0.1245
     70  CA       -35.1000   25.1620   -4.4010 C.3   172  LEU172      0.1561
     71  C        -35.7280   24.7320   -3.0640 C.2   172  LEU172      0.2260
     72  O        -36.3170   23.6440   -2.9580 O.2   172  LEU172     -0.2867
     73  CB       -36.2040   25.4610   -5.4190 C.3   172  LEU172      0.0270
     74  CG       -35.7290   25.9280   -6.8210 C.3   172  LEU172      0.0019
     75  CD1      -36.9390   26.2140   -7.6700 C.3   172  LEU172      0.0001
     76  CD2      -34.8210   27.1550   -6.7250 C.3   172  LEU172      0.0001
     77  N        -38.5830   25.6330   -0.4170 N.3   174  PHE174     -0.1241
     78  CA       -39.8520   26.3310   -0.2180 C.3   174  PHE174      0.1605
     79  C        -40.3010   26.1440    1.2290 C.2   174  PHE174      0.2264
     80  O        -40.7480   25.0570    1.6200 O.2   174  PHE174     -0.2867
     81  CB       -40.9250   25.8290   -1.1980 C.3   174  PHE174      0.0534
     82  CG       -40.7110   26.2980   -2.6350 C.ar  174  PHE174     -0.0203
     83  CD1      -41.2310   27.5240   -3.0350 C.ar  174  PHE174     -0.0042
     84  CD2      -39.9900   25.5500   -3.5510 C.ar  174  PHE174     -0.0042
     85  CE1      -41.0430   27.9910   -4.3230 C.ar  174  PHE174     -0.0003
     86  CE2      -39.7960   26.0350   -4.8610 C.ar  174  PHE174     -0.0003
     87  CZ       -40.3170   27.2480   -5.2180 C.ar  174  PHE174     -0.0000
     88  N        -46.9160   28.4820   -5.9180 N.3   197  LYS197     -0.1245
     89  CA       -45.5130   28.8750   -6.1140 C.3   197  LYS197      0.1561
     90  C        -44.6000   27.6670   -6.2810 C.2   197  LYS197      0.2260
     91  O        -43.6670   27.6950   -7.0970 O.2   197  LYS197     -0.2867
     92  CB       -45.0120   29.7460   -4.9480 C.3   197  LYS197      0.0271
     93  CG       -45.7440   31.0740   -4.8150 C.3   197  LYS197      0.0035
     94  CD       -45.5010   32.0270   -6.0040 C.3   197  LYS197      0.0206
     95  CE       -46.1380   33.4010   -5.7520 C.3   197  LYS197      0.1093
     96  NZ       -46.0520   34.3160   -6.9300 N.3   197  LYS197     -0.1314
     97  N        -42.4950   26.6730  -10.0140 N.3   201  SER201     -0.1217
     98  CA       -41.0450   26.4750  -10.0600 C.3   201  SER201      0.1889
     99  C        -40.5710   25.2830  -10.8830 C.2   201  SER201      0.2288
    100  O        -39.3610   25.1790  -11.1390 O.2   201  SER201     -0.2866
    101  CB       -40.5070   26.2920   -8.6220 C.3   201  SER201      0.2089
    102  OG       -40.7220   24.9580   -8.1440 O.3   201  SER201     -0.2183
@<TRIPOS>BOND
     1    10     9    1
     2   100    99    2
     3    99    98    1
     4    11     9    1
     5     9     8    2
     6    67    66   ar
     7     8     7    1
     8    98    97    1
     9    98   101    1
    10     7     6    1
    11    66    68   ar
    12    66    65    1
    13     6     5    1
    14    64    65    1
    15    64    61    1
    16     5     2    1
    17   101   102    1
    18    60    61    1
    19    59    57   am
    20    63    62    2
    21    61    62    1
    22    75    74    1
    23     2     1    1
    24     2     3    1
    25    91    90    2
    26    57    58    2
    27    57    56    1
    28    96    95    1
    29    74    76    1
    30    74    73    1
    31     3     4    2
    32    90    89    1
    33    89    88    1
    34    89    92    1
    35    94    95    1
    36    94    93    1
    37    56    55    1
    38    73    70    1
    39    87    86   ar
    40    87    85   ar
    41    55    52    1
    42    92    93    1
    43    69    70    1
    44    86    84   ar
    45    70    71    1
    46    85    83   ar
    47    17    16    1
    48    52    53    1
    49    52    51    1
    50    16    13    1
    51    34    32   ar
    52    84    82   ar
    53    43    42    1
    54    49    48    1
    55    53    54    2
    56    71    72    2
    57    83    82   ar
    58    42    41    1
    59    82    81    1
    60    12    13    1
    61    32    31    1
    62    32    33   ar
    63    50    48    1
    64    13    14    1
    65    48    45    1
    66    31    28    1
    67    14    15    2
    68    14    18   am
    69    41    40    1
    70    81    78    1
    71    47    46    2
    72    18    19    1
    73    45    46    1
    74    45    44    1
    75    28    27    1
    76    28    29    1
    77    27    20   am
    78    21    20    2
    79    40    39    1
    80    77    78    1
    81    20    19    1
    82    78    79    1
    83    19    22    1
    84    30    29    2
    85    39    36    1
    86    79    80    2
    87    22    23    1
    88    36    35    1
    89    36    37    1
    90    23    24    1
    91    37    38    2
    92    24    26   ar
    93    24    25   ar
