@<TRIPOS>MOLECULE
tmp/5qg5A00.pdb
 82 76 0 0 0
SMALL
GASTEIGER

@<TRIPOS>ATOM
      1  N        -84.9370   68.8880   99.1030 N.3    74  MET74      -0.1230
      2  CA       -83.5080   68.7510   98.7840 C.3    74  MET74       0.1702
      3  C        -83.3060   68.9860   97.2820 C.2    74  MET74       0.2592
      4  O        -83.6730   68.1410   96.4540 O.2    74  MET74      -0.2718
      5  CB       -82.9600   67.3900   99.2120 C.3    74  MET74       0.0401
      6  CG       -83.0970   67.0990  100.7180 C.3    74  MET74       0.0596
      7  SD       -82.3400   68.3260  101.8740 S.3    74  MET74      -0.1393
      8  CE       -80.6470   67.9400  101.5560 C.3    74  MET74       0.0692
      9  N        -82.7060   70.1280   96.9400 N.am   75  GLU75      -0.1966
     10  CA       -82.7240   70.6190   95.5540 C.3    75  GLU75       0.1733
     11  C        -81.8290   69.7690   94.6390 C.2    75  GLU75       0.2616
     12  O        -82.2950   69.2190   93.6360 O.2    75  GLU75      -0.2715
     13  CB       -82.3150   72.1020   95.5390 C.3    75  GLU75       0.0429
     14  CG       -82.4700   72.8000   94.1920 C.3    75  GLU75       0.1163
     15  CD       -82.3340   74.3170   94.2830 C.2    75  GLU75       0.3649
     16  OE1      -81.6140   74.8220   95.1760 O.co2  75  GLU75      -0.2457
     17  OE2      -82.9630   75.0040   93.4550 O.co2  75  GLU75      -0.2457
     18  N        -80.5510   69.6160   94.9760 N.am   76  GLU76      -0.1963
     19  CA       -79.6740   68.8410   94.0960 C.3    76  GLU76       0.1733
     20  C        -80.1510   67.4000   93.9460 C.2    76  GLU76       0.2616
     21  O        -80.1160   66.8440   92.8490 O.2    76  GLU76      -0.2715
     22  CB       -78.2400   68.8520   94.6150 C.3    76  GLU76       0.0429
     23  CG       -77.2790   68.1840   93.5990 C.3    76  GLU76       0.1163
     24  CD       -75.8540   68.0460   94.1120 C.2    76  GLU76       0.3649
     25  OE1      -75.5430   68.5230   95.2240 O.co2  76  GLU76      -0.2457
     26  OE2      -75.0460   67.4350   93.3950 O.co2  76  GLU76      -0.2457
     27  N        -80.5800   66.7680   95.0460 N.am   77  ALA77      -0.1977
     28  CA       -80.9930   65.3720   94.9860 C.3    77  ALA77       0.1597
     29  C        -82.3310   65.2080   94.3040 C.2    77  ALA77       0.2287
     30  O        -82.6470   64.1070   93.8640 O.2    77  ALA77      -0.2864
     31  CB       -81.0470   64.7680   96.3980 C.3    77  ALA77       0.0319
     32  N        -80.8660   60.5920  101.0730 N.3   230  THR230     -0.1218
     33  CA       -80.4030   61.7110  100.2380 C.3   230  THR230      0.1862
     34  C        -78.9240   61.5630   99.8680 C.2   230  THR230      0.2287
     35  O        -78.5520   61.7990   98.7140 O.2   230  THR230     -0.2866
     36  CB       -80.6590   63.0590  100.9430 C.3   230  THR230      0.1770
     37  OG1      -82.0390   63.4280  100.8240 O.3   230  THR230     -0.2211
     38  CG2      -79.8210   64.2190  100.2850 C.3   230  THR230      0.0375
     39  N        -77.2990   61.2330   96.0900 N.3   234  LEU234     -0.1245
     40  CA       -76.2590   62.1300   95.5690 C.3   234  LEU234      0.1561
     41  C        -75.0470   61.3540   95.0740 C.2   234  LEU234      0.2260
     42  O        -74.4470   61.7330   94.0660 O.2   234  LEU234     -0.2867
     43  CB       -75.8230   63.1350   96.6250 C.3   234  LEU234      0.0270
     44  CG       -76.8400   64.2030   97.0230 C.3   234  LEU234      0.0019
     45  CD1      -76.3650   64.9850   98.2470 C.3   234  LEU234      0.0001
     46  CD2      -77.1090   65.1450   95.8650 C.3   234  LEU234      0.0001
     47  N        -73.6160   62.0660   91.0600 N.3   238  ARG238     -0.1245
     48  CA       -72.4150   62.8870   90.8560 C.3   238  ARG238      0.1563
     49  C        -71.3200   62.1090   90.1340 C.2   238  ARG238      0.2260
     50  O        -71.2470   60.8780   90.2320 O.2   238  ARG238     -0.2867
     51  CB       -71.8460   63.3870   92.1980 C.3   238  ARG238      0.0307
     52  CG       -72.6380   64.5450   92.8510 C.3   238  ARG238      0.0489
     53  CD       -71.9430   65.0910   94.0790 C.3   238  ARG238      0.2205
     54  NE       -72.7700   66.0710   94.7720 N.pl3 238  ARG238     -0.0865
     55  CZ       -72.4410   66.6300   95.9290 C.cat 238  ARG238      0.5346
     56  NH1      -71.2910   66.3110   96.5260 N.pl3 238  ARG238      0.1354
     57  NH2      -73.2660   67.5040   96.4870 N.pl3 238  ARG238      0.1354
     58  N        -72.4850   68.2850  105.7000 N.3   248  LYS248     -0.1231
     59  CA       -73.0630   69.4000  104.9480 C.3   248  LYS248      0.1693
     60  C        -74.4890   69.0880  104.4900 C.2   248  LYS248      0.2591
     61  O        -75.3410   69.9810  104.4260 O.2   248  LYS248     -0.2718
     62  CB       -72.1890   69.7330  103.7360 C.3   248  LYS248      0.0285
     63  CG       -70.8970   70.4400  104.0730 C.3   248  LYS248      0.0035
     64  CD       -70.0270   70.6270  102.8240 C.3   248  LYS248      0.0206
     65  CE       -68.7420   71.4000  103.1310 C.3   248  LYS248      0.1093
     66  NZ       -67.7740   71.3380  101.9900 N.3   248  LYS248     -0.1314
     67  N        -74.7660   67.8370  104.1400 N.am  249  VAL249     -0.1980
     68  CA       -76.1390   67.4840  103.8020 C.3   249  VAL249      0.1595
     69  C        -77.0350   67.6350  105.0310 C.2   249  VAL249      0.2287
     70  O        -78.1290   68.1890  104.9470 O.2   249  VAL249     -0.2864
     71  CB       -76.1810   66.0650  103.2070 C.3   249  VAL249      0.0276
     72  CG1      -77.6150   65.6340  102.9160 C.3   249  VAL249      0.0022
     73  CG2      -75.3230   66.0150  101.9360 C.3   249  VAL249      0.0022
     74  N        -77.8450   71.2350  105.6770 N.3   252  GLU252     -0.1245
     75  CA       -78.8580   71.6730  104.7110 C.3   252  GLU252      0.1567
     76  C        -80.2600   71.2410  105.1460 C.2   252  GLU252      0.2260
     77  O        -81.2100   72.0350  105.0940 O.2   252  GLU252     -0.2867
     78  CB       -78.4970   71.1380  103.3140 C.3   252  GLU252      0.0388
     79  CG       -79.4680   71.5010  102.1700 C.3   252  GLU252      0.1160
     80  CD       -79.4470   72.9680  101.7480 C.2   252  GLU252      0.3649
     81  OE1      -78.4540   73.6990  102.0280 O.co2 252  GLU252     -0.2457
     82  OE2      -80.4490   73.3700  101.1220 O.co2 252  GLU252     -0.2457
@<TRIPOS>BOND
     1    49    50    2
     2    49    48    1
     3    48    47    1
     4    48    51    1
     5    51    52    1
     6    21    20    2
     7    52    53    1
     8    26    24   ar
     9    17    15   ar
    10    23    24    1
    11    23    22    1
    12    12    11    2
    13    30    29    2
    14    20    19    1
    15    20    27   am
    16    42    41    2
    17    53    54    1
    18    19    22    1
    19    19    18    1
    20    24    25   ar
    21    14    15    1
    22    14    13    1
    23    15    16   ar
    24    29    28    1
    25    11    18   am
    26    11    10    1
    27    54    55    2
    28    28    27    1
    29    28    31    1
    30    41    40    1
    31    13    10    1
    32    10     9    1
    33    40    39    1
    34    40    43    1
    35    46    44    1
    36    55    57    1
    37    55    56    1
    38     4     3    2
    39    43    44    1
    40     9     3   am
    41    44    45    1
    42     3     2    1
    43    35    34    2
    44     2     1    1
    45     2     5    1
    46     5     6    1
    47    34    33    1
    48    33    36    1
    49    33    32    1
    50    38    36    1
    51     6     7    1
    52    37    36    1
    53    82    80   ar
    54     8     7    1
    55    80    81   ar
    56    80    79    1
    57    73    71    1
    58    66    65    1
    59    79    78    1
    60    64    65    1
    61    64    63    1
    62    72    71    1
    63    71    68    1
    64    78    75    1
    65    62    63    1
    66    62    59    1
    67    68    67    1
    68    68    69    1
    69    67    60   am
    70    61    60    2
    71    60    59    1
    72    75    76    1
    73    75    74    1
    74    70    69    2
    75    59    58    1
    76    77    76    2
