@<TRIPOS>MOLECULE
tmp/5qg8A00.pdb
 104 98 0 0 0
SMALL
GASTEIGER

@<TRIPOS>ATOM
      1  N         28.4140   -8.5910  -19.9200 N.3     4  GLU4       -0.1245
      2  CA        29.2500   -7.6380  -19.1850 C.3     4  GLU4        0.1567
      3  C         28.4270   -6.6290  -18.3920 C.2     4  GLU4        0.2260
      4  O         28.8870   -6.1280  -17.3570 O.2     4  GLU4       -0.2867
      5  CB        30.1840   -6.8890  -20.1290 C.3     4  GLU4        0.0388
      6  CG        30.9400   -5.7570  -19.4370 C.3     4  GLU4        0.1160
      7  CD        32.3510   -5.5620  -19.9680 C.2     4  GLU4        0.3649
      8  OE1       32.5650   -5.7390  -21.1870 O.co2   4  GLU4       -0.2457
      9  OE2       33.2510   -5.2310  -19.1590 O.co2   4  GLU4       -0.2457
     10  N         26.7150   -8.2750  -15.5600 N.3     7  PHE7       -0.1227
     11  CA        27.7460   -8.4630  -14.5400 C.3     7  PHE7        0.1736
     12  C         27.8290   -7.2610  -13.6020 C.2     7  PHE7        0.2595
     13  O         27.7860   -7.4100  -12.3740 O.2     7  PHE7       -0.2718
     14  CB        29.0980   -8.7200  -15.2130 C.3     7  PHE7        0.0547
     15  CG        30.2390   -8.9020  -14.2450 C.ar    7  PHE7       -0.0202
     16  CD1       31.0340   -7.8310  -13.8870 C.ar    7  PHE7       -0.0042
     17  CD2       30.5170  -10.1490  -13.6950 C.ar    7  PHE7       -0.0042
     18  CE1       32.0860   -7.9910  -12.9990 C.ar    7  PHE7       -0.0003
     19  CE2       31.5710  -10.3200  -12.8160 C.ar    7  PHE7       -0.0003
     20  CZ        32.3540   -9.2390  -12.4610 C.ar    7  PHE7       -0.0000
     21  N         27.9670   -6.0590  -14.1620 N.am    8  GLU8       -0.1979
     22  CA        28.0760   -4.8690  -13.3220 C.3     8  GLU8        0.1602
     23  C         26.7830   -4.6160  -12.5570 C.2     8  GLU8        0.2287
     24  O         26.8170   -4.0940  -11.4370 O.2     8  GLU8       -0.2864
     25  CB        28.4420   -3.6530  -14.1730 C.3     8  GLU8        0.0415
     26  CG        29.4680   -3.9350  -15.2600 C.3     8  GLU8        0.1163
     27  CD        30.6210   -2.9570  -15.2500 C.2     8  GLU8        0.3649
     28  OE1       31.1670   -2.6940  -14.1600 O.co2   8  GLU8       -0.2457
     29  OE2       30.9820   -2.4520  -16.3350 O.co2   8  GLU8       -0.2457
     30  N         27.0330   -6.8620   -9.5340 N.3    11  ASP11      -0.1239
     31  CA        28.0080   -6.3110   -8.5980 C.3    11  ASP11       0.1674
     32  C         27.4200   -5.1230   -7.8450 C.2    11  ASP11       0.2266
     33  O         27.4610   -5.0740   -6.6100 O.2    11  ASP11      -0.2867
     34  CB        29.2810   -5.8990   -9.3410 C.3    11  ASP11       0.1410
     35  CG        30.4250   -6.8940   -9.1610 C.2    11  ASP11       0.3668
     36  OD1       30.2110   -7.9690   -8.5530 O.co2  11  ASP11      -0.2456
     37  OD2       31.5460   -6.6020   -9.6390 O.co2  11  ASP11      -0.2456
     38  N         42.2250  -13.6480   -8.2960 N.3   186  GLU186     -0.1231
     39  CA        41.8320  -12.2490   -8.4060 C.3   186  GLU186      0.1699
     40  C         41.5950  -11.8410   -9.8530 C.2   186  GLU186      0.2593
     41  O         40.6560  -11.0880  -10.1420 O.2   186  GLU186     -0.2718
     42  CB        42.9060  -11.3680   -7.7810 C.3   186  GLU186      0.0402
     43  CG        42.5700   -9.8970   -7.7630 C.3   186  GLU186      0.1161
     44  CD        43.3650   -9.1490   -6.7110 C.2   186  GLU186      0.3649
     45  OE1       43.2080   -9.4660   -5.5120 O.co2 186  GLU186     -0.2457
     46  OE2       44.1610   -8.2600   -7.0810 O.co2 186  GLU186     -0.2457
     47  N         42.4460  -12.3040  -10.7650 N.am  187  SER187     -0.1939
     48  CA        42.3340  -12.0670  -12.1970 C.3   187  SER187      0.2040
     49  C         42.1570  -13.3930  -12.9220 C.2   187  SER187      0.2485
     50  O         42.7530  -14.3880  -12.5040 O.2   187  SER187     -0.2729
     51  CB        43.5950  -11.3710  -12.7400 C.3   187  SER187      0.2129
     52  OG        43.6760  -11.4660  -14.1480 O.3   187  SER187     -0.2179
     53  N         41.3640  -13.4450  -14.0050 N.am  188  PRO188     -0.2726
     54  CA        41.2630  -14.6840  -14.7880 C.3   188  PRO188      0.1402
     55  C         42.3790  -14.8790  -15.7870 C.2   188  PRO188      0.2269
     56  O         42.3360  -15.8440  -16.5440 O.2   188  PRO188     -0.2865
     57  CB        39.9170  -14.5170  -15.5270 C.3   188  PRO188      0.0296
     58  CG        39.8350  -13.0630  -15.7820 C.3   188  PRO188      0.0237
     59  CD        40.4200  -12.4270  -14.5030 C.3   188  PRO188      0.0939
     60  N         30.7900  -15.8600  -10.1400 N.3   268  ARG268     -0.1245
     61  CA        31.3040  -14.5600  -10.5660 C.3   268  ARG268      0.1563
     62  C         32.6150  -14.7040  -11.3290 C.2   268  ARG268      0.2260
     63  O         32.8260  -14.0410  -12.3530 O.2   268  ARG268     -0.2867
     64  CB        31.4850  -13.6540   -9.3420 C.3   268  ARG268      0.0307
     65  CG        32.0030  -12.2610   -9.6640 C.3   268  ARG268      0.0489
     66  CD        32.1730  -11.4230   -8.3930 C.3   268  ARG268      0.2205
     67  NE        32.5250  -10.0450   -8.7250 N.pl3 268  ARG268     -0.0865
     68  CZ        33.7640   -9.6210   -8.9480 C.cat 268  ARG268      0.5346
     69  NH1       34.7940  -10.4520   -8.8460 N.pl3 268  ARG268      0.1354
     70  NH2       33.9720   -8.3580   -9.2820 N.pl3 268  ARG268      0.1354
     71  N         33.6280  -13.4440  -15.1600 N.3   272  LEU272     -0.1245
     72  CA        34.8120  -12.6310  -15.4390 C.3   272  LEU272      0.1561
     73  C         35.6780  -13.2620  -16.5000 C.2   272  LEU272      0.2260
     74  O         36.2280  -12.5690  -17.3620 O.2   272  LEU272     -0.2867
     75  CB        35.6670  -12.4430  -14.1860 C.3   272  LEU272      0.0270
     76  CG        35.5190  -11.2420  -13.2750 C.3   272  LEU272      0.0019
     77  CD1       36.5930  -11.3660  -12.2000 C.3   272  LEU272      0.0001
     78  CD2       35.6530   -9.9300  -14.0330 C.3   272  LEU272      0.0001
     79  N         34.0850  -12.9180  -20.0180 N.3   275  ILE275     -0.1231
     80  CA        34.1160  -11.5140  -20.4430 C.3   275  ILE275      0.1692
     81  C         35.4890  -11.1090  -20.9450 C.2   275  ILE275      0.2591
     82  O         35.6210  -10.5030  -22.0090 O.2   275  ILE275     -0.2718
     83  CB        33.6620  -10.6230  -19.2840 C.3   275  ILE275      0.0266
     84  CG1       32.1970  -10.8610  -19.0190 C.3   275  ILE275      0.0019
     85  CG2       33.8950   -9.1880  -19.6010 C.3   275  ILE275      0.0020
     86  CD1       31.7090  -10.2710  -17.7600 C.3   275  ILE275      0.0001
     87  N         36.5310  -11.4430  -20.1940 N.am  276  GLU276     -0.1979
     88  CA        37.8790  -11.0490  -20.5910 C.3   276  GLU276      0.1602
     89  C         38.3680  -11.8780  -21.7680 C.2   276  GLU276      0.2287
     90  O         39.0870  -11.3980  -22.6480 O.2   276  GLU276     -0.2864
     91  CB        38.8240  -11.2030  -19.4110 C.3   276  GLU276      0.0415
     92  CG        40.2060  -10.6640  -19.6710 C.3   276  GLU276      0.1163
     93  CD        40.1990   -9.1890  -19.9970 C.2   276  GLU276      0.3649
     94  OE1       39.2570   -8.4830  -19.5740 O.co2 276  GLU276     -0.2457
     95  OE2       41.1340   -8.7360  -20.6910 O.co2 276  GLU276     -0.2457
     96  N         37.4380  -10.7240  -25.3650 N.3   279  LYS279     -0.1245
     97  CA        38.1370   -9.5750  -25.9280 C.3   279  LYS279      0.1561
     98  C         39.4510   -9.9910  -26.5490 C.2   279  LYS279      0.2260
     99  O         39.9040   -9.3970  -27.5310 O.2   279  LYS279     -0.2867
    100  CB        38.3900   -8.5400  -24.8350 C.3   279  LYS279      0.0271
    101  CG        37.1430   -8.1830  -24.0710 C.3   279  LYS279      0.0035
    102  CD        37.4720   -7.4260  -22.8240 C.3   279  LYS279      0.0206
    103  CE        36.3130   -6.5310  -22.4240 C.3   279  LYS279      0.1093
    104  NZ        36.3500   -6.1720  -20.9630 N.3   279  LYS279     -0.1314
@<TRIPOS>BOND
     1    99    98    2
     2    98    97    1
     3    97    96    1
     4    97   100    1
     5   100   101    1
     6   101   102    1
     7   102   103    1
     8    90    89    2
     9   103   104    1
    10    82    81    2
    11    89    88    1
    12     8     7   ar
    13    81    80    1
    14    81    87   am
    15    95    93   ar
    16    88    87    1
    17    88    91    1
    18    80    79    1
    19    80    83    1
    20     5     6    1
    21     5     2    1
    22    93    92    1
    23    93    94   ar
    24     7     6    1
    25     7     9   ar
    26     1     2    1
    27    92    91    1
    28    85    83    1
    29    83    84    1
    30     2     3    1
    31    84    86    1
    32     3     4    2
    33    74    73    2
    34    56    55    2
    35    73    72    1
    36    29    27   ar
    37    55    54    1
    38    58    57    1
    39    58    59    1
    40    10    11    1
    41    57    54    1
    42    72    71    1
    43    72    75    1
    44    26    27    1
    45    26    25    1
    46    27    28   ar
    47    14    11    1
    48    14    15    1
    49    54    53    1
    50    11    12    1
    51    59    53    1
    52    15    16   ar
    53    15    17   ar
    54    75    76    1
    55    25    22    1
    56    21    12   am
    57    21    22    1
    58    52    51    1
    59    78    76    1
    60    53    49   am
    61    16    18   ar
    62    17    19   ar
    63    12    13    2
    64    22    23    1
    65    76    77    1
    66    18    20   ar
    67    49    50    2
    68    49    48    1
    69    19    20   ar
    70    51    48    1
    71    23    24    2
    72    63    62    2
    73    48    47    1
    74    62    61    1
    75    47    40   am
    76    61    60    1
    77    61    64    1
    78    41    40    2
    79    40    39    1
    80    65    64    1
    81    65    66    1
    82    37    35   ar
    83    30    31    1
    84    34    35    1
    85    34    31    1
    86    70    68    1
    87    35    36   ar
    88    68    69    1
    89    68    67    2
    90    67    66    1
    91    31    32    1
    92    39    38    1
    93    39    42    1
    94    32    33    2
    95    42    43    1
    96    43    44    1
    97    46    44   ar
    98    44    45   ar
