@<TRIPOS>MOLECULE
tmp/5qg9A01.pdb
 97 94 0 0 0
SMALL
GASTEIGER

@<TRIPOS>ATOM
      1  N        -28.5150    4.9110   -1.1650 N.3    60  HIS60      -0.1226
      2  CA       -27.5690    4.1340   -1.9860 C.3    60  HIS60       0.1752
      3  C        -26.2680    3.9640   -1.2100 C.2    60  HIS60       0.2595
      4  O        -25.2350    4.5690   -1.4890 O.2    60  HIS60      -0.2718
      5  CB       -27.3190    4.8090   -3.3260 C.3    60  HIS60       0.0759
      6  CG       -28.5400    4.9990   -4.1670 C.ar   60  HIS60       0.0818
      7  ND1      -28.5010    5.6480   -5.3820 N.ar   60  HIS60      -0.2268
      8  CD2      -29.8350    4.6540   -3.9680 C.ar   60  HIS60       0.1154
      9  CE1      -29.7150    5.6900   -5.8990 C.ar   60  HIS60       0.1986
     10  NE2      -30.5460    5.0970   -5.0580 N.ar   60  HIS60      -0.2212
     11  N        -26.3570    3.1180   -0.1960 N.am   61  GLN61      -0.1979
     12  CA       -25.2680    2.8820    0.7320 C.3    61  GLN61       0.1601
     13  C        -25.4060    1.4410    1.1940 C.2    61  GLN61       0.2287
     14  O        -26.5200    0.9670    1.4170 O.2    61  GLN61      -0.2864
     15  CB       -25.3410    3.8700    1.9060 C.3    61  GLN61       0.0394
     16  CG       -24.0010    4.3900    2.3800 C.3    61  GLN61       0.0908
     17  CD       -23.5250    3.6770    3.6250 C.2    61  GLN61       0.2608
     18  OE1      -22.6800    2.7810    3.5580 O.2    61  GLN61      -0.2717
     19  NE2      -24.0750    4.0660    4.7750 N.am   61  GLN61      -0.0878
     20  N        -28.3420   13.4010    1.0600 N.3    97  GLU97      -0.1245
     21  CA       -28.0320   12.2520    0.2100 C.3    97  GLU97       0.1567
     22  C        -29.2680   11.7990   -0.5770 C.2    97  GLU97       0.2260
     23  O        -29.1810   11.5580   -1.7880 O.2    97  GLU97      -0.2867
     24  CB       -27.4700   11.1050    1.0600 C.3    97  GLU97       0.0388
     25  CG       -27.2390    9.8140    0.2180 C.3    97  GLU97       0.1160
     26  CD       -26.8140    8.5810    1.0090 C.2    97  GLU97       0.3649
     27  OE1      -26.7040    8.5910    2.2540 O.co2  97  GLU97      -0.2457
     28  OE2      -26.5800    7.5460    0.3160 O.co2  97  GLU97      -0.2457
     29  N        -30.1740   14.2930   -3.4010 N.3   100  TRP100     -0.1227
     30  CA       -29.2380   14.0790   -4.5020 C.3   100  TRP100      0.1737
     31  C        -29.5860   12.8190   -5.2960 C.2   100  TRP100      0.2595
     32  O        -29.7200   12.8600   -6.5310 O.2   100  TRP100     -0.2718
     33  CB       -27.8090   13.9580   -3.9600 C.3   100  TRP100      0.0564
     34  CG       -26.8060   13.8290   -5.1070 C.ar  100  TRP100      0.0003
     35  CD1      -26.3440   12.6650   -5.6740 C.ar  100  TRP100      0.0946
     36  CD2      -26.2020   14.9040   -5.8600 C.ar  100  TRP100      0.0152
     37  NE1      -25.5020   12.9470   -6.7390 N.ar  100  TRP100     -0.2442
     38  CE2      -25.3960   14.3090   -6.8680 C.ar  100  TRP100      0.0810
     39  CE3      -26.2680   16.3010   -5.7850 C.ar  100  TRP100      0.0012
     40  CZ2      -24.6510   15.0670   -7.7800 C.ar  100  TRP100      0.0191
     41  CZ3      -25.5200   17.0570   -6.7040 C.ar  100  TRP100      0.0001
     42  CH2      -24.7300   16.4300   -7.6880 C.ar  100  TRP100      0.0015
     43  N        -29.7090   11.6880   -4.5980 N.am  101  GLU101     -0.1979
     44  CA       -29.8770   10.3980   -5.2820 C.3   101  GLU101      0.1602
     45  C        -31.2110   10.2980   -6.0180 C.2   101  GLU101      0.2287
     46  O        -31.2870    9.6590   -7.0820 O.2   101  GLU101     -0.2864
     47  CB       -29.7110    9.2510   -4.2660 C.3   101  GLU101      0.0415
     48  CG       -28.2720    9.0080   -3.8170 C.3   101  GLU101      0.1163
     49  CD       -28.1140    8.1250   -2.5780 C.2   101  GLU101      0.3649
     50  OE1      -29.1280    7.7060   -1.9660 O.co2 101  GLU101     -0.2457
     51  OE2      -26.9580    7.8570   -2.1910 O.co2 101  GLU101     -0.2457
     52  N        -20.2800   12.7390    6.5860 N.3   137  ASP137     -0.1225
     53  CA       -20.6810   11.3340    6.4880 C.3   137  ASP137      0.1805
     54  C        -21.1810   10.9690    5.0820 C.2   137  ASP137      0.2598
     55  O        -21.0070    9.8260    4.6520 O.2   137  ASP137     -0.2718
     56  CB       -21.7170   10.9800    7.5770 C.3   137  ASP137      0.1424
     57  CG       -23.0160   11.8040    7.5070 C.2   137  ASP137      0.3668
     58  OD1      -23.0420   12.9370    6.9670 O.co2 137  ASP137     -0.2456
     59  OD2      -24.0310   11.3030    8.0430 O.co2 137  ASP137     -0.2456
     60  N        -21.7570   11.9130    4.3310 N.am  138  THR138     -0.1939
     61  CA       -22.2390   11.6260    2.9780 C.3   138  THR138      0.2028
     62  C        -21.5110   12.4010    1.8720 C.2   138  THR138      0.2642
     63  O        -21.8700   12.2680    0.6920 O.2   138  THR138     -0.2714
     64  CB       -23.7480   11.8980    2.8920 C.3   138  THR138      0.1808
     65  OG1      -24.0240   13.2520    3.3000 O.3   138  THR138     -0.2208
     66  CG2      -24.5150   10.9260    3.8000 C.3   138  THR138      0.0379
     67  N        -20.5090   13.2050    2.2270 N.am  139  ASN139     -0.1957
     68  CA       -19.6280   13.8970    1.2720 C.3   139  ASN139      0.1819
     69  C        -20.3840   14.8640    0.3570 C.2   139  ASN139      0.2621
     70  O        -20.2420   14.8480   -0.8710 O.2   139  ASN139     -0.2715
     71  CB       -18.8100   12.8960    0.4530 C.3   139  ASN139      0.1195
     72  CG       -17.4110   13.4220    0.1400 C.2   139  ASN139      0.2630
     73  OD1      -16.8340   14.1820    0.9120 O.2   139  ASN139     -0.2716
     74  ND2      -16.8850   13.0430   -1.0030 N.am  139  ASN139     -0.0877
     75  N        -21.1590   15.7530    0.9760 N.am  140  LEU140     -0.1977
     76  CA       -21.9250   16.7670    0.2670 C.3   140  LEU140      0.1596
     77  C        -21.6310   18.1410    0.8570 C.2   140  LEU140      0.2287
     78  O        -21.4210   18.2870    2.0720 O.2   140  LEU140     -0.2864
     79  CB       -23.4390   16.5050    0.3540 C.3   140  LEU140      0.0297
     80  CG       -23.9340   15.2860   -0.4340 C.3   140  LEU140      0.0022
     81  CD1      -25.2690   14.8060    0.1330 C.3   140  LEU140      0.0001
     82  CD2      -24.0520   15.5980   -1.8960 C.3   140  LEU140      0.0001
     83  N        -21.9400   17.4040   -4.9210 N.3   162  ASN162     -0.1240
     84  CA       -21.4210   16.0740   -4.6160 C.3   162  ASN162      0.1653
     85  C        -19.9020   16.1540   -4.6440 C.2   162  ASN162      0.2266
     86  O        -19.3050   16.2720   -5.7210 O.2   162  ASN162     -0.2867
     87  CB       -21.9610   15.0670   -5.6290 C.3   162  ASN162      0.1155
     88  CG       -21.4100   13.6560   -5.4270 C.2   162  ASN162      0.2627
     89  OD1      -20.4660   13.4320   -4.6680 O.2   162  ASN162     -0.2716
     90  ND2      -22.0170   12.6970   -6.1100 N.am  162  ASN162     -0.0877
     91  N        -17.6440   13.9790   -4.1770 N.3   164  THR164     -0.1218
     92  CA       -16.9360   12.8580   -4.7970 C.3   164  THR164      0.1862
     93  C        -16.7170   13.1240   -6.2870 C.2   164  THR164      0.2287
     94  O        -15.6480   12.8110   -6.8250 O.2   164  THR164     -0.2866
     95  CB       -17.7060   11.5300   -4.5920 C.3   164  THR164      0.1770
     96  OG1      -17.7730   11.1490   -3.2120 O.3   164  THR164     -0.2211
     97  CG2      -17.0090   10.3850   -5.3160 C.3   164  THR164      0.0375
@<TRIPOS>BOND
     1    40    42   ar
     2    40    38   ar
     3    42    41   ar
     4    46    45    2
     5    38    37   ar
     6    38    36   ar
     7    94    93    2
     8    37    35   ar
     9    41    39   ar
    10    32    31    2
    11    93    92    1
    12    90    88   am
    13    45    44    1
    14     9     7   ar
    15     9    10   ar
    16    36    39   ar
    17    36    34   ar
    18    86    85    2
    19    35    34   ar
    20    87    88    1
    21    87    84    1
    22    88    89    2
    23     7     6   ar
    24    97    95    1
    25    31    43   am
    26    31    30    1
    27    44    43    1
    28    44    47    1
    29    34    33    1
    30    10     8   ar
    31    83    84    1
    32    92    95    1
    33    92    91    1
    34    85    84    1
    35    95    96    1
    36    30    33    1
    37    30    29    1
    38    47    48    1
    39     6     8   ar
    40     6     5    1
    41    48    49    1
    42     5     2    1
    43    49    51   ar
    44    49    50   ar
    45     2     3    1
    46     2     1    1
    47    82    80    1
    48    23    22    2
    49     4     3    2
    50     3    11   am
    51    74    72   am
    52    70    69    2
    53    22    21    1
    54    80    81    1
    55    80    79    1
    56    11    12    1
    57    72    71    1
    58    72    73    2
    59    21    20    1
    60    21    24    1
    61    25    26    1
    62    25    24    1
    63    76    79    1
    64    76    77    1
    65    76    75    1
    66    28    26   ar
    67    69    75   am
    68    69    68    1
    69    71    68    1
    70    63    62    2
    71    12    13    1
    72    12    15    1
    73    77    78    2
    74    26    27   ar
    75    13    14    2
    76    68    67    1
    77    62    67   am
    78    62    61    1
    79    15    16    1
    80    16    17    1
    81    64    61    1
    82    64    65    1
    83    64    66    1
    84    61    60    1
    85    18    17    2
    86    17    19   am
    87    60    54   am
    88    55    54    2
    89    54    53    1
    90    53    52    1
    91    53    56    1
    92    58    57   ar
    93    57    56    1
    94    57    59   ar
