@<TRIPOS>MOLECULE
tmp/5qgbA00.pdb
 100 95 0 0 0
SMALL
GASTEIGER

@<TRIPOS>ATOM
      1  N         43.1970  -13.8970  -15.7110 N.3   189  ALA189     -0.1245
      2  CA        44.1530  -13.9140  -16.8130 C.3   189  ALA189      0.1562
      3  C         44.9430  -15.2200  -16.8840 C.2   189  ALA189      0.2260
      4  O         45.1190  -15.7720  -17.9680 O.2   189  ALA189     -0.2867
      5  CB        45.0930  -12.7060  -16.7200 C.3   189  ALA189      0.0290
      6  N         42.6650  -18.1820  -18.0160 N.3   192  LEU192     -0.1231
      7  CA        42.3760  -18.1200  -19.4630 C.3   192  LEU192      0.1693
      8  C         43.5980  -18.5130  -20.2840 C.2   192  LEU192      0.2592
      9  O         43.4730  -19.2760  -21.2460 O.2   192  LEU192     -0.2718
     10  CB        41.9170  -16.7080  -19.8550 C.3   192  LEU192      0.0284
     11  CG        40.5100  -16.2860  -19.4550 C.3   192  LEU192      0.0019
     12  CD1       40.3720  -14.7820  -19.5890 C.3   192  LEU192      0.0001
     13  CD2       39.4650  -17.0010  -20.3010 C.3   192  LEU192      0.0001
     14  N         44.7780  -18.0280  -19.9150 N.am  193  ASN193     -0.1974
     15  CA        46.0010  -18.4600  -20.5880 C.3   193  ASN193      0.1688
     16  C         46.1390  -19.9790  -20.5480 C.2   193  ASN193      0.2292
     17  O         46.5040  -20.6080  -21.5480 O.2   193  ASN193     -0.2864
     18  CB        47.2060  -17.7810  -19.9370 C.3   193  ASN193      0.1181
     19  CG        48.5020  -18.0250  -20.6890 C.2   193  ASN193      0.2629
     20  OD1       48.6350  -17.6540  -21.8540 O.2   193  ASN193     -0.2716
     21  ND2       49.4740  -18.6280  -20.0150 N.am  193  ASN193     -0.0877
     22  N         43.6040  -22.2190  -20.2050 N.3   195  LEU195     -0.1231
     23  CA        42.5820  -22.7890  -21.1000 C.3   195  LEU195      0.1693
     24  C         43.0660  -22.7820  -22.5510 C.2   195  LEU195      0.2592
     25  O         42.9300  -23.7890  -23.2660 O.2   195  LEU195     -0.2718
     26  CB        41.2700  -22.0100  -20.9690 C.3   195  LEU195      0.0284
     27  CG        40.2150  -22.2920  -22.0640 C.3   195  LEU195      0.0019
     28  CD1       39.8050  -23.7500  -22.0340 C.3   195  LEU195      0.0001
     29  CD2       39.0350  -21.3900  -21.8560 C.3   195  LEU195      0.0001
     30  N         43.6640  -21.6660  -22.9760 N.am  196  PHE196     -0.1976
     31  CA        44.1580  -21.5460  -24.3470 C.3   196  PHE196      0.1639
     32  C         45.2850  -22.5380  -24.6250 C.2   196  PHE196      0.2290
     33  O         45.3590  -23.1090  -25.7110 O.2   196  PHE196     -0.2864
     34  CB        44.5940  -20.1020  -24.6250 C.3   196  PHE196      0.0560
     35  CG        43.4870  -19.0940  -24.5140 C.ar  196  PHE196     -0.0200
     36  CD1       42.1530  -19.4720  -24.6620 C.ar  196  PHE196     -0.0042
     37  CD2       43.7760  -17.7620  -24.2600 C.ar  196  PHE196     -0.0042
     38  CE1       41.1320  -18.5490  -24.5430 C.ar  196  PHE196     -0.0003
     39  CE2       42.7590  -16.8230  -24.1460 C.ar  196  PHE196     -0.0003
     40  CZ        41.4350  -17.2140  -24.2920 C.ar  196  PHE196     -0.0000
     41  N         43.5810  -25.8410  -25.2720 N.3   199  ARG199     -0.1231
     42  CA        43.0060  -25.7940  -26.6310 C.3   199  ARG199      0.1694
     43  C         44.0770  -26.0200  -27.6870 C.2   199  ARG199      0.2591
     44  O         43.8970  -26.8340  -28.5980 O.2   199  ARG199     -0.2718
     45  CB        42.3350  -24.4450  -26.8560 C.3   199  ARG199      0.0321
     46  CG        40.9320  -24.3080  -26.3070 C.3   199  ARG199      0.0489
     47  CD        40.3570  -22.9480  -26.7060 C.3   199  ARG199      0.2205
     48  NE        38.9640  -22.7800  -26.2900 N.pl3 199  ARG199     -0.0865
     49  CZ        38.1480  -21.8510  -26.7750 C.cat 199  ARG199      0.5346
     50  NH1       38.5680  -20.9940  -27.7170 N.pl3 199  ARG199      0.1354
     51  NH2       36.9050  -21.7860  -26.3420 N.pl3 199  ARG199      0.1354
     52  N         45.1980  -25.2950  -27.5700 N.am  200  GLU200     -0.1979
     53  CA        46.2250  -25.3400  -28.6120 C.3   200  GLU200      0.1602
     54  C         46.8240  -26.7270  -28.7690 C.2   200  GLU200      0.2287
     55  O         47.3260  -27.0630  -29.8470 O.2   200  GLU200     -0.2864
     56  CB        47.3170  -24.3230  -28.3010 C.3   200  GLU200      0.0415
     57  CG        46.8910  -22.9000  -28.4890 C.3   200  GLU200      0.1163
     58  CD        47.9570  -21.9040  -28.0810 C.2   200  GLU200      0.3649
     59  OE1       49.0780  -22.3350  -27.7080 O.co2 200  GLU200     -0.2457
     60  OE2       47.6560  -20.6930  -28.1380 O.co2 200  GLU200     -0.2457
     61  N         32.7230  -19.3040  -24.4540 N.3   232  LEU232     -0.1245
     62  CA        33.5750  -18.6280  -25.4430 C.3   232  LEU232      0.1561
     63  C         33.4130  -19.2290  -26.8420 C.2   232  LEU232      0.2260
     64  O         33.3900  -18.4880  -27.8320 O.2   232  LEU232     -0.2867
     65  CB        35.0290  -18.6720  -24.9830 C.3   232  LEU232      0.0270
     66  CG        35.3150  -17.7880  -23.7790 C.3   232  LEU232      0.0019
     67  CD1       36.7020  -18.1460  -23.2030 C.3   232  LEU232      0.0001
     68  CD2       35.2160  -16.2970  -24.1140 C.3   232  LEU232      0.0001
     69  N         36.3640  -11.3190  -20.0450 N.3   276  GLU276     -0.1231
     70  CA        37.7120  -10.9060  -20.4330 C.3   276  GLU276      0.1699
     71  C         38.1990  -11.7150  -21.6200 C.2   276  GLU276      0.2592
     72  O         38.9110  -11.2130  -22.4990 O.2   276  GLU276     -0.2718
     73  CB        38.6530  -11.0780  -19.2480 C.3   276  GLU276      0.0402
     74  CG        40.0360  -10.5360  -19.5020 C.3   276  GLU276      0.1161
     75  CD        40.0220   -9.0610  -19.8290 C.2   276  GLU276      0.3649
     76  OE1       39.0760   -8.3610  -19.4060 O.co2 276  GLU276     -0.2457
     77  OE2       40.9510   -8.6060  -20.5210 O.co2 276  GLU276     -0.2457
     78  N         37.8340  -12.9780  -21.6330 N.am  277  GLY277     -0.1957
     79  CA        38.2160  -13.8520  -22.7090 C.3   277  GLY277      0.1869
     80  C         37.6330  -13.4310  -24.0410 C.2   277  GLY277      0.2309
     81  O         38.2650  -13.6140  -25.0810 O.2   277  GLY277     -0.2863
     82  N         39.8780  -10.8670  -25.8570 N.3   280  PHE280     -0.1227
     83  CA        41.1550  -11.3270  -26.3530 C.3   280  PHE280      0.1736
     84  C         40.9920  -12.1400  -27.6140 C.2   280  PHE280      0.2595
     85  O         41.9030  -12.1680  -28.4470 O.2   280  PHE280     -0.2718
     86  CB        41.8300  -12.1770  -25.2940 C.3   280  PHE280      0.0547
     87  CG        43.2850  -12.3400  -25.4980 C.ar  280  PHE280     -0.0202
     88  CD1       44.1510  -11.2950  -25.2340 C.ar  280  PHE280     -0.0042
     89  CD2       43.7950  -13.5390  -25.9510 C.ar  280  PHE280     -0.0042
     90  CE1       45.5030  -11.4480  -25.4150 C.ar  280  PHE280     -0.0003
     91  CE2       45.1430  -13.6990  -26.1310 C.ar  280  PHE280     -0.0003
     92  CZ        46.0010  -12.6520  -25.8660 C.ar  280  PHE280     -0.0000
     93  N         39.8530  -12.8210  -27.7530 N.am  281  ILE281     -0.1980
     94  CA        39.6150  -13.6640  -28.9150 C.3   281  ILE281      0.1595
     95  C         39.6470  -12.8290  -30.1850 C.2   281  ILE281      0.2287
     96  O         40.0910  -13.3000  -31.2390 O.2   281  ILE281     -0.2864
     97  CB        38.2770  -14.4140  -28.7470 C.3   281  ILE281      0.0276
     98  CG1       38.2690  -15.7030  -29.5680 C.3   281  ILE281      0.0022
     99  CG2       37.0960  -13.5330  -29.1460 C.3   281  ILE281      0.0022
    100  CD1       38.1020  -16.9440  -28.7160 C.3   281  ILE281      0.0001
@<TRIPOS>BOND
     1    96    95    2
     2    95    94    1
     3    55    54    2
     4    98    97    1
     5    98   100    1
     6    99    97    1
     7    94    97    1
     8    94    93    1
     9    54    53    1
    10    53    56    1
    11    53    52    1
    12    44    43    2
    13    57    56    1
    14    57    58    1
    15    85    84    2
    16    60    58   ar
    17    58    59   ar
    18    64    63    2
    19    93    84   am
    20    50    49    1
    21    43    52   am
    22    43    42    1
    23    84    83    1
    24    45    42    1
    25    45    46    1
    26    63    62    1
    27    49    51    1
    28    49    48    2
    29    47    46    1
    30    47    48    1
    31    42    41    1
    32    83    82    1
    33    83    86    1
    34    91    89   ar
    35    91    92   ar
    36    89    87   ar
    37    92    90   ar
    38    33    32    2
    39    87    86    1
    40    87    88   ar
    41    62    65    1
    42    62    61    1
    43    90    88   ar
    44    81    80    2
    45    65    66    1
    46    36    38   ar
    47    36    35   ar
    48    34    35    1
    49    34    31    1
    50    32    31    1
    51    38    40   ar
    52    35    37   ar
    53    31    30    1
    54    40    39   ar
    55    37    39   ar
    56    68    66    1
    57    80    79    1
    58    66    67    1
    59    25    24    2
    60    30    24   am
    61    79    78    1
    62    24    23    1
    63    72    71    2
    64    27    28    1
    65    27    29    1
    66    27    26    1
    67    20    19    2
    68    78    71   am
    69    71    70    1
    70    17    16    2
    71     9     8    2
    72    23    26    1
    73    23    22    1
    74    19    21   am
    75    19    18    1
    76    15    16    1
    77    15    18    1
    78    15    14    1
    79    77    75   ar
    80    70    69    1
    81    70    73    1
    82    13    11    1
    83     8    14   am
    84     8     7    1
    85    10     7    1
    86    10    11    1
    87    75    74    1
    88    75    76   ar
    89    12    11    1
    90    74    73    1
    91     7     6    1
    92     4     3    2
    93     3     2    1
    94     2     5    1
    95     2     1    1
