@<TRIPOS>MOLECULE
tmp/5qgfA00.pdb
 104 96 0 0 0
SMALL
GASTEIGER

@<TRIPOS>ATOM
      1  N         42.9580  -37.6450  -25.0930 N.3   105  ARG105     -0.1245
      2  CA        44.3230  -37.1790  -25.3060 C.3   105  ARG105      0.1563
      3  C         44.8660  -36.4730  -24.0700 C.2   105  ARG105      0.2260
      4  O         46.0440  -36.6550  -23.7360 O.2   105  ARG105     -0.2867
      5  CB        44.3830  -36.2530  -26.5240 C.3   105  ARG105      0.0307
      6  CG        45.7660  -35.6880  -26.8390 C.3   105  ARG105      0.0489
      7  CD        46.6140  -36.6490  -27.6610 C.3   105  ARG105      0.2205
      8  NE        48.0000  -36.1890  -27.7580 N.pl3 105  ARG105     -0.0865
      9  CZ        48.3900  -35.1010  -28.4150 C.cat 105  ARG105      0.5346
     10  NH1       47.5070  -34.3400  -29.0490 N.pl3 105  ARG105      0.1354
     11  NH2       49.6740  -34.7660  -28.4350 N.pl3 105  ARG105      0.1354
     12  N         58.3440  -36.2060  -20.1440 N.3   146  SER146     -0.1217
     13  CA        58.9000  -34.8640  -19.9980 C.3   146  SER146      0.1889
     14  C         57.9580  -34.0340  -19.1400 C.2   146  SER146      0.2288
     15  O         56.7840  -34.3870  -18.9570 O.2   146  SER146     -0.2866
     16  CB        59.1160  -34.1840  -21.3550 C.3   146  SER146      0.2089
     17  OG        57.8690  -33.8020  -21.8970 O.3   146  SER146     -0.2183
     18  N         57.3400  -29.6650  -18.0850 N.3   148  ASP148     -0.1239
     19  CA        57.6550  -28.2490  -18.3040 C.3   148  ASP148      0.1674
     20  C         56.9370  -27.4260  -17.2350 C.2   148  ASP148      0.2266
     21  O         55.7100  -27.2920  -17.2750 O.2   148  ASP148     -0.2867
     22  CB        57.2420  -27.8180  -19.7140 C.3   148  ASP148      0.1410
     23  CG        57.7680  -26.4550  -20.0990 C.2   148  ASP148      0.3668
     24  OD1       58.4410  -25.8210  -19.2700 O.co2 148  ASP148     -0.2456
     25  OD2       57.4960  -26.0110  -21.2350 O.co2 148  ASP148     -0.2456
     26  N         52.9610  -28.5640  -17.5770 N.3   155  VAL155     -0.1231
     27  CA        52.5390  -29.5300  -18.5990 C.3   155  VAL155      0.1692
     28  C         53.4800  -30.7190  -18.5960 C.2   155  VAL155      0.2592
     29  O         54.7010  -30.5500  -18.7070 O.2   155  VAL155     -0.2718
     30  CB        52.5330  -28.9370  -20.0180 C.3   155  VAL155      0.0266
     31  CG1       51.8970  -29.9090  -21.0030 C.3   155  VAL155      0.0020
     32  CG2       51.8630  -27.6890  -20.0380 C.3   155  VAL155      0.0020
     33  N         52.9180  -31.9150  -18.5800 N.am  156  ARG156     -0.1966
     34  CA        53.6680  -33.1610  -18.6220 C.3   156  ARG156      0.1729
     35  C         53.2510  -34.0020  -19.8230 C.2   156  ARG156      0.2616
     36  O         52.0650  -34.0690  -20.1770 O.2   156  ARG156     -0.2715
     37  CB        53.4730  -33.9670  -17.3470 C.3   156  ARG156      0.0348
     38  CG        53.7210  -33.1610  -16.0930 C.3   156  ARG156      0.0492
     39  CD        53.5390  -33.9500  -14.7970 C.3   156  ARG156      0.2205
     40  NE        53.8690  -33.1170  -13.6320 N.pl3 156  ARG156     -0.0865
     41  CZ        52.9970  -32.3970  -12.9370 C.cat 156  ARG156      0.5346
     42  NH1       51.6940  -32.4280  -13.2270 N.pl3 156  ARG156      0.1354
     43  NH2       53.4070  -31.6740  -11.9130 N.pl3 156  ARG156      0.1354
     44  N         54.2330  -34.6230  -20.4650 N.am  157  GLN157     -0.1977
     45  CA        53.9850  -35.6830  -21.4330 C.3   157  GLN157      0.1601
     46  C         54.1230  -37.0310  -20.7460 C.2   157  GLN157      0.2287
     47  O         55.1320  -37.2880  -20.0660 O.2   157  GLN157     -0.2864
     48  CB        54.9570  -35.6030  -22.6160 C.3   157  GLN157      0.0394
     49  CG        54.8750  -34.3610  -23.4530 C.3   157  GLN157      0.0908
     50  CD        55.8590  -34.4330  -24.6170 C.2   157  GLN157      0.2608
     51  OE1       57.0660  -34.5930  -24.4100 O.2   157  GLN157     -0.2717
     52  NE2       55.3470  -34.3460  -25.8370 N.am  157  GLN157     -0.0878
     53  N         50.3260  -41.4750  -26.2050 N.3   170  GLU170     -0.1245
     54  CA        50.8070  -40.2670  -25.5510 C.3   170  GLU170      0.1567
     55  C         49.6410  -39.4830  -24.9430 C.2   170  GLU170      0.2260
     56  O         48.7050  -39.1100  -25.6530 O.2   170  GLU170     -0.2867
     57  CB        51.5420  -39.3990  -26.5650 C.3   170  GLU170      0.0388
     58  CG        52.1350  -38.1210  -25.9990 C.3   170  GLU170      0.1160
     59  CD        52.7380  -37.2450  -27.0840 C.2   170  GLU170      0.3649
     60  OE1       53.2460  -37.7940  -28.0880 O.co2 170  GLU170     -0.2457
     61  OE2       52.6800  -36.0110  -26.9460 O.co2 170  GLU170     -0.2457
     62  N         48.7030  -36.0040  -22.5910 N.3   172  LEU172     -0.1245
     63  CA        49.1410  -34.7090  -22.0840 C.3   172  LEU172      0.1561
     64  C         48.4500  -34.3930  -20.7460 C.2   172  LEU172      0.2260
     65  O         47.2110  -34.4610  -20.6420 O.2   172  LEU172     -0.2867
     66  CB        48.8600  -33.6010  -23.1030 C.3   172  LEU172      0.0270
     67  CG        49.5060  -33.7900  -24.4810 C.3   172  LEU172      0.0019
     68  CD1       49.1230  -32.6010  -25.3670 C.3   172  LEU172      0.0001
     69  CD2       51.0210  -33.9430  -24.3790 C.3   172  LEU172      0.0001
     70  N         47.7900  -31.4460  -18.0970 N.3   174  PHE174     -0.1241
     71  CA        47.7660  -30.0000  -17.9300 C.3   174  PHE174      0.1605
     72  C         47.3510  -29.6990  -16.4930 C.2   174  PHE174      0.2264
     73  O         46.1950  -29.9160  -16.1160 O.2   174  PHE174     -0.2867
     74  CB        46.8160  -29.3290  -18.9460 C.3   174  PHE174      0.0534
     75  CG        47.3850  -29.2370  -20.3520 C.ar  174  PHE174     -0.0203
     76  CD1       48.1690  -28.1580  -20.7150 C.ar  174  PHE174     -0.0042
     77  CD2       47.1600  -30.2320  -21.2760 C.ar  174  PHE174     -0.0042
     78  CE1       48.7130  -28.0810  -22.0250 C.ar  174  PHE174     -0.0003
     79  CE2       47.6990  -30.1380  -22.5730 C.ar  174  PHE174     -0.0003
     80  CZ        48.4710  -29.0840  -22.9040 C.ar  174  PHE174     -0.0000
     81  N         46.1180  -22.7990  -23.6260 N.3   197  LYS197     -0.1245
     82  CA        47.1680  -23.8090  -23.8090 C.3   197  LYS197      0.1561
     83  C         46.5790  -25.2100  -23.9700 C.2   197  LYS197      0.2260
     84  O         47.0590  -26.0070  -24.7810 O.2   197  LYS197     -0.2867
     85  CB        48.1640  -23.7930  -22.6390 C.3   197  LYS197      0.0271
     86  CG        48.9340  -22.4990  -22.4950 C.3   197  LYS197      0.0035
     87  CD        49.8780  -22.2410  -23.6800 C.3   197  LYS197      0.0206
     88  CE        50.7540  -21.0180  -23.4230 C.3   197  LYS197      0.1093
     89  NZ        51.5930  -20.6480  -24.5930 N.3   197  LYS197     -0.1314
     90  N         45.1980  -25.3030  -27.5730 N.3   200  GLU200     -0.1231
     91  CA        46.2350  -25.3570  -28.6100 C.3   200  GLU200      0.1699
     92  C         46.8320  -26.7480  -28.7530 C.2   200  GLU200      0.2592
     93  O         47.3380  -27.0990  -29.8260 O.2   200  GLU200     -0.2718
     94  CB        47.3300  -24.3360  -28.2920 C.3   200  GLU200      0.0402
     95  CG        46.9040  -22.9050  -28.4860 C.3   200  GLU200      0.1161
     96  CD        47.9820  -21.9170  -28.0840 C.2   200  GLU200      0.3649
     97  OE1       49.1030  -22.3660  -27.7330 O.co2 200  GLU200     -0.2457
     98  OE2       47.6930  -20.7080  -28.1240 O.co2 200  GLU200     -0.2457
     99  N         46.8050  -27.5690  -27.6960 N.am  201  SER201     -0.1952
    100  CA        47.3490  -28.9230  -27.7410 C.3   201  SER201      0.1924
    101  C         46.5360  -29.9380  -28.5490 C.2   201  SER201      0.2314
    102  O         47.0480  -31.0430  -28.8010 O.2   201  SER201     -0.2863
    103  CB        47.4730  -29.4560  -26.2960 C.3   201  SER201      0.2116
    104  OG        46.2020  -29.8800  -25.7820 O.3   201  SER201     -0.2180
@<TRIPOS>BOND
     1    93    92    2
     2    10     9    1
     3   102   101    2
     4    92    91    1
     5    92    99   am
     6    91    94    1
     7    91    90    1
     8   101   100    1
     9    95    94    1
    10    95    96    1
    11    11     9    1
    12     9     8    2
    13    98    96   ar
    14    60    59   ar
    15    96    97   ar
    16     8     7    1
    17   100    99    1
    18   100   103    1
    19     7     6    1
    20    59    61   ar
    21    59    58    1
    22     6     5    1
    23    57    58    1
    24    57    54    1
    25     5     2    1
    26   103   104    1
    27    53    54    1
    28    52    50   am
    29    56    55    2
    30    54    55    1
    31    68    67    1
    32     2     1    1
    33     2     3    1
    34    84    83    2
    35    50    51    2
    36    50    49    1
    37    89    88    1
    38    67    69    1
    39    67    66    1
    40     3     4    2
    41    83    82    1
    42    82    81    1
    43    82    85    1
    44    87    88    1
    45    87    86    1
    46    49    48    1
    47    66    63    1
    48    80    79   ar
    49    80    78   ar
    50    85    86    1
    51    48    45    1
    52    62    63    1
    53    79    77   ar
    54    63    64    1
    55    78    76   ar
    56    17    16    1
    57    45    46    1
    58    45    44    1
    59    16    13    1
    60    77    75   ar
    61    25    23   ar
    62    31    30    1
    63    64    65    2
    64    46    47    2
    65    76    75   ar
    66    44    35   am
    67    75    74    1
    68    36    35    2
    69    12    13    1
    70    23    22    1
    71    23    24   ar
    72    32    30    1
    73    30    27    1
    74    13    14    1
    75    35    34    1
    76    22    19    1
    77    14    15    2
    78    74    71    1
    79    29    28    2
    80    34    33    1
    81    34    37    1
    82    27    28    1
    83    27    26    1
    84    28    33   am
    85    19    18    1
    86    19    20    1
    87    70    71    1
    88    71    72    1
    89    37    38    1
    90    21    20    2
    91    72    73    2
    92    38    39    1
    93    39    40    1
    94    40    41    2
    95    42    41    1
    96    41    43    1
