@<TRIPOS>MOLECULE
tmp/5qgfA01.pdb
 87 81 0 0 0
SMALL
GASTEIGER

@<TRIPOS>ATOM
      1  N         43.1710  -13.8660  -15.7730 N.3   189  ALA189     -0.1245
      2  CA        44.1290  -13.8840  -16.8730 C.3   189  ALA189      0.1562
      3  C         44.9110  -15.1920  -16.9350 C.2   189  ALA189      0.2260
      4  O         45.0540  -15.7800  -18.0070 O.2   189  ALA189     -0.2867
      5  CB        45.0720  -12.6800  -16.7640 C.3   189  ALA189      0.0290
      6  N         42.6100  -18.1710  -18.0360 N.3   192  LEU192     -0.1231
      7  CA        42.3240  -18.0980  -19.4770 C.3   192  LEU192      0.1693
      8  C         43.5370  -18.4960  -20.3040 C.2   192  LEU192      0.2592
      9  O         43.4110  -19.2440  -21.2700 O.2   192  LEU192     -0.2718
     10  CB        41.8740  -16.6860  -19.8710 C.3   192  LEU192      0.0284
     11  CG        40.4660  -16.2770  -19.4680 C.3   192  LEU192      0.0019
     12  CD1       40.3220  -14.7670  -19.5860 C.3   192  LEU192      0.0001
     13  CD2       39.4310  -16.9960  -20.3220 C.3   192  LEU192      0.0001
     14  N         44.7260  -18.0080  -19.9410 N.am  193  ASN193     -0.1974
     15  CA        45.9440  -18.4410  -20.6160 C.3   193  ASN193      0.1688
     16  C         46.0830  -19.9630  -20.5830 C.2   193  ASN193      0.2292
     17  O         46.4250  -20.5920  -21.5900 O.2   193  ASN193     -0.2864
     18  CB        47.1550  -17.7670  -19.9630 C.3   193  ASN193      0.1181
     19  CG        48.4510  -18.0220  -20.7090 C.2   193  ASN193      0.2629
     20  OD1       48.5940  -17.6430  -21.8720 O.2   193  ASN193     -0.2716
     21  ND2       49.4160  -18.6300  -20.0310 N.am  193  ASN193     -0.0877
     22  N         43.6300  -21.6700  -22.9880 N.3   196  PHE196     -0.1241
     23  CA        44.1240  -21.5550  -24.3570 C.3   196  PHE196      0.1605
     24  C         45.2610  -22.5420  -24.6250 C.2   196  PHE196      0.2264
     25  O         45.3580  -23.1030  -25.7180 O.2   196  PHE196     -0.2867
     26  CB        44.5650  -20.1130  -24.6360 C.3   196  PHE196      0.0534
     27  CG        43.4560  -19.0960  -24.5280 C.ar  196  PHE196     -0.0203
     28  CD1       42.1180  -19.4720  -24.6820 C.ar  196  PHE196     -0.0042
     29  CD2       43.7500  -17.7590  -24.2760 C.ar  196  PHE196     -0.0042
     30  CE1       41.1020  -18.5430  -24.5750 C.ar  196  PHE196     -0.0003
     31  CE2       42.7390  -16.8140  -24.1720 C.ar  196  PHE196     -0.0003
     32  CZ        41.4120  -17.2020  -24.3230 C.ar  196  PHE196     -0.0000
     33  N         45.1980  -25.3030  -27.5730 N.3   200  GLU200     -0.1245
     34  CA        46.2350  -25.3570  -28.6100 C.3   200  GLU200      0.1567
     35  C         46.8320  -26.7480  -28.7530 C.2   200  GLU200      0.2260
     36  O         47.3380  -27.0990  -29.8260 O.2   200  GLU200     -0.2867
     37  CB        47.3300  -24.3360  -28.2920 C.3   200  GLU200      0.0388
     38  CG        46.9040  -22.9050  -28.4860 C.3   200  GLU200      0.1160
     39  CD        47.9820  -21.9170  -28.0840 C.2   200  GLU200      0.3649
     40  OE1       49.1030  -22.3660  -27.7330 O.co2 200  GLU200     -0.2457
     41  OE2       47.6930  -20.7080  -28.1240 O.co2 200  GLU200     -0.2457
     42  N         32.6830  -19.2710  -24.4920 N.3   232  LEU232     -0.1245
     43  CA        33.5370  -18.6020  -25.4800 C.3   232  LEU232      0.1561
     44  C         33.3650  -19.2010  -26.8770 C.2   232  LEU232      0.2260
     45  O         33.3560  -18.4570  -27.8730 O.2   232  LEU232     -0.2867
     46  CB        34.9930  -18.6570  -25.0200 C.3   232  LEU232      0.0270
     47  CG        35.2960  -17.7750  -23.8160 C.3   232  LEU232      0.0019
     48  CD1       36.6830  -18.1210  -23.2440 C.3   232  LEU232      0.0001
     49  CD2       35.1720  -16.2750  -24.1530 C.3   232  LEU232      0.0001
     50  N         36.3240  -11.2660  -20.0460 N.3   276  GLU276     -0.1231
     51  CA        37.6690  -10.8480  -20.4320 C.3   276  GLU276      0.1699
     52  C         38.1630  -11.6490  -21.6230 C.2   276  GLU276      0.2592
     53  O         38.8740  -11.1320  -22.5020 O.2   276  GLU276     -0.2718
     54  CB        38.6210  -11.0310  -19.2580 C.3   276  GLU276      0.0402
     55  CG        40.0060  -10.4960  -19.5250 C.3   276  GLU276      0.1161
     56  CD        39.9960   -9.0210  -19.8560 C.2   276  GLU276      0.3649
     57  OE1       39.0540   -8.3200  -19.4310 O.co2 276  GLU276     -0.2457
     58  OE2       40.9250   -8.5650  -20.5550 O.co2 276  GLU276     -0.2457
     59  N         37.8190  -12.9170  -21.6340 N.am  277  GLY277     -0.1957
     60  CA        38.2150  -13.7730  -22.7220 C.3   277  GLY277      0.1869
     61  C         37.6350  -13.3200  -24.0440 C.2   277  GLY277      0.2309
     62  O         38.2980  -13.3960  -25.0750 O.2   277  GLY277     -0.2863
     63  N         39.8830  -10.8300  -25.8650 N.3   280  PHE280     -0.1227
     64  CA        41.1540  -11.2980  -26.3660 C.3   280  PHE280      0.1736
     65  C         40.9820  -12.1100  -27.6260 C.2   280  PHE280      0.2595
     66  O         41.8870  -12.1420  -28.4620 O.2   280  PHE280     -0.2718
     67  CB        41.8280  -12.1520  -25.3090 C.3   280  PHE280      0.0547
     68  CG        43.2790  -12.3140  -25.5150 C.ar  280  PHE280     -0.0202
     69  CD1       44.1460  -11.2720  -25.2460 C.ar  280  PHE280     -0.0042
     70  CD2       43.7860  -13.5140  -25.9650 C.ar  280  PHE280     -0.0042
     71  CE1       45.4960  -11.4300  -25.4260 C.ar  280  PHE280     -0.0003
     72  CE2       45.1300  -13.6780  -26.1460 C.ar  280  PHE280     -0.0003
     73  CZ        45.9900  -12.6340  -25.8790 C.ar  280  PHE280     -0.0000
     74  N         39.8360  -12.7790  -27.7620 N.am  281  ILE281     -0.1980
     75  CA        39.6020  -13.6370  -28.9150 C.3   281  ILE281      0.1595
     76  C         39.6240  -12.8150  -30.1960 C.2   281  ILE281      0.2287
     77  O         40.0490  -13.3020  -31.2520 O.2   281  ILE281     -0.2864
     78  CB        38.2720  -14.3950  -28.7400 C.3   281  ILE281      0.0276
     79  CG1       38.2350  -15.6380  -29.6290 C.3   281  ILE281      0.0022
     80  CG2       37.0840  -13.4930  -29.0590 C.3   281  ILE281      0.0022
     81  CD1       38.0810  -16.9280  -28.8490 C.3   281  ILE281      0.0001
     82  N         40.6500   -5.7290  -24.7750 N.3   285  SER285     -0.1217
     83  CA        41.0360   -5.9340  -23.4000 C.3   285  SER285      0.1889
     84  C         41.8730   -4.7130  -22.9930 C.2   285  SER285      0.2288
     85  O         42.6830   -4.1960  -23.7560 O.2   285  SER285     -0.2866
     86  CB        41.8200   -7.2300  -23.2730 C.3   285  SER285      0.2089
     87  OG        41.8480   -7.7470  -21.9660 O.3   285  SER285     -0.2183
@<TRIPOS>BOND
     1    77    76    2
     2    76    75    1
     3    36    35    2
     4    79    81    1
     5    79    78    1
     6    80    78    1
     7    75    78    1
     8    75    74    1
     9    35    34    1
    10    34    37    1
    11    34    33    1
    12    38    37    1
    13    38    39    1
    14    66    65    2
    15    41    39   ar
    16    39    40   ar
    17    45    44    2
    18    74    65   am
    19    65    64    1
    20    44    43    1
    21    64    63    1
    22    64    67    1
    23    72    70   ar
    24    72    73   ar
    25    70    68   ar
    26    73    71   ar
    27    25    24    2
    28    68    67    1
    29    68    69   ar
    30    43    46    1
    31    43    42    1
    32    71    69   ar
    33    62    61    2
    34    46    47    1
    35    82    83    1
    36    28    30   ar
    37    28    27   ar
    38    26    27    1
    39    26    23    1
    40    24    23    1
    41    30    32   ar
    42    27    29   ar
    43    23    22    1
    44    32    31   ar
    45    29    31   ar
    46    49    47    1
    47    61    60    1
    48    47    48    1
    49    85    84    2
    50    83    86    1
    51    83    84    1
    52    86    87    1
    53    60    59    1
    54    53    52    2
    55    20    19    2
    56    59    52   am
    57    52    51    1
    58    17    16    2
    59     9     8    2
    60    19    21   am
    61    19    18    1
    62    15    16    1
    63    15    18    1
    64    15    14    1
    65    58    56   ar
    66    51    50    1
    67    51    54    1
    68    13    11    1
    69     8    14   am
    70     8     7    1
    71    10     7    1
    72    10    11    1
    73    56    55    1
    74    56    57   ar
    75    12    11    1
    76    55    54    1
    77     7     6    1
    78     4     3    2
    79     3     2    1
    80     2     5    1
    81     2     1    1
