@<TRIPOS>MOLECULE
tmp/5qhkB00.pdb
 88 83 0 0 0
SMALL
GASTEIGER

@<TRIPOS>ATOM
      1  N        -17.4940  -51.9390   74.2710 N.3    32  VAL32      -0.1245
      2  CA       -16.3170  -51.2240   73.7440 C.3    32  VAL32       0.1561
      3  C        -15.8390  -50.1180   74.6890 C.2    32  VAL32       0.2260
      4  O        -16.6390  -49.4220   75.3100 O.2    32  VAL32      -0.2867
      5  CB       -16.5700  -50.5690   72.3450 C.3    32  VAL32       0.0252
      6  CG1      -15.2400  -50.1190   71.7230 C.3    32  VAL32       0.0019
      7  CG2      -17.3090  -51.5100   71.3900 C.3    32  VAL32       0.0019
      8  N        -13.0830  -46.8410   74.2640 N.3    34  ALA34      -0.1245
      9  CA       -12.2260  -46.0610   73.3580 C.3    34  ALA34       0.1562
     10  C        -11.5450  -44.9270   74.1800 C.2    34  ALA34       0.2260
     11  O        -12.2380  -44.1440   74.8140 O.2    34  ALA34      -0.2867
     12  CB       -13.0390  -45.4630   72.2290 C.3    34  ALA34       0.0290
     13  N         -9.7000  -49.9820   72.5890 N.3    60  TYR60      -0.1241
     14  CA        -8.8910  -49.2350   71.6120 C.3    60  TYR60       0.1605
     15  C         -8.2750  -48.0310   72.3490 C.2    60  TYR60       0.2264
     16  O         -9.0220  -47.1550   72.7970 O.2    60  TYR60      -0.2867
     17  CB        -9.7320  -48.7060   70.4430 C.3    60  TYR60       0.0534
     18  CG       -10.4540  -49.8120   69.6780 C.ar   60  TYR60      -0.0201
     19  CD1       -9.7690  -50.6120   68.7720 C.ar   60  TYR60      -0.0009
     20  CD2      -11.7750  -50.1140   69.9890 C.ar   60  TYR60      -0.0009
     21  CE1      -10.4500  -51.6460   68.1120 C.ar   60  TYR60       0.0417
     22  CE2      -12.4660  -51.1680   69.3710 C.ar   60  TYR60       0.0417
     23  CZ       -11.7710  -51.9220   68.4010 C.ar   60  TYR60       0.1957
     24  OH       -12.3900  -52.9750   67.7500 O.3    60  TYR60      -0.2866
     25  N        -14.4520  -42.8780   76.1610 N.3   116  LEU116     -0.1245
     26  CA       -15.6960  -43.1230   75.5110 C.3   116  LEU116      0.1561
     27  C        -16.0840  -44.5960   75.7240 C.2   116  LEU116      0.2260
     28  O        -15.3510  -45.4770   75.2550 O.2   116  LEU116     -0.2867
     29  CB       -15.5370  -42.8130   74.0260 C.3   116  LEU116      0.0270
     30  CG       -16.6820  -43.1070   73.0860 C.3   116  LEU116      0.0019
     31  CD1      -18.0080  -42.5300   73.3990 C.3   116  LEU116      0.0001
     32  CD2      -16.2780  -42.6660   71.6880 C.3   116  LEU116      0.0001
     33  N        -19.0060  -47.6930   75.3600 N.3   118  ASP118     -0.1225
     34  CA       -20.2580  -48.2440   74.7510 C.3   118  ASP118      0.1805
     35  C        -21.0230  -47.3050   73.8450 C.2   118  ASP118      0.2598
     36  O        -22.2500  -47.4290   73.7600 O.2   118  ASP118     -0.2718
     37  CB       -21.1850  -48.7970   75.8280 C.3   118  ASP118      0.1424
     38  CG       -20.6100  -50.0930   76.5080 C.2   118  ASP118      0.3668
     39  OD1      -19.7370  -50.6960   75.9350 O.co2 118  ASP118     -0.2456
     40  OD2      -21.0790  -50.5450   77.5710 O.co2 118  ASP118     -0.2456
     41  N        -20.3130  -46.3770   73.1980 N.am  119  CYS119     -0.1970
     42  CA       -20.9090  -45.3290   72.3850 C.3   119  CYS119      0.1712
     43  C        -22.0460  -44.5770   73.0810 C.2   119  CYS119      0.2296
     44  O        -22.9310  -44.0590   72.4160 O.2   119  CYS119     -0.2864
     45  CB       -21.3810  -45.9080   71.0410 C.3   119  CYS119      0.0983
     46  SG       -20.0940  -46.7530   70.1210 S.3   119  CYS119     -0.0798
     47  N        -17.5200  -39.9740   69.1580 N.3   153  ASP153     -0.1239
     48  CA       -17.4310  -41.2180   68.3900 C.3   153  ASP153      0.1674
     49  C        -16.7740  -40.9170   67.0460 C.2   153  ASP153      0.2266
     50  O        -15.7960  -41.5610   66.6890 O.2   153  ASP153     -0.2867
     51  CB       -18.8590  -41.8170   68.2300 C.3   153  ASP153      0.1410
     52  CG       -18.8920  -43.2090   67.5880 C.2   153  ASP153      0.3668
     53  OD1      -19.8460  -43.9600   67.9150 O.co2 153  ASP153     -0.2456
     54  OD2      -18.0300  -43.5600   66.7340 O.co2 153  ASP153     -0.2456
     55  N        -13.1490  -39.9240   67.4940 N.3   156  PHE156     -0.1227
     56  CA       -12.3370  -41.1150   67.8050 C.3   156  PHE156      0.1736
     57  C        -11.9900  -41.8680   66.5020 C.2   156  PHE156      0.2595
     58  O        -10.8320  -42.2490   66.2820 O.2   156  PHE156     -0.2718
     59  CB       -12.9500  -42.1070   68.8230 C.3   156  PHE156      0.0547
     60  CG       -11.9860  -43.1830   69.2410 C.ar  156  PHE156     -0.0202
     61  CD1      -11.0490  -42.9360   70.2440 C.ar  156  PHE156     -0.0042
     62  CD2      -11.9690  -44.4050   68.6460 C.ar  156  PHE156     -0.0042
     63  CE1      -10.1010  -43.8510   70.6180 C.ar  156  PHE156     -0.0003
     64  CE2      -11.0190  -45.3430   68.9870 C.ar  156  PHE156     -0.0003
     65  CZ       -10.0760  -45.0850   69.9680 C.ar  156  PHE156     -0.0000
     66  N        -12.9870  -42.0530   65.6410 N.am  157  ARG157     -0.1980
     67  CA       -12.7670  -42.7860   64.3900 C.3   157  ARG157      0.1597
     68  C        -11.7640  -42.0600   63.4650 C.2   157  ARG157      0.2287
     69  O        -10.9250  -42.7230   62.8090 O.2   157  ARG157     -0.2864
     70  CB       -14.1100  -43.0970   63.6930 C.3   157  ARG157      0.0334
     71  CG       -15.0510  -44.0370   64.4810 C.3   157  ARG157      0.0492
     72  CD       -16.4470  -44.1100   63.8290 C.3   157  ARG157      0.2205
     73  NE       -17.4260  -45.0170   64.4630 N.pl3 157  ARG157     -0.0865
     74  CZ       -17.4880  -46.3490   64.2920 C.cat 157  ARG157      0.5346
     75  NH1      -16.6120  -46.9880   63.5160 N.pl3 157  ARG157      0.1354
     76  NH2      -18.4240  -47.0600   64.9130 N.pl3 157  ARG157      0.1354
     77  N         -8.3080  -42.5490   64.9400 N.3   160  TYR160     -0.1241
     78  CA        -7.9100  -43.9350   64.8150 C.3   160  TYR160      0.1605
     79  C         -7.3800  -44.1580   63.4170 C.2   160  TYR160      0.2264
     80  O         -6.3580  -44.8350   63.2260 O.2   160  TYR160     -0.2867
     81  CB        -9.0670  -44.9090   65.1450 C.3   160  TYR160      0.0534
     82  CG        -8.5650  -46.3290   65.5070 C.ar  160  TYR160     -0.0201
     83  CD1       -8.1480  -46.6510   66.8180 C.ar  160  TYR160     -0.0009
     84  CD2       -8.4160  -47.3130   64.5290 C.ar  160  TYR160     -0.0009
     85  CE1       -7.6460  -47.9200   67.1400 C.ar  160  TYR160      0.0417
     86  CE2       -7.9540  -48.5780   64.8830 C.ar  160  TYR160      0.0417
     87  CZ        -7.5760  -48.8660   66.1810 C.ar  160  TYR160      0.1957
     88  OH        -7.0320  -50.1310   66.5060 O.3   160  TYR160     -0.2866
@<TRIPOS>BOND
     1    69    68    2
     2    80    79    2
     3    79    78    1
     4    68    67    1
     5    75    74    1
     6    70    67    1
     7    70    71    1
     8    72    73    1
     9    72    71    1
    10    74    73    2
    11    74    76    1
    12    67    66    1
    13    84    86   ar
    14    84    82   ar
    15    78    77    1
    16    78    81    1
    17    86    87   ar
    18    81    82    1
    19    82    83   ar
    20    66    57   am
    21    87    88    1
    22    87    85   ar
    23    58    57    2
    24    57    56    1
    25    50    49    2
    26    54    52   ar
    27    83    85   ar
    28    49    48    1
    29    55    56    1
    30    52    53   ar
    31    52    51    1
    32    24    23    1
    33    56    59    1
    34    21    23   ar
    35    21    19   ar
    36    51    48    1
    37    48    47    1
    38    23    22   ar
    39    62    64   ar
    40    62    60   ar
    41    19    18   ar
    42    59    60    1
    43    64    65   ar
    44    60    61   ar
    45    22    20   ar
    46    18    20   ar
    47    18    17    1
    48    65    63   ar
    49    46    45    1
    50    61    63   ar
    51    17    14    1
    52    45    42    1
    53     7     5    1
    54    14    15    1
    55    14    13    1
    56    32    30    1
    57     6     5    1
    58    12     9    1
    59     5     2    1
    60    15    16    2
    61    42    43    1
    62    42    41    1
    63    44    43    2
    64    30    31    1
    65    30    29    1
    66    41    35   am
    67     9    10    1
    68     9     8    1
    69     2     1    1
    70     2     3    1
    71    36    35    2
    72    35    34    1
    73    29    26    1
    74    10    11    2
    75     3     4    2
    76    34    33    1
    77    34    37    1
    78    28    27    2
    79    26    27    1
    80    26    25    1
    81    37    38    1
    82    39    38   ar
    83    38    40   ar
