@<TRIPOS>MOLECULE
tmp/5qhpA00.pdb
 88 83 0 0 0
SMALL
GASTEIGER

@<TRIPOS>ATOM
      1  N         19.1220   39.4600   62.3760 N.3    33  VAL33      -0.1245
      2  CA        17.8280   39.3460   63.0140 C.3    33  VAL33       0.1561
      3  C         16.6760   39.7210   62.1170 C.2    33  VAL33       0.2260
      4  O         16.7560   40.6740   61.3540 O.2    33  VAL33      -0.2867
      5  CB        17.6830   40.2890   64.2290 C.3    33  VAL33       0.0252
      6  CG1       16.8540   39.6250   65.2810 C.3    33  VAL33       0.0019
      7  CG2       19.0120   40.6740   64.8280 C.3    33  VAL33       0.0019
      8  N         12.5270   40.2680   62.6840 N.3    35  ALA35      -0.1245
      9  CA        11.3710   40.4000   63.5500 C.3    35  ALA35       0.1562
     10  C         10.1720   40.5930   62.6400 C.2    35  ALA35       0.2260
     11  O         10.1490   41.5590   61.8210 O.2    35  ALA35      -0.2867
     12  CB        11.5430   41.6160   64.4780 C.3    35  ALA35       0.0290
     13  N         12.3660   36.1380   64.9440 N.3    61  TYR61      -0.1241
     14  CA        11.2650   36.2670   65.8920 C.3    61  TYR61       0.1605
     15  C          9.9950   36.5560   65.1120 C.2    61  TYR61       0.2264
     16  O          9.9350   37.5610   64.4030 O.2    61  TYR61      -0.2867
     17  CB        11.5330   37.4190   66.8830 C.3    61  TYR61       0.0534
     18  CG        12.8510   37.3080   67.6560 C.ar   61  TYR61      -0.0201
     19  CD1       14.0500   37.6920   67.0840 C.ar   61  TYR61      -0.0009
     20  CD2       12.8760   36.8510   68.9740 C.ar   61  TYR61      -0.0009
     21  CE1       15.2480   37.6180   67.7970 C.ar   61  TYR61       0.0417
     22  CE2       14.0710   36.7690   69.6980 C.ar   61  TYR61       0.0417
     23  CZ        15.2440   37.1450   69.0970 C.ar   61  TYR61       0.1957
     24  OH        16.4150   37.0460   69.7870 O.3    61  TYR61      -0.2866
     25  N         10.8090   43.7060   60.2180 N.3   110  LEU110     -0.1245
     26  CA        11.9640   44.4910   60.6640 C.3   110  LEU110      0.1561
     27  C         13.2020   43.6360   60.5400 C.2   110  LEU110      0.2260
     28  O         13.2160   42.4730   60.9430 O.2   110  LEU110     -0.2867
     29  CB        11.7780   45.0050   62.1300 C.3   110  LEU110      0.0270
     30  CG        13.0060   45.5150   62.9270 C.3   110  LEU110      0.0019
     31  CD1       13.8160   46.5860   62.2140 C.3   110  LEU110      0.0001
     32  CD2       12.6200   46.0050   64.3170 C.3   110  LEU110      0.0001
     33  N         17.3100   43.7310   61.3150 N.3   112  ASP112     -0.1225
     34  CA        18.6190   44.1710   61.8120 C.3   112  ASP112      0.1805
     35  C         18.6310   45.5610   62.4680 C.2   112  ASP112      0.2598
     36  O         19.7010   46.1330   62.6370 O.2   112  ASP112     -0.2718
     37  CB        19.6840   44.0850   60.6640 C.3   112  ASP112      0.1424
     38  CG        20.0560   42.6220   60.2760 C.2   112  ASP112      0.3668
     39  OD1       19.9310   41.7080   61.1150 O.co2 112  ASP112     -0.2456
     40  OD2       20.5060   42.3820   59.1380 O.co2 112  ASP112     -0.2456
     41  N         17.4580   46.1060   62.8120 N.am  113  CYS113     -0.1970
     42  CA        17.2960   47.4750   63.3300 C.3   113  CYS113      0.1712
     43  C         17.7930   48.4490   62.2700 C.2   113  CYS113      0.2296
     44  O         18.4390   49.4470   62.5690 O.2   113  CYS113     -0.2864
     45  CB        17.9590   47.6770   64.7020 C.3   113  CYS113      0.0983
     46  SG        17.0990   46.7700   66.0100 S.3   113  CYS113     -0.0798
     47  N         11.3380   48.7530   66.6300 N.3   147  ASP147     -0.1239
     48  CA        11.9370   47.8940   67.6500 C.3   147  ASP147      0.1674
     49  C         11.1010   47.9680   68.9260 C.2   147  ASP147      0.2266
     50  O         10.5420   46.9450   69.3630 O.2   147  ASP147     -0.2867
     51  CB        13.3970   48.2930   67.9480 C.3   147  ASP147      0.1410
     52  CG        13.9130   47.6950   69.2650 C.2   147  ASP147      0.3668
     53  OD1       14.3120   46.5380   69.2690 O.co2 147  ASP147     -0.2456
     54  OD2       13.9110   48.3850   70.3020 O.co2 147  ASP147     -0.2456
     55  N          7.9350   46.2280   68.5160 N.3   150  PHE150     -0.1227
     56  CA         8.0830   44.7920   68.4210 C.3   150  PHE150      0.1736
     57  C          8.3180   44.2070   69.8100 C.2   150  PHE150      0.2595
     58  O          7.6530   43.2550   70.1910 O.2   150  PHE150     -0.2718
     59  CB         9.2240   44.3900   67.5010 C.3   150  PHE150      0.0547
     60  CG         9.2770   42.9200   67.3080 C.ar  150  PHE150     -0.0202
     61  CD1        8.3470   42.2950   66.5080 C.ar  150  PHE150     -0.0042
     62  CD2       10.1880   42.1270   68.0400 C.ar  150  PHE150     -0.0042
     63  CE1        8.3580   40.8710   66.3450 C.ar  150  PHE150     -0.0003
     64  CE2       10.1530   40.7440   67.9360 C.ar  150  PHE150     -0.0003
     65  CZ         9.2470   40.1120   67.0900 C.ar  150  PHE150     -0.0000
     66  N          9.2490   44.8050   70.5600 N.am  151  ARG151     -0.1980
     67  CA         9.5290   44.4040   71.9570 C.3   151  ARG151      0.1597
     68  C          8.2840   44.4610   72.8190 C.2   151  ARG151      0.2287
     69  O          7.9930   43.5500   73.5860 O.2   151  ARG151     -0.2864
     70  CB        10.6140   45.3060   72.5710 C.3   151  ARG151      0.0334
     71  CG        11.9960   45.0750   71.9880 C.3   151  ARG151      0.0492
     72  CD        13.0720   45.5980   72.9200 C.3   151  ARG151      0.2205
     73  NE        14.4200   45.3550   72.4040 N.pl3 151  ARG151     -0.0865
     74  CZ        15.5160   45.1120   73.1450 C.cat 151  ARG151      0.5346
     75  NH1       16.6800   44.9260   72.5400 N.pl3 151  ARG151      0.1354
     76  NH2       15.4800   45.0310   74.4750 N.pl3 151  ARG151      0.1354
     77  N          6.0780   41.5870   71.7160 N.3   154  TYR154     -0.1241
     78  CA         6.6920   40.3740   72.1290 C.3   154  TYR154      0.1605
     79  C          6.4360   40.1290   73.6160 C.2   154  TYR154      0.2264
     80  O          6.1150   38.9880   74.0520 O.2   154  TYR154     -0.2867
     81  CB         8.2030   40.4180   71.8540 C.3   154  TYR154      0.0534
     82  CG         8.7900   39.0390   71.8250 C.ar  154  TYR154     -0.0201
     83  CD1        9.3050   38.3970   72.9840 C.ar  154  TYR154     -0.0009
     84  CD2        8.8020   38.3380   70.6270 C.ar  154  TYR154     -0.0009
     85  CE1        9.8150   37.0890   72.9080 C.ar  154  TYR154      0.0417
     86  CE2        9.3030   37.0700   70.5480 C.ar  154  TYR154      0.0417
     87  CZ         9.8080   36.4460   71.6670 C.ar  154  TYR154      0.1957
     88  OH        10.2810   35.1780   71.4100 O.3   154  TYR154     -0.2866
@<TRIPOS>BOND
     1    40    38   ar
     2    25    26    1
     3    38    37    1
     4    38    39   ar
     5    27    26    1
     6    27    28    2
     7    26    29    1
     8    37    34    1
     9    33    34    1
    10     4     3    2
    11    34    35    1
    12    11    10    2
    13     3     2    1
    14    29    30    1
    15    31    30    1
    16    43    44    2
    17    43    42    1
    18     1     2    1
    19    35    36    2
    20    35    41   am
    21    10     9    1
    22     8     9    1
    23    41    42    1
    24    30    32    1
    25     2     5    1
    26    42    45    1
    27     9    12    1
    28     5     7    1
    29     5     6    1
    30    16    15    2
    31    45    46    1
    32    13    14    1
    33    15    14    1
    34    14    17    1
    35    63    61   ar
    36    63    65   ar
    37    61    60   ar
    38    47    48    1
    39    17    18    1
    40    19    18   ar
    41    19    21   ar
    42    65    64   ar
    43    60    59    1
    44    60    62   ar
    45    59    56    1
    46    48    51    1
    47    48    49    1
    48    18    20   ar
    49    21    23   ar
    50    64    62   ar
    51    51    52    1
    52    56    55    1
    53    56    57    1
    54    49    50    2
    55    20    22   ar
    56    23    22   ar
    57    23    24    1
    58    52    53   ar
    59    52    54   ar
    60    57    58    2
    61    57    66   am
    62    86    84   ar
    63    86    87   ar
    64    66    67    1
    65    84    82   ar
    66    88    87    1
    67    87    85   ar
    68    77    78    1
    69    82    81    1
    70    82    83   ar
    71    81    78    1
    72    67    70    1
    73    67    68    1
    74    71    70    1
    75    71    72    1
    76    78    79    1
    77    73    72    1
    78    73    74    2
    79    75    74    1
    80    68    69    2
    81    85    83   ar
    82    74    76    1
    83    79    80    2
