@<TRIPOS>MOLECULE
tmp/5qibA01.pdb
 151 146 0 0 0
SMALL
GASTEIGER

@<TRIPOS>ATOM
      1  N          4.6740   25.5090   31.3650 N.3    23  TYR23      -0.1241
      2  CA         4.7450   26.4820   30.2810 C.3    23  TYR23       0.1605
      3  C          5.7260   25.9510   29.2160 C.2    23  TYR23       0.2264
      4  O          5.3840   25.8700   28.0360 O.2    23  TYR23      -0.2867
      5  CB         5.1340   27.8970   30.7680 C.3    23  TYR23       0.0534
      6  CG         5.5530   28.7460   29.5950 C.ar   23  TYR23      -0.0201
      7  CD1        4.6240   29.1700   28.6520 C.ar   23  TYR23      -0.0009
      8  CD2        6.9030   29.0190   29.3490 C.ar   23  TYR23      -0.0009
      9  CE1        5.0180   29.8840   27.5210 C.ar   23  TYR23       0.0417
     10  CE2        7.3070   29.7330   28.2240 C.ar   23  TYR23       0.0417
     11  CZ         6.3640   30.1760   27.3170 C.ar   23  TYR23       0.1957
     12  OH         6.7600   30.8540   26.1840 O.3    23  TYR23      -0.2866
     13  N         10.9160   31.6980   24.2880 N.3    78  ALA78      -0.1231
     14  CA        10.6610   32.8980   25.0620 C.3    78  ALA78       0.1694
     15  C         10.9840   32.7900   26.5420 C.2    78  ALA78       0.2591
     16  O         10.9690   31.6970   27.1450 O.2    78  ALA78      -0.2718
     17  CB         9.1900   33.2770   24.9070 C.3    78  ALA78       0.0304
     18  N         11.3060   33.9490   27.1130 N.am   79  MET79      -0.1979
     19  CA        11.3110   34.1410   28.5700 C.3    79  MET79       0.1605
     20  C         12.2540   33.1820   29.3090 C.2    79  MET79       0.2287
     21  O         11.8520   32.5150   30.2690 O.2    79  MET79      -0.2864
     22  CB         9.8740   34.0600   29.1200 C.3    79  MET79       0.0413
     23  CG         8.9310   35.1300   28.5870 C.3    79  MET79       0.0598
     24  SD         7.1720   34.9180   29.0330 S.3    79  MET79      -0.1393
     25  CE         6.6740   33.6760   27.8420 C.3    79  MET79       0.0692
     26  N         10.1630   37.5640   22.3370 N.3   107  TRP107     -0.1241
     27  CA         9.5710   37.5760   23.7030 C.3   107  TRP107      0.1605
     28  C         10.6050   37.2110   24.7910 C.2   107  TRP107      0.2264
     29  O         10.3230   36.4940   25.7620 O.2   107  TRP107     -0.2867
     30  CB         8.3890   36.5960   23.7570 C.3   107  TRP107      0.0550
     31  CG         7.2350   36.9570   22.8450 C.ar  107  TRP107      0.0003
     32  CD1        6.9820   38.1680   22.2960 C.ar  107  TRP107      0.0946
     33  CD2        6.1680   36.0850   22.4080 C.ar  107  TRP107      0.0152
     34  NE1        5.8310   38.1190   21.5250 N.ar  107  TRP107     -0.2442
     35  CE2        5.3180   36.8480   21.5800 C.ar  107  TRP107      0.0810
     36  CE3        5.8660   34.7300   22.6180 C.ar  107  TRP107      0.0012
     37  CZ2        4.1650   36.3070   20.9740 C.ar  107  TRP107      0.0191
     38  CZ3        4.7270   34.1970   22.0050 C.ar  107  TRP107      0.0001
     39  CH2        3.8970   34.9870   21.1960 C.ar  107  TRP107      0.0015
     40  N          8.1410   38.4550   15.5130 N.3   129  TYR129     -0.1241
     41  CA         6.6910   38.4620   15.3510 C.3   129  TYR129      0.1605
     42  C          6.2790   39.7990   14.7390 C.2   129  TYR129      0.2264
     43  O          6.8620   40.8380   15.0780 O.2   129  TYR129     -0.2867
     44  CB         5.9830   38.2950   16.6910 C.3   129  TYR129      0.0534
     45  CG         5.9830   36.8830   17.2420 C.ar  129  TYR129     -0.0201
     46  CD1        5.2870   35.8670   16.5950 C.ar  129  TYR129     -0.0009
     47  CD2        6.6330   36.5690   18.4300 C.ar  129  TYR129     -0.0009
     48  CE1        5.2800   34.5760   17.0920 C.ar  129  TYR129      0.0417
     49  CE2        6.6260   35.2730   18.9450 C.ar  129  TYR129      0.0417
     50  CZ         5.9390   34.2870   18.2720 C.ar  129  TYR129      0.1957
     51  OH         5.9090   32.9940   18.7630 O.3   129  TYR129     -0.2866
     52  N         -2.3740   32.8360   19.4360 N.3   161  LEU161     -0.1245
     53  CA        -1.6770   31.7960   20.1910 C.3   161  LEU161      0.1561
     54  C         -2.4850   30.5120   20.2660 C.2   161  LEU161      0.2260
     55  O         -3.7080   30.5230   20.4110 O.2   161  LEU161     -0.2867
     56  CB        -1.3370   32.2470   21.6340 C.3   161  LEU161      0.0270
     57  CG        -0.2130   31.4330   22.3230 C.3   161  LEU161      0.0019
     58  CD1        1.1630   31.8520   21.8520 C.3   161  LEU161      0.0001
     59  CD2       -0.2660   31.4470   23.8530 C.3   161  LEU161      0.0001
     60  N         -2.8430   26.0240   25.0480 N.3   164  ARG164     -0.1245
     61  CA        -2.0880   25.0720   25.8910 C.3   164  ARG164      0.1563
     62  C         -2.8330   24.9280   27.2290 C.2   164  ARG164      0.2260
     63  O         -2.9120   25.8760   28.0080 O.2   164  ARG164     -0.2867
     64  CB        -0.6300   25.5320   26.0730 C.3   164  ARG164      0.0307
     65  CG         0.1470   25.7080   24.7540 C.3   164  ARG164      0.0489
     66  CD         0.1040   27.1410   24.2610 C.3   164  ARG164      0.2205
     67  NE         0.8160   27.4830   23.0130 N.pl3 164  ARG164     -0.0865
     68  CZ         1.9480   28.1930   22.9150 C.cat 164  ARG164      0.5346
     69  NH1        2.6520   28.5500   23.9960 N.pl3 164  ARG164      0.1354
     70  NH2        2.4000   28.5280   21.7010 N.pl3 164  ARG164      0.1354
     71  N         -1.1560   31.2210   33.4230 N.3   172  PHE172     -0.1227
     72  CA         0.2700   31.4640   33.2760 C.3   172  PHE172      0.1736
     73  C          0.5630   32.9650   33.1350 C.2   172  PHE172      0.2595
     74  O         -0.1700   33.6890   32.4460 O.2   172  PHE172     -0.2718
     75  CB         0.8570   30.6780   32.0960 C.3   172  PHE172      0.0547
     76  CG         2.2440   31.1200   31.7210 C.ar  172  PHE172     -0.0202
     77  CD1        2.4460   31.9670   30.6390 C.ar  172  PHE172     -0.0042
     78  CD2        3.3390   30.7350   32.4850 C.ar  172  PHE172     -0.0042
     79  CE1        3.7150   32.4060   30.3120 C.ar  172  PHE172     -0.0003
     80  CE2        4.6160   31.1840   32.1700 C.ar  172  PHE172     -0.0003
     81  CZ         4.7990   32.0130   31.0700 C.ar  172  PHE172     -0.0000
     82  N          1.6220   33.4060   33.8120 N.am  173  LYS173     -0.1966
     83  CA         2.1710   34.7570   33.6760 C.3   173  LYS173      0.1728
     84  C          3.6280   34.7320   34.1310 C.2   173  LYS173      0.2616
     85  O          4.0880   33.7490   34.7440 O.2   173  LYS173     -0.2715
     86  CB         1.3740   35.7650   34.5210 C.3   173  LYS173      0.0311
     87  CG         1.4310   35.5420   36.0260 C.3   173  LYS173      0.0038
     88  CD         0.6600   36.6650   36.6780 C.3   173  LYS173      0.0206
     89  CE         0.1760   36.3050   38.0870 C.3   173  LYS173      0.1093
     90  NZ         1.2730   36.0540   38.9970 N.3   173  LYS173     -0.1314
     91  N          4.3480   35.8080   33.8400 N.am  174  LEU174     -0.1977
     92  CA         5.7450   35.9220   34.2610 C.3   174  LEU174      0.1596
     93  C          5.8400   36.0640   35.7830 C.2   174  LEU174      0.2287
     94  O          4.9580   36.6910   36.3850 O.2   174  LEU174     -0.2864
     95  CB         6.4240   37.1290   33.6040 C.3   174  LEU174      0.0297
     96  CG         6.9770   36.9610   32.1850 C.3   174  LEU174      0.0022
     97  CD1        7.2660   38.3220   31.5690 C.3   174  LEU174      0.0001
     98  CD2        8.2410   36.1050   32.1790 C.3   174  LEU174      0.0001
     99  N          9.3110   41.1120   29.3910 N.3   180  MET180     -0.1245
    100  CA         9.7960   40.9690   28.0150 C.3   180  MET180      0.1570
    101  C         10.5620   42.2430   27.7020 C.2   180  MET180      0.2261
    102  O          9.9790   43.2990   27.4960 O.2   180  MET180     -0.2867
    103  CB         8.6610   40.7810   27.0050 C.3   180  MET180      0.0387
    104  CG         7.9960   39.4120   27.0590 C.3   180  MET180      0.0595
    105  SD         6.7710   39.2240   25.7360 S.3   180  MET180     -0.1393
    106  CE         5.9900   37.6690   26.1650 C.3   180  MET180      0.0692
    107  N         -2.3340   34.0980   30.4830 N.3   186  GLY186     -0.1210
    108  CA        -1.8610   35.4590   30.2750 C.3   186  GLY186      0.1956
    109  C         -1.1730   35.6350   28.9270 C.2   186  GLY186      0.2611
    110  O         -1.2760   36.6980   28.3130 O.2   186  GLY186     -0.2717
    111  N         -0.4810   34.6010   28.4450 N.am  187  LEU187     -0.1979
    112  CA         0.2490   34.7450   27.1810 C.3   187  LEU187      0.1596
    113  C         -0.7160   34.7890   25.9930 C.2   187  LEU187      0.2287
    114  O         -0.4960   35.5450   25.0510 O.2   187  LEU187     -0.2864
    115  CB         1.2990   33.6340   27.0120 C.3   187  LEU187      0.0297
    116  CG         2.2950   33.7720   25.8460 C.3   187  LEU187      0.0022
    117  CD1        3.1520   35.0320   25.9200 C.3   187  LEU187      0.0001
    118  CD2        3.2060   32.5570   25.8270 C.3   187  LEU187      0.0001
    119  N         -2.0690   38.2730   25.9260 N.3   190  TYR190     -0.1241
    120  CA        -1.0100   39.1500   25.4210 C.3   190  TYR190      0.1605
    121  C         -0.9430   39.1120   23.9070 C.2   190  TYR190      0.2264
    122  O         -0.9050   40.1640   23.2670 O.2   190  TYR190     -0.2867
    123  CB         0.3510   38.7640   26.0010 C.3   190  TYR190      0.0534
    124  CG         1.5380   39.4800   25.3660 C.ar  190  TYR190     -0.0201
    125  CD1        2.0010   40.6850   25.8880 C.ar  190  TYR190     -0.0009
    126  CD2        2.2100   38.9410   24.2670 C.ar  190  TYR190     -0.0009
    127  CE1        3.0850   41.3440   25.3250 C.ar  190  TYR190      0.0417
    128  CE2        3.2970   39.5990   23.6890 C.ar  190  TYR190      0.0417
    129  CZ         3.7340   40.7990   24.2350 C.ar  190  TYR190      0.1957
    130  OH         4.7980   41.4730   23.6790 O.3   190  TYR190     -0.2866
    131  N          5.9760   24.8420   15.5380 N.3   242  HIS242     -0.1241
    132  CA         6.0520   25.7210   16.7350 C.3   242  HIS242      0.1621
    133  C          6.1550   24.8490   17.9980 C.2   242  HIS242      0.2264
    134  O          5.5000   25.0960   19.0250 O.2   242  HIS242     -0.2867
    135  CB         4.8390   26.6510   16.7770 C.3   242  HIS242      0.0745
    136  CG         5.0380   27.9350   17.5300 C.ar  242  HIS242      0.0817
    137  ND1        4.7850   29.1580   16.9460 N.ar  242  HIS242     -0.2268
    138  CD2        5.3430   28.1920   18.8290 C.ar  242  HIS242      0.1154
    139  CE1        4.9630   30.1170   17.8420 C.ar  242  HIS242      0.1986
    140  NE2        5.3130   29.5620   18.9870 N.ar  242  HIS242     -0.2212
    141  N          2.8610   23.6320   19.6060 N.3   245  ARG245     -0.1245
    142  CA         2.1900   24.5150   20.5450 C.3   245  ARG245      0.1563
    143  C          1.0810   25.3480   19.9130 C.2   245  ARG245      0.2260
    144  O          0.4330   26.1420   20.6370 O.2   245  ARG245     -0.2867
    145  CB         3.2080   25.3970   21.2730 C.3   245  ARG245      0.0307
    146  CG         4.1260   24.6010   22.1860 C.3   245  ARG245      0.0489
    147  CD         5.4460   25.2850   22.4150 C.3   245  ARG245      0.2205
    148  NE         5.4130   26.4430   23.2910 N.pl3 245  ARG245     -0.0865
    149  CZ         5.4630   26.3960   24.6240 C.cat 245  ARG245      0.5346
    150  NH1        5.4320   25.2460   25.2790 N.pl3 245  ARG245      0.1354
    151  NH2        5.5420   27.5390   25.3020 N.pl3 245  ARG245      0.1354
@<TRIPOS>BOND
     1    42    43    2
     2    42    41    1
     3    41    40    1
     4    41    44    1
     5   131   132    1
     6    46    48   ar
     7    46    45   ar
     8    44    45    1
     9   132   135    1
    10   132   133    1
    11   135   136    1
    12   137   136   ar
    13   137   139   ar
    14    48    50   ar
    15    45    47   ar
    16   136   138   ar
    17   139   140   ar
    18   133   134    2
    19    50    51    1
    20    50    49   ar
    21    47    49   ar
    22   138   140   ar
    23    52    53    1
    24   141   142    1
    25   143   142    1
    26   143   144    2
    27    53    54    1
    28    53    56    1
    29    54    55    2
    30   142   145    1
    31    37    39   ar
    32    37    35   ar
    33    39    38   ar
    34   145   146    1
    35    34    35   ar
    36    34    32   ar
    37    35    33   ar
    38    56    57    1
    39    70    68    1
    40    58    57    1
    41    38    36   ar
    42   146   147    1
    43    32    31   ar
    44    57    59    1
    45    26    27    1
    46    33    36   ar
    47    33    31   ar
    48   147   148    1
    49    31    30    1
    50    68    67    2
    51    68    69    1
    52    67    66    1
    53   122   121    2
    54   148   149    2
    55   130   129    1
    56   128   129   ar
    57   128   126   ar
    58    27    30    1
    59    27    28    1
    60   121   120    1
    61   129   127   ar
    62    66    65    1
    63   126   124   ar
    64    13    14    1
    65   149   150    1
    66   149   151    1
    67    65    64    1
    68    28    29    2
    69    17    14    1
    70    60    61    1
    71   114   113    2
    72    14    15    1
    73   127   125   ar
    74   124   125   ar
    75   124   123    1
    76   120   119    1
    77   120   123    1
    78   105   106    1
    79   105   104    1
    80   118   116    1
    81   116   117    1
    82   116   115    1
    83    61    64    1
    84    61    62    1
    85   113   112    1
    86    12    11    1
    87    15    18   am
    88    15    16    2
    89   103   104    1
    90   103   100    1
    91   115   112    1
    92    18    19    1
    93   112   111    1
    94    62    63    2
    95    11     9   ar
    96    11    10   ar
    97   102   101    2
    98     9     7   ar
    99   101   100    1
   100    25    24    1
   101   100    99    1
   102     4     3    2
   103    10     8   ar
   104   110   109    2
   105   111   109   am
   106    19    22    1
   107    19    20    1
   108    23    24    1
   109    23    22    1
   110     7     6   ar
   111   109   108    1
   112     3     2    1
   113    20    21    2
   114     8     6   ar
   115     6     5    1
   116   108   107    1
   117     2     5    1
   118     2     1    1
   119    79    77   ar
   120    79    81   ar
   121    77    76   ar
   122    81    80   ar
   123    97    96    1
   124    76    75    1
   125    76    78   ar
   126    75    72    1
   127    80    78   ar
   128    98    96    1
   129    96    95    1
   130    74    73    2
   131    73    72    1
   132    73    82   am
   133    72    71    1
   134    95    92    1
   135    83    82    1
   136    83    84    1
   137    83    86    1
   138    91    84   am
   139    91    92    1
   140    84    85    2
   141    92    93    1
   142    86    87    1
   143    93    94    2
   144    87    88    1
   145    88    89    1
   146    89    90    1
