@<TRIPOS>MOLECULE
tmp/5qigA02.pdb
 88 84 0 0 0
SMALL
GASTEIGER

@<TRIPOS>ATOM
      1  N         25.7470   11.7170   36.4190 N.3     1  ARG1       -0.1231
      2  CA        24.3300   12.1690   36.3140 C.3     1  ARG1        0.1694
      3  C         23.6590   12.2350   34.8800 C.2     1  ARG1        0.2592
      4  O         22.9300   11.3380   34.5830 O.2     1  ARG1       -0.2718
      5  CB        23.9220   13.3780   37.2500 C.3     1  ARG1        0.0321
      6  CG        24.9100   14.5200   37.4270 C.3     1  ARG1        0.0489
      7  CD        24.4820   15.5100   38.5000 C.3     1  ARG1        0.2205
      8  NE        23.0650   15.7400   38.3220 N.pl3   1  ARG1       -0.0865
      9  CZ        22.1780   15.7890   39.2770 C.cat   1  ARG1        0.5346
     10  NH1       22.5720   15.6530   40.5170 N.pl3   1  ARG1        0.1354
     11  NH2       20.9050   15.9840   38.9330 N.pl3   1  ARG1        0.1354
     12  N         23.7960   13.3140   34.0810 N.am    2  LEU2       -0.1966
     13  CA        22.8790   13.5760   32.9320 C.3     2  LEU2        0.1728
     14  C         23.6350   13.2860   31.6670 C.2     2  LEU2        0.2616
     15  O         24.5850   13.9750   31.3660 O.2     2  LEU2       -0.2715
     16  CB        22.4030   15.0420   32.9260 C.3     2  LEU2        0.0311
     17  CG        21.7280   15.5400   34.2010 C.3     2  LEU2        0.0022
     18  CD1       21.2060   16.9570   34.0680 C.3     2  LEU2        0.0001
     19  CD2       20.6190   14.6530   34.6900 C.3     2  LEU2        0.0001
     20  N         23.2260   12.2460   30.9320 N.am    3  ILE3       -0.1977
     21  CA        24.0540   11.7800   29.7920 C.3     3  ILE3        0.1596
     22  C         23.3570   11.8020   28.4450 C.2     3  ILE3        0.2287
     23  O         23.9670   11.4990   27.4400 O.2     3  ILE3       -0.2864
     24  CB        24.6280   10.3900   30.0990 C.3     3  ILE3        0.0276
     25  CG1       23.5240    9.3220   30.1570 C.3     3  ILE3        0.0022
     26  CG2       25.3980   10.4420   31.4250 C.3     3  ILE3        0.0022
     27  CD1       24.0880    7.9200   30.2510 C.3     3  ILE3        0.0001
     28  N         18.0330   15.4950   30.9380 N.3     8  TYR8       -0.1241
     29  CA        17.9220   16.9280   31.2230 C.3     8  TYR8        0.1605
     30  C         16.4580   17.3370   31.4210 C.2     8  TYR8        0.2264
     31  O         16.1420   18.1340   32.3070 O.2     8  TYR8       -0.2867
     32  CB        18.5730   17.7820   30.1260 C.3     8  TYR8        0.0534
     33  CG        20.0550   17.9510   30.3200 C.ar    8  TYR8       -0.0201
     34  CD1       20.5210   19.0400   30.9810 C.ar    8  TYR8       -0.0009
     35  CD2       20.9700   16.9960   29.9320 C.ar    8  TYR8       -0.0009
     36  CE1       21.8480   19.2380   31.2150 C.ar    8  TYR8        0.0417
     37  CE2       22.3110   17.1600   30.2190 C.ar    8  TYR8        0.0417
     38  CZ        22.7360   18.3050   30.8400 C.ar    8  TYR8        0.1957
     39  OH        24.0410   18.5720   31.2020 O.3     8  TYR8       -0.2866
     40  N         19.0610   23.1270   34.4080 N.3   320  PHE320     -0.1227
     41  CA        20.1260   22.4090   35.1230 C.3   320  PHE320      0.1736
     42  C         21.2300   23.3310   35.6370 C.2   320  PHE320      0.2595
     43  O         21.5130   23.3280   36.8510 O.2   320  PHE320     -0.2718
     44  CB        20.7680   21.3220   34.2480 C.3   320  PHE320      0.0547
     45  CG        21.9440   20.6230   34.9190 C.ar  320  PHE320     -0.0202
     46  CD1       21.7610   19.9340   36.1050 C.ar  320  PHE320     -0.0042
     47  CD2       23.2170   20.6630   34.3650 C.ar  320  PHE320     -0.0042
     48  CE1       22.8190   19.3030   36.7380 C.ar  320  PHE320     -0.0003
     49  CE2       24.2690   20.0160   34.9860 C.ar  320  PHE320     -0.0003
     50  CZ        24.0630   19.3270   36.1530 C.ar  320  PHE320     -0.0000
     51  N         21.8430   24.1110   34.7450 N.am  321  GLN321     -0.1979
     52  CA        23.0700   24.8500   35.0990 C.3   321  GLN321      0.1601
     53  C         23.4090   26.0370   34.2010 C.2   321  GLN321      0.2287
     54  O         24.5800   26.3320   33.9290 O.2   321  GLN321     -0.2864
     55  CB        24.2450   23.8460   35.1790 C.3   321  GLN321      0.0394
     56  CG        25.5350   24.4780   35.6430 C.3   321  GLN321      0.0908
     57  CD        25.6170   24.5800   37.1540 C.2   321  GLN321      0.2608
     58  OE1       25.2550   23.6810   37.9120 O.2   321  GLN321     -0.2717
     59  NE2       26.1340   25.7210   37.6140 N.am  321  GLN321     -0.0878
     60  N         26.5230   26.6110   31.4080 N.3   324  LYS324     -0.1231
     61  CA        27.1820   25.2970   31.3970 C.3   324  LYS324      0.1693
     62  C         26.2200   24.1920   31.0220 C.2   324  LYS324      0.2592
     63  O         26.6060   23.2360   30.3350 O.2   324  LYS324     -0.2718
     64  CB        27.8150   25.0040   32.7720 C.3   324  LYS324      0.0285
     65  CG        28.6820   23.7860   32.7590 C.3   324  LYS324      0.0035
     66  CD        29.9830   23.9430   32.0020 C.3   324  LYS324      0.0206
     67  CE        30.8620   22.7160   32.2320 C.3   324  LYS324      0.1093
     68  NZ        31.8940   22.5100   31.1880 N.3   324  LYS324     -0.1314
     69  N         24.9590   24.3090   31.4670 N.am  325  GLY325     -0.1957
     70  CA        23.9580   23.3030   31.1640 C.3   325  GLY325      0.1869
     71  C         23.6040   23.3550   29.6660 C.2   325  GLY325      0.2309
     72  O         23.4360   22.2950   29.0430 O.2   325  GLY325     -0.2863
     73  N         26.4890   21.8200   27.8140 N.3   328  ASP328     -0.1239
     74  CA        26.4260   20.3540   27.9750 C.3   328  ASP328      0.1674
     75  C         25.4470   19.7380   26.9860 C.2   328  ASP328      0.2266
     76  O         25.7690   18.7730   26.2970 O.2   328  ASP328     -0.2867
     77  CB        25.9240   19.9510   29.3690 C.3   328  ASP328      0.1410
     78  CG        26.9630   20.1060   30.4640 C.2   328  ASP328      0.3668
     79  OD1       28.1570   20.2770   30.1630 O.co2 328  ASP328     -0.2456
     80  OD2       26.5550   20.0380   31.6440 O.co2 328  ASP328     -0.2456
     81  N         26.3750   17.1950   24.0430 N.3   332  ILE332     -0.1245
     82  CA        25.7760   15.8630   23.9460 C.3   332  ILE332      0.1561
     83  C         25.2300   15.6290   22.5400 C.2   332  ILE332      0.2260
     84  O         25.4930   14.5740   21.9350 O.2   332  ILE332     -0.2867
     85  CB        24.6770   15.6200   25.0080 C.3   332  ILE332      0.0252
     86  CG1       25.3560   15.4390   26.3690 C.3   332  ILE332      0.0019
     87  CG2       23.8060   14.3830   24.6940 C.3   332  ILE332      0.0019
     88  CD1       24.4280   15.6150   27.5570 C.3   332  ILE332      0.0001
@<TRIPOS>BOND
     1    84    83    2
     2    83    82    1
     3    82    81    1
     4    82    85    1
     5    87    85    1
     6    85    86    1
     7    76    75    2
     8    86    88    1
     9    75    74    1
    10    23    22    2
    11    73    74    1
    12    74    77    1
    13    22    21    1
    14    72    71    2
    15    77    78    1
    16    71    70    1
    17    21    24    1
    18    21    20    1
    19    35    37   ar
    20    35    33   ar
    21    24    25    1
    22    24    26    1
    23    32    33    1
    24    32    29    1
    25    25    27    1
    26    79    78   ar
    27    37    38   ar
    28    33    34   ar
    29    63    62    2
    30    78    80   ar
    31    38    39    1
    32    38    36   ar
    33    20    14   am
    34    28    29    1
    35    34    36   ar
    36    62    61    1
    37    62    69   am
    38    70    69    1
    39    68    67    1
    40    29    30    1
    41    15    14    2
    42    61    60    1
    43    61    64    1
    44    30    31    2
    45    14    13    1
    46    66    67    1
    47    66    65    1
    48    65    64    1
    49    16    13    1
    50    16    17    1
    51    13    12    1
    52    54    53    2
    53    18    17    1
    54    12     3   am
    55    53    52    1
    56    17    19    1
    57    44    45    1
    58    44    41    1
    59    47    45   ar
    60    47    49   ar
    61    40    41    1
    62     4     3    2
    63    51    52    1
    64    51    42   am
    65     3     2    1
    66    45    46   ar
    67    49    50   ar
    68    52    55    1
    69    41    42    1
    70    55    56    1
    71    42    43    2
    72    56    57    1
    73    46    48   ar
    74    50    48   ar
    75     2     1    1
    76     2     5    1
    77    57    59   am
    78    57    58    2
    79     5     6    1
    80     6     7    1
    81     8     7    1
    82     8     9    2
    83    11     9    1
    84     9    10    1
