@<TRIPOS>MOLECULE
tmp/5qihA01.pdb
 125 119 0 0 0
SMALL
GASTEIGER

@<TRIPOS>ATOM
      1  N          4.6670   25.3830   30.9980 N.3    23  TYR23      -0.1241
      2  CA         4.7510   26.3480   29.8880 C.3    23  TYR23       0.1605
      3  C          5.7440   25.8530   28.8390 C.2    23  TYR23       0.2264
      4  O          5.4620   25.8500   27.6470 O.2    23  TYR23      -0.2867
      5  CB         5.1660   27.7540   30.3760 C.3    23  TYR23       0.0534
      6  CG         5.5640   28.6310   29.2140 C.ar   23  TYR23      -0.0201
      7  CD1        4.6170   29.0810   28.3130 C.ar   23  TYR23      -0.0009
      8  CD2        6.9030   28.8600   28.9030 C.ar   23  TYR23      -0.0009
      9  CE1        4.9750   29.8090   27.1820 C.ar   23  TYR23       0.0417
     10  CE2        7.2660   29.6020   27.7870 C.ar   23  TYR23       0.0417
     11  CZ         6.3140   30.0670   26.9370 C.ar   23  TYR23       0.1957
     12  OH         6.6890   30.7420   25.8190 O.3    23  TYR23      -0.2866
     13  N         10.8420   31.5850   24.0200 N.3    78  ALA78      -0.1231
     14  CA        10.5540   32.7800   24.7710 C.3    78  ALA78       0.1694
     15  C         11.0210   32.7540   26.2110 C.2    78  ALA78       0.2591
     16  O         11.0170   31.7190   26.8580 O.2    78  ALA78      -0.2718
     17  CB         9.0410   33.0120   24.7690 C.3    78  ALA78       0.0304
     18  N         11.3670   33.9430   26.7000 N.am   79  MET79      -0.1979
     19  CA        11.3860   34.2250   28.1560 C.3    79  MET79       0.1605
     20  C         12.3180   33.3190   28.9660 C.2    79  MET79       0.2287
     21  O         11.9090   32.7820   29.9990 O.2    79  MET79      -0.2864
     22  CB         9.9310   34.1290   28.7380 C.3    79  MET79       0.0413
     23  CG         8.9220   35.1060   28.1650 C.3    79  MET79       0.0598
     24  SD         7.2080   34.7890   28.6400 S.3    79  MET79      -0.1393
     25  CE         6.6560   33.6910   27.3510 C.3    79  MET79       0.0692
     26  N         14.4130   34.8480   20.3330 N.3   105  SER105     -0.1217
     27  CA        12.9670   35.1090   20.3660 C.3   105  SER105      0.1889
     28  C         12.6480   36.5830   20.3610 C.2   105  SER105      0.2288
     29  O         13.2480   37.3330   21.1370 O.2   105  SER105     -0.2866
     30  CB        12.3540   34.5030   21.6490 C.3   105  SER105      0.2089
     31  OG        10.9400   34.7280   21.7830 O.3   105  SER105     -0.2183
     32  N         10.1770   37.4530   21.9820 N.3   107  TRP107     -0.1241
     33  CA         9.6120   37.4360   23.3580 C.3   107  TRP107      0.1605
     34  C         10.6610   37.0090   24.3800 C.2   107  TRP107      0.2264
     35  O         10.3550   36.3730   25.3660 O.2   107  TRP107     -0.2867
     36  CB         8.4320   36.4440   23.4170 C.3   107  TRP107      0.0550
     37  CG         7.2880   36.8010   22.5270 C.ar  107  TRP107      0.0003
     38  CD1        7.0370   38.0080   21.9650 C.ar  107  TRP107      0.0946
     39  CD2        6.2180   35.9330   22.1070 C.ar  107  TRP107      0.0152
     40  NE1        5.8900   37.9620   21.1910 N.ar  107  TRP107     -0.2442
     41  CE2        5.3670   36.6970   21.2770 C.ar  107  TRP107      0.0810
     42  CE3        5.8980   34.5890   22.3490 C.ar  107  TRP107      0.0012
     43  CZ2        4.2020   36.1690   20.6990 C.ar  107  TRP107      0.0191
     44  CZ3        4.7320   34.0630   21.7470 C.ar  107  TRP107      0.0001
     45  CH2        3.9150   34.8620   20.9340 C.ar  107  TRP107      0.0015
     46  N          8.0370   38.3300   15.1390 N.3   129  TYR129     -0.1241
     47  CA         6.6280   38.3340   14.8720 C.3   129  TYR129      0.1605
     48  C          6.2590   39.6800   14.2250 C.2   129  TYR129      0.2264
     49  O          6.8790   40.7150   14.5960 O.2   129  TYR129     -0.2867
     50  CB         5.8420   38.1790   16.1510 C.3   129  TYR129      0.0534
     51  CG         5.8320   36.8060   16.7650 C.ar  129  TYR129     -0.0201
     52  CD1        5.1810   35.8300   16.0840 C.ar  129  TYR129     -0.0009
     53  CD2        6.4490   36.4880   17.9320 C.ar  129  TYR129     -0.0009
     54  CE1        5.1800   34.5640   16.6060 C.ar  129  TYR129      0.0417
     55  CE2        6.4640   35.1900   18.4700 C.ar  129  TYR129      0.0417
     56  CZ         5.7210   34.2510   17.7620 C.ar  129  TYR129      0.1957
     57  OH         5.6980   32.9710   18.2760 O.3   129  TYR129     -0.2866
     58  N         -2.4260   32.5940   19.3000 N.3   161  LEU161     -0.1245
     59  CA        -1.7150   31.5850   20.0560 C.3   161  LEU161      0.1561
     60  C         -2.5270   30.2900   20.1080 C.2   161  LEU161      0.2260
     61  O         -3.7340   30.2810   20.2530 O.2   161  LEU161     -0.2867
     62  CB        -1.4050   32.0680   21.4810 C.3   161  LEU161      0.0270
     63  CG        -0.2430   31.2710   22.1420 C.3   161  LEU161      0.0019
     64  CD1        1.1200   31.6710   21.6260 C.3   161  LEU161      0.0001
     65  CD2       -0.2420   31.3570   23.6570 C.3   161  LEU161      0.0001
     66  N         -2.8300   25.8650   24.8050 N.3   164  ARG164     -0.1245
     67  CA        -2.0330   24.9370   25.6150 C.3   164  ARG164      0.1563
     68  C         -2.7950   24.7950   26.9300 C.2   164  ARG164      0.2260
     69  O         -2.8500   25.7310   27.7060 O.2   164  ARG164     -0.2867
     70  CB        -0.5930   25.4450   25.7960 C.3   164  ARG164      0.0307
     71  CG         0.1750   25.6060   24.4770 C.3   164  ARG164      0.0489
     72  CD         0.1440   27.0160   24.0060 C.3   164  ARG164      0.2205
     73  NE         0.8370   27.3720   22.7700 N.pl3 164  ARG164     -0.0865
     74  CZ         1.9390   28.1140   22.6650 C.cat 164  ARG164      0.5346
     75  NH1        2.6360   28.4860   23.7440 N.pl3 164  ARG164      0.1354
     76  NH2        2.3250   28.4950   21.4420 N.pl3 164  ARG164      0.1354
     77  N          9.3770   40.9450   29.0090 N.3   180  MET180     -0.1245
     78  CA         9.8310   40.8570   27.6270 C.3   180  MET180      0.1570
     79  C         10.5870   42.1560   27.3410 C.2   180  MET180      0.2261
     80  O          9.9980   43.2140   27.1550 O.2   180  MET180     -0.2867
     81  CB         8.6680   40.6730   26.6410 C.3   180  MET180      0.0387
     82  CG         7.9680   39.3100   26.6880 C.3   180  MET180      0.0595
     83  SD         6.8000   39.1060   25.3290 S.3   180  MET180     -0.1393
     84  CE         5.8660   37.6650   25.8250 C.3   180  MET180      0.0692
     85  N         -0.4640   34.5430   28.1460 N.3   187  LEU187     -0.1245
     86  CA         0.2540   34.6780   26.9010 C.3   187  LEU187      0.1561
     87  C         -0.7030   34.6710   25.7180 C.2   187  LEU187      0.2260
     88  O         -0.4900   35.4110   24.7730 O.2   187  LEU187     -0.2867
     89  CB         1.3320   33.6050   26.7830 C.3   187  LEU187      0.0270
     90  CG         2.2690   33.7650   25.5780 C.3   187  LEU187      0.0019
     91  CD1        3.0380   35.0770   25.6230 C.3   187  LEU187      0.0001
     92  CD2        3.1890   32.5650   25.5480 C.3   187  LEU187      0.0001
     93  N         -2.0500   38.1450   25.5820 N.3   190  TYR190     -0.1241
     94  CA        -0.9900   39.0320   25.1010 C.3   190  TYR190      0.1605
     95  C         -0.9350   38.9600   23.5900 C.2   190  TYR190      0.2264
     96  O         -0.8810   39.9840   22.9350 O.2   190  TYR190     -0.2867
     97  CB         0.3600   38.6340   25.6640 C.3   190  TYR190      0.0534
     98  CG         1.5330   39.3360   25.0110 C.ar  190  TYR190     -0.0201
     99  CD1        1.9460   40.5830   25.4550 C.ar  190  TYR190     -0.0009
    100  CD2        2.2180   38.7610   23.9450 C.ar  190  TYR190     -0.0009
    101  CE1        3.0090   41.2270   24.8740 C.ar  190  TYR190      0.0417
    102  CE2        3.2890   39.4130   23.3450 C.ar  190  TYR190      0.0417
    103  CZ         3.6810   40.6480   23.8210 C.ar  190  TYR190      0.1957
    104  OH         4.7340   41.3020   23.2290 O.3   190  TYR190     -0.2866
    105  N          5.9240   24.6840   15.3180 N.3   242  HIS242     -0.1241
    106  CA         6.0180   25.5360   16.5350 C.3   242  HIS242      0.1621
    107  C          6.1820   24.6820   17.8060 C.2   242  HIS242      0.2264
    108  O          5.5440   24.9370   18.8350 O.2   242  HIS242     -0.2867
    109  CB         4.8390   26.4860   16.5930 C.3   242  HIS242      0.0745
    110  CG         5.0710   27.7670   17.3190 C.ar  242  HIS242      0.0817
    111  ND1        4.9270   28.9810   16.6770 N.ar  242  HIS242     -0.2268
    112  CD2        5.3190   28.0510   18.6220 C.ar  242  HIS242      0.1154
    113  CE1        5.1260   29.9520   17.5750 C.ar  242  HIS242      0.1986
    114  NE2        5.3360   29.4180   18.7630 N.ar  242  HIS242     -0.2212
    115  N          2.8670   23.4330   19.3770 N.3   245  ARG245     -0.1245
    116  CA         2.2060   24.3120   20.3250 C.3   245  ARG245      0.1563
    117  C          1.0900   25.1390   19.7000 C.2   245  ARG245      0.2260
    118  O          0.3920   25.8640   20.4360 O.2   245  ARG245     -0.2867
    119  CB         3.2520   25.2450   20.9810 C.3   245  ARG245      0.0307
    120  CG         4.2890   24.4670   21.8000 C.3   245  ARG245      0.0489
    121  CD         5.5910   25.1890   22.0240 C.3   245  ARG245      0.2205
    122  NE         5.5270   26.3230   22.9200 N.pl3 245  ARG245     -0.0865
    123  CZ         5.5540   26.2480   24.2590 C.cat 245  ARG245      0.5346
    124  NH1        5.5700   25.0910   24.8960 N.pl3 245  ARG245      0.1354
    125  NH2        5.6210   27.3610   24.9820 N.pl3 245  ARG245      0.1354
@<TRIPOS>BOND
     1    48    49    2
     2    48    47    1
     3    47    46    1
     4    47    50    1
     5   105   106    1
     6    52    54   ar
     7    52    51   ar
     8    50    51    1
     9   106   109    1
    10   106   107    1
    11   109   110    1
    12    54    56   ar
    13   111   110   ar
    14   111   113   ar
    15    51    53   ar
    16   110   112   ar
    17   113   114   ar
    18    56    57    1
    19    56    55   ar
    20   107   108    2
    21    53    55   ar
    22   112   114   ar
    23    58    59    1
    24   115   116    1
    25   117   116    1
    26   117   118    2
    27    59    60    1
    28    59    62    1
    29    60    61    2
    30   116   119    1
    31    26    27    1
    32    28    27    1
    33    28    29    2
    34    27    30    1
    35    43    45   ar
    36    43    41   ar
    37    45    44   ar
    38   119   120    1
    39    40    41   ar
    40    40    38   ar
    41    41    39   ar
    42    76    74    1
    43    62    63    1
    44    64    63    1
    45    30    31    1
    46    44    42   ar
    47   120   121    1
    48    38    37   ar
    49    32    33    1
    50   121   122    1
    51    39    42   ar
    52    39    37   ar
    53    63    65    1
    54    37    36    1
    55    74    73    2
    56    74    75    1
    57    73    72    1
    58   122   123    2
    59    96    95    2
    60   104   103    1
    61   102   103   ar
    62   102   100   ar
    63    33    36    1
    64    33    34    1
    65    95    94    1
    66   103   101   ar
    67   100    98   ar
    68    72    71    1
    69    13    14    1
    70   123   124    1
    71   123   125    1
    72    34    35    2
    73    71    70    1
    74    17    14    1
    75    14    15    1
    76    88    87    2
    77    66    67    1
    78   101    99   ar
    79    98    99   ar
    80    98    97    1
    81    94    93    1
    82    94    97    1
    83    83    84    1
    84    83    82    1
    85    92    90    1
    86    90    91    1
    87    90    89    1
    88    67    70    1
    89    67    68    1
    90    87    86    1
    91    12    11    1
    92    15    18   am
    93    15    16    2
    94    81    82    1
    95    81    78    1
    96    18    19    1
    97    89    86    1
    98    86    85    1
    99    68    69    2
   100    11     9   ar
   101    11    10   ar
   102    80    79    2
   103     9     7   ar
   104    79    78    1
   105    25    24    1
   106    78    77    1
   107     4     3    2
   108    10     8   ar
   109    19    22    1
   110    19    20    1
   111    23    24    1
   112    23    22    1
   113     7     6   ar
   114     3     2    1
   115     8     6   ar
   116    20    21    2
   117     6     5    1
   118     2     5    1
   119     2     1    1
