@<TRIPOS>MOLECULE
tmp/5qiiA01.pdb
 147 139 0 0 0
SMALL
GASTEIGER

@<TRIPOS>ATOM
      1  N         52.3970   54.3660   75.0370 N.3    96  ILE96      -0.1245
      2  CA        51.0160   54.2290   74.5880 C.3    96  ILE96       0.1561
      3  C         50.9920   54.4730   73.0880 C.2    96  ILE96       0.2260
      4  O         51.8510   55.2030   72.5660 O.2    96  ILE96      -0.2867
      5  CB        49.9360   55.1020   75.3460 C.3    96  ILE96       0.0252
      6  CG1       50.0380   56.6100   75.0000 C.3    96  ILE96       0.0019
      7  CG2       49.9350   54.8700   76.8670 C.3    96  ILE96       0.0019
      8  CD1       48.7950   57.3620   75.2300 C.3    96  ILE96       0.0001
      9  N         46.9760   58.4740   70.4540 N.3    99  THR99      -0.1218
     10  CA        45.5260   58.5360   70.6220 C.3    99  THR99       0.1862
     11  C         45.0540   59.9870   70.6160 C.2    99  THR99       0.2287
     12  O         45.6370   60.8310   71.2950 O.2    99  THR99      -0.2866
     13  CB        45.0890   57.7830   71.9270 C.3    99  THR99       0.1770
     14  OG1       45.8730   56.6040   72.1680 O.3    99  THR99      -0.2211
     15  CG2       43.6160   57.4680   71.9720 C.3    99  THR99       0.0375
     16  N         41.4870   62.6580   71.0410 N.3   101  LEU101     -0.1245
     17  CA        40.1980   62.7210   71.7070 C.3   101  LEU101      0.1561
     18  C         39.1300   62.7430   70.6300 C.2   101  LEU101      0.2260
     19  O         39.0620   63.6970   69.8590 O.2   101  LEU101     -0.2867
     20  CB        40.0790   63.9660   72.6000 C.3   101  LEU101      0.0270
     21  CG        40.9650   64.0400   73.8360 C.3   101  LEU101      0.0019
     22  CD1       40.8630   65.3970   74.4650 C.3   101  LEU101      0.0001
     23  CD2       40.5470   63.0370   74.8620 C.3   101  LEU101      0.0001
     24  N         46.2120   56.2330   83.9330 N.3   145  SER145     -0.1202
     25  CA        45.4800   57.4780   83.8870 C.3   145  SER145      0.2020
     26  C         44.2990   57.4250   84.8750 C.2   145  SER145      0.2619
     27  O         43.9700   56.3550   85.4040 O.2   145  SER145     -0.2717
     28  CB        44.9730   57.6820   82.4520 C.3   145  SER145      0.2103
     29  OG        43.9940   58.6980   82.3110 O.3   145  SER145     -0.2182
     30  N         43.6530   58.6000   85.0910 N.am  146  LEU146     -0.1965
     31  CA        42.4090   58.7550   85.8430 C.3   146  LEU146      0.1728
     32  C         41.3640   58.0300   85.0020 C.2   146  LEU146      0.2616
     33  O         40.4360   57.4310   85.5430 O.2   146  LEU146     -0.2715
     34  CB        42.0280   60.2460   85.9630 C.3   146  LEU146      0.0311
     35  CG        42.8840   61.1380   86.8950 C.3   146  LEU146      0.0022
     36  CD1       42.4790   62.6090   86.7740 C.3   146  LEU146      0.0001
     37  CD2       42.7070   60.7500   88.3280 C.3   146  LEU146      0.0001
     38  N         41.5900   58.0250   83.6600 N.am  147  ALA147     -0.1977
     39  CA        40.8040   57.3440   82.6320 C.3   147  ALA147      0.1597
     40  C         40.9320   55.7890   82.7250 C.2   147  ALA147      0.2287
     41  O         40.2360   55.0620   82.0160 O.2   147  ALA147     -0.2864
     42  CB        41.2070   57.8560   81.2410 C.3   147  ALA147      0.0319
     43  N         35.4380   58.6120   81.1730 N.3   152  TYR152     -0.1228
     44  CA        35.5070   59.8710   80.4410 C.3   152  TYR152      0.1721
     45  C         34.9890   59.6100   79.0440 C.2   152  TYR152      0.2437
     46  O         35.2930   58.5440   78.5030 O.2   152  TYR152     -0.2733
     47  CB        36.9690   60.2880   80.2540 C.3   152  TYR152      0.0547
     48  CG        37.6680   60.8430   81.4650 C.ar  152  TYR152     -0.0200
     49  CD1       38.3140   60.0020   82.3680 C.ar  152  TYR152     -0.0009
     50  CD2       37.7900   62.2140   81.6520 C.ar  152  TYR152     -0.0009
     51  CE1       38.9940   60.5130   83.4740 C.ar  152  TYR152      0.0417
     52  CE2       38.4880   62.7370   82.7390 C.ar  152  TYR152      0.0417
     53  CZ        39.0820   61.8820   83.6510 C.ar  152  TYR152      0.1957
     54  OH        39.7780   62.3970   84.7120 O.3   152  TYR152     -0.2866
     55  N         34.3210   60.5840   78.3790 N.am  153  PRO153     -0.2718
     56  CA        33.9710   60.3770   76.9580 C.3   153  PRO153      0.1535
     57  C         35.2050   60.6340   76.0900 C.2   153  PRO153      0.2598
     58  O         36.2400   61.0560   76.6130 O.2   153  PRO153     -0.2715
     59  CB        32.8990   61.4360   76.7060 C.3   153  PRO153      0.0310
     60  CG        33.2130   62.5430   77.6770 C.3   153  PRO153      0.0237
     61  CD        33.9220   61.9310   78.8570 C.3   153  PRO153      0.0939
     62  N         35.1070   60.3830   74.7700 N.am  154  MET154     -0.1964
     63  CA        36.1570   60.6450   73.7550 C.3   154  MET154      0.1736
     64  C         37.4560   59.8140   73.8930 C.2   154  MET154      0.2616
     65  O         38.3820   60.0040   73.0900 O.2   154  MET154     -0.2715
     66  CB        36.5240   62.1420   73.6710 C.3   154  MET154      0.0427
     67  CG        35.3520   63.0750   73.4640 C.3   154  MET154      0.0599
     68  SD        35.8640   64.7950   73.7560 S.3   154  MET154     -0.1393
     69  CE        35.7230   64.9180   75.5000 C.3   154  MET154      0.0692
     70  N         37.5210   58.9020   74.8880 N.am  155  VAL155     -0.1977
     71  CA        38.6840   58.0250   75.1050 C.3   155  VAL155      0.1596
     72  C         38.2980   56.5620   75.4070 C.2   155  VAL155      0.2287
     73  O         38.9930   55.9220   76.1870 O.2   155  VAL155     -0.2864
     74  CB        39.6710   58.5700   76.1700 C.3   155  VAL155      0.0276
     75  CG1       40.5490   59.6760   75.6090 C.3   155  VAL155      0.0022
     76  CG2       38.9520   59.0040   77.4380 C.3   155  VAL155      0.0022
     77  N         41.1450   53.8380   74.7620 N.3   158  TYR158     -0.1241
     78  CA        42.2540   54.2090   75.6340 C.3   158  TYR158      0.1605
     79  C         41.8920   53.8440   77.0750 C.2   158  TYR158      0.2264
     80  O         42.7040   53.2170   77.7570 O.2   158  TYR158     -0.2867
     81  CB        42.5660   55.7030   75.4550 C.3   158  TYR158      0.0534
     82  CG        43.5610   56.2620   76.4440 C.ar  158  TYR158     -0.0201
     83  CD1       44.9280   56.1420   76.2300 C.ar  158  TYR158     -0.0009
     84  CD2       43.1350   56.9400   77.5850 C.ar  158  TYR158     -0.0009
     85  CE1       45.8460   56.6390   77.1490 C.ar  158  TYR158      0.0417
     86  CE2       44.0450   57.4130   78.5230 C.ar  158  TYR158      0.0417
     87  CZ        45.4010   57.2930   78.2830 C.ar  158  TYR158      0.1957
     88  OH        46.2970   57.7930   79.1880 O.3   158  TYR158     -0.2866
     89  N         47.2820   59.0650   86.6620 N.3   190  LEU190     -0.1231
     90  CA        47.5870   60.4630   86.3930 C.3   190  LEU190      0.1693
     91  C         46.4980   61.2730   85.7430 C.2   190  LEU190      0.2593
     92  O         45.7010   60.7670   84.9530 O.2   190  LEU190     -0.2718
     93  CB        48.8750   60.6050   85.5710 C.3   190  LEU190      0.0284
     94  CG        50.0280   59.6450   85.8620 C.3   190  LEU190      0.0019
     95  CD1       51.1070   59.7840   84.8150 C.3   190  LEU190      0.0001
     96  CD2       50.6070   59.8630   87.2450 C.3   190  LEU190      0.0001
     97  N         46.5000   62.5590   86.0810 N.am  191  GLY191     -0.1942
     98  CA        45.5990   63.5480   85.5070 C.3   191  GLY191      0.2014
     99  C         46.2290   64.1700   84.2830 C.2   191  GLY191      0.2638
    100  O         47.0620   63.5370   83.6290 O.2   191  GLY191     -0.2714
    101  N         45.8310   65.4080   83.9450 N.am  192  LEU192     -0.1977
    102  CA        46.3750   66.1230   82.7880 C.3   192  LEU192      0.1596
    103  C         47.7670   66.6000   83.0830 C.2   192  LEU192      0.2287
    104  O         48.0030   67.2480   84.0930 O.2   192  LEU192     -0.2864
    105  CB        45.4900   67.2890   82.3720 C.3   192  LEU192      0.0297
    106  CG        45.8170   67.9340   81.0340 C.3   192  LEU192      0.0022
    107  CD1       45.5470   66.9860   79.8820 C.3   192  LEU192      0.0001
    108  CD2       45.0170   69.2030   80.8420 C.3   192  LEU192      0.0001
    109  N         52.0920   66.3200   73.3210 N.3   197  THR197     -0.1203
    110  CA        51.0600   65.5080   72.6780 C.3   197  THR197      0.1994
    111  C         49.6940   65.6900   73.3740 C.2   197  THR197      0.2617
    112  O         48.6920   65.8790   72.6710 O.2   197  THR197     -0.2717
    113  CB        51.5390   64.0560   72.5560 C.3   197  THR197      0.1784
    114  OG1       52.6850   64.0420   71.6940 O.3   197  THR197     -0.2211
    115  CG2       50.4680   63.1150   72.0050 C.3   197  THR197      0.0376
    116  N         49.6710   65.6740   74.7310 N.am  198  ALA198     -0.1979
    117  CA        48.4590   65.8330   75.5360 C.3   198  ALA198      0.1597
    118  C         47.8370   67.2090   75.3930 C.2   198  ALA198      0.2287
    119  O         46.6130   67.3110   75.2480 O.2   198  ALA198     -0.2864
    120  CB        48.7580   65.5590   76.9920 C.3   198  ALA198      0.0319
    121  N         46.2330   67.4720   72.0820 N.3   201  ALA201     -0.1231
    122  CA        45.0430   66.6180   72.0940 C.3   201  ALA201      0.1694
    123  C         43.8140   67.2630   72.7630 C.2   201  ALA201      0.2591
    124  O         42.7110   67.0980   72.2570 O.2   201  ALA201     -0.2718
    125  CB        45.3570   65.2780   72.7440 C.3   201  ALA201      0.0304
    126  N         44.0100   67.9850   73.8860 N.am  202  VAL202     -0.1980
    127  CA        42.9470   68.6570   74.6560 C.3   202  VAL202      0.1595
    128  C         42.6040   70.0580   74.1360 C.2   202  VAL202      0.2287
    129  O         41.5710   70.6050   74.5240 O.2   202  VAL202     -0.2864
    130  CB        43.2310   68.6980   76.1840 C.3   202  VAL202      0.0276
    131  CG1       43.2780   67.3030   76.7790 C.3   202  VAL202      0.0022
    132  CG2       44.4920   69.4930   76.5150 C.3   202  VAL202      0.0022
    133  N         39.0140   70.3380   75.7900 N.3   206  VAL206     -0.1245
    134  CA        38.9300   70.4280   77.2380 C.3   206  VAL206      0.1561
    135  C         40.0750   71.2360   77.7880 C.2   206  VAL206      0.2260
    136  O         41.2480   70.9060   77.5910 O.2   206  VAL206     -0.2867
    137  CB        38.7580   69.0640   77.9710 C.3   206  VAL206      0.0252
    138  CG1       39.5590   67.9480   77.3060 C.3   206  VAL206      0.0019
    139  CG2       39.1020   69.1770   79.4550 C.3   206  VAL206      0.0019
    140  N         41.4620   72.7450   81.4370 N.3   208  MET208     -0.1245
    141  CA        41.5750   72.5490   82.8840 C.3   208  MET208      0.1570
    142  C         43.0620   72.7220   83.1850 C.2   208  MET208      0.2261
    143  O         43.8550   72.8580   82.2490 O.2   208  MET208     -0.2867
    144  CB        41.0910   71.1410   83.2920 C.3   208  MET208      0.0387
    145  CG        41.8780   69.9930   82.7140 C.3   208  MET208      0.0595
    146  SD        41.2140   68.3770   83.2890 S.3   208  MET208     -0.1393
    147  CE        40.8570   68.7600   84.8730 C.3   208  MET208      0.0692
@<TRIPOS>BOND
     1    19    18    2
     2     9    10    1
     3    11    10    1
     4    11    12    2
     5    10    13    1
     6    18    17    1
     7    16    17    1
     8   114   113    1
     9    17    20    1
    10    13    15    1
    11    13    14    1
    12   115   113    1
    13   121   122    1
    14   122   125    1
    15   122   123    1
    16   124   123    2
    17   113   110    1
    18     4     3    2
    19    20    21    1
    20   112   111    2
    21   110   109    1
    22   110   111    1
    23   123   126   am
    24     3     2    1
    25    65    64    2
    26   111   116   am
    27    67    66    1
    28    67    68    1
    29    66    63    1
    30    63    64    1
    31    63    62    1
    32    68    69    1
    33    21    22    1
    34    21    23    1
    35   126   127    1
    36    64    70   am
    37   128   129    2
    38   128   127    1
    39     2     1    1
    40     2     5    1
    41   127   130    1
    42   116   117    1
    43    77    78    1
    44    62    57   am
    45    70    71    1
    46     6     8    1
    47     6     5    1
    48    71    72    1
    49    71    74    1
    50   119   118    2
    51     5     7    1
    52   118   117    1
    53    72    73    2
    54    81    78    1
    55    81    82    1
    56   117   120    1
    57    75    74    1
    58    78    79    1
    59   133   134    1
    60    57    58    2
    61    57    56    1
    62    74    76    1
    63   130   132    1
    64   130   131    1
    65    83    82   ar
    66    83    85   ar
    67    82    84   ar
    68    59    56    1
    69    59    60    1
    70    56    55    1
    71    79    80    2
    72    85    87   ar
    73   134   135    1
    74   134   137    1
    75   138   137    1
    76    84    86   ar
    77   136   135    2
    78    60    61    1
    79   137   139    1
    80    87    86   ar
    81    87    88    1
    82    55    61    1
    83    55    45   am
    84    46    45    2
    85    45    44    1
    86   107   106    1
    87    47    44    1
    88    47    48    1
    89    44    43    1
    90   108   106    1
    91   106   105    1
    92    42    39    1
    93   140   141    1
    94    48    50   ar
    95    48    49   ar
    96    50    52   ar
    97    41    40    2
    98   143   142    2
    99    29    28    1
   100    49    51   ar
   101   105   102    1
   102    28    25    1
   103    39    40    1
   104    39    38    1
   105   145   146    1
   106   145   144    1
   107    52    53   ar
   108   102   103    1
   109   102   101    1
   110   141   142    1
   111   141   144    1
   112   103   104    2
   113   146   147    1
   114    51    53   ar
   115   100    99    2
   116    53    54    1
   117    38    32   am
   118    25    24    1
   119    25    26    1
   120   101    99   am
   121    99    98    1
   122    95    94    1
   123    26    30   am
   124    26    27    2
   125    92    91    2
   126    32    33    2
   127    32    31    1
   128    30    31    1
   129    98    97    1
   130    93    94    1
   131    93    90    1
   132    91    97   am
   133    91    90    1
   134    31    34    1
   135    94    96    1
   136    34    35    1
   137    90    89    1
   138    36    35    1
   139    35    37    1
