@<TRIPOS>MOLECULE
tmp/5qijA02.pdb
 92 83 0 0 0
SMALL
GASTEIGER

@<TRIPOS>ATOM
      1  N          8.9220   12.4770   35.0380 N.3   147  LEU147     -0.1245
      2  CA         7.4510   12.4010   35.0070 C.3   147  LEU147      0.1561
      3  C          6.9280   13.8310   34.7280 C.2   147  LEU147      0.2260
      4  O          6.0080   13.9940   33.9240 O.2   147  LEU147     -0.2867
      5  CB         6.8630   11.8790   36.3410 C.3   147  LEU147      0.0270
      6  CG         7.3040   10.4880   36.8390 C.3   147  LEU147      0.0019
      7  CD1        6.5460   10.0960   38.0960 C.3   147  LEU147      0.0001
      8  CD2        7.1210    9.4140   35.7840 C.3   147  LEU147      0.0001
      9  N          3.7920   15.0630   32.4400 N.3   151  MET151     -0.1245
     10  CA         2.6550   15.4690   33.2650 C.3   151  MET151      0.1570
     11  C          3.1150   16.6710   34.1150 C.2   151  MET151      0.2261
     12  O          4.3010   17.0120   34.1390 O.2   151  MET151     -0.2867
     13  CB         2.2500   14.3180   34.1950 C.3   151  MET151      0.0387
     14  CG         3.3660   14.0240   35.1650 C.3   151  MET151      0.0595
     15  SD         3.0350   13.3840   36.7780 S.3   151  MET151     -0.1393
     16  CE         2.0520   14.5730   37.4380 C.3   151  MET151      0.0692
     17  N          3.0300   19.0670   37.9310 N.3   153  GLN153     -0.1245
     18  CA         2.9270   19.1540   39.4030 C.3   153  GLN153      0.1566
     19  C          3.3070   20.5380   39.8810 C.2   153  GLN153      0.2260
     20  O          4.1150   21.1930   39.2220 O.2   153  GLN153     -0.2867
     21  CB         3.8450   18.1760   40.1240 C.3   153  GLN153      0.0367
     22  CG         3.5250   16.7260   39.9790 C.3   153  GLN153      0.0905
     23  CD         4.8180   16.1440   39.5230 C.2   153  GLN153      0.2608
     24  OE1        4.9450   15.5580   38.4440 O.2   153  GLN153     -0.2717
     25  NE2        5.8320   16.3610   40.3230 N.am  153  GLN153     -0.0878
     26  N         10.9010    9.8580   40.9570 N.3   193  LEU193     -0.1245
     27  CA        11.7930   10.3510   42.0050 C.3   193  LEU193      0.1561
     28  C         12.9070    9.3140   42.3100 C.2   193  LEU193      0.2260
     29  O         12.6270    8.1210   42.4810 O.2   193  LEU193     -0.2867
     30  CB        11.0080   10.7300   43.2550 C.3   193  LEU193      0.0270
     31  CG        11.6330   11.8590   44.0610 C.3   193  LEU193      0.0019
     32  CD1       11.1370   13.2400   43.5680 C.3   193  LEU193      0.0001
     33  CD2       11.3680   11.6630   45.5430 C.3   193  LEU193      0.0001
     34  N          7.6940   17.2040   49.8230 N.3   207  ILE207     -0.1245
     35  CA         7.0990   16.0380   49.1610 C.3   207  ILE207      0.1561
     36  C          7.3980   14.7790   49.9520 C.2   207  ILE207      0.2260
     37  O          8.5240   14.6010   50.4260 O.2   207  ILE207     -0.2867
     38  CB         7.4890   15.9480   47.6430 C.3   207  ILE207      0.0252
     39  CG1        6.9070   17.1470   46.8650 C.3   207  ILE207      0.0019
     40  CG2        7.0490   14.6140   46.9880 C.3   207  ILE207      0.0019
     41  CD1        7.6140   17.4990   45.6400 C.3   207  ILE207      0.0001
     42  N          6.6560   11.4270   48.7230 N.3   209  ALA209     -0.1245
     43  CA         6.7600   10.1920   47.9470 C.3   209  ALA209      0.1562
     44  C          8.0850    9.4360   48.1510 C.2   209  ALA209      0.2260
     45  O          9.1070   10.0560   48.4430 O.2   209  ALA209     -0.2867
     46  CB         6.5410   10.4820   46.4670 C.3   209  ALA209      0.0290
     47  N         10.2770    4.1430   37.3110 N.3   235  ASP235     -0.1225
     48  CA         9.5750    4.6670   38.4750 C.3   235  ASP235      0.1805
     49  C          9.0060    3.5170   39.3160 C.2   235  ASP235      0.2598
     50  O          8.8660    2.4060   38.7970 O.2   235  ASP235     -0.2718
     51  CB         8.4890    5.6250   37.9540 C.3   235  ASP235      0.1424
     52  CG         7.4440    6.0420   38.9230 C.2   235  ASP235      0.3668
     53  OD1        7.7640    6.8180   39.8380 O.co2 235  ASP235     -0.2456
     54  OD2        6.3130    5.5930   38.7720 O.co2 235  ASP235     -0.2456
     55  N          8.6960    3.7770   40.6120 N.am  236  LYS236     -0.1966
     56  CA         8.1630    2.7680   41.5460 C.3   236  LYS236      0.1728
     57  C          6.8600    2.0990   41.0850 C.2   236  LYS236      0.2616
     58  O          6.7400    0.8820   41.2460 O.2   236  LYS236     -0.2715
     59  CB         8.0010    3.3310   42.9710 C.3   236  LYS236      0.0311
     60  CG         9.0700    2.8290   43.9330 C.3   236  LYS236      0.0038
     61  CD         8.7070    3.1090   45.3790 C.3   236  LYS236      0.0206
     62  CE         9.5500    2.3410   46.3710 C.3   236  LYS236      0.1093
     63  NZ        10.9550    2.8300   46.4150 N.3   236  LYS236     -0.1314
     64  N          5.9020    2.8670   40.5100 N.am  237  SER237     -0.1950
     65  CA         4.6340    2.3000   40.0540 C.3   237  SER237      0.1924
     66  C          4.6910    1.7100   38.6540 C.2   237  SER237      0.2314
     67  O          5.1290    2.3890   37.7220 O.2   237  SER237     -0.2863
     68  CB         3.5180    3.3280   40.1140 C.3   237  SER237      0.2116
     69  OG         2.3690    2.8230   39.4550 O.3   237  SER237     -0.2180
     70  N          2.2080    1.3620   36.8220 N.3   239  LEU239     -0.1231
     71  CA         1.0590    2.0370   36.2080 C.3   239  LEU239      0.1693
     72  C          1.4980    3.2170   35.3530 C.2   239  LEU239      0.2592
     73  O          0.8480    3.5180   34.3540 O.2   239  LEU239     -0.2718
     74  CB         0.1480    2.5580   37.3330 C.3   239  LEU239      0.0284
     75  CG        -1.1500    1.8390   37.6750 C.3   239  LEU239      0.0019
     76  CD1       -1.0750    0.3330   37.4390 C.3   239  LEU239      0.0001
     77  CD2       -1.5710    2.1760   39.1000 C.3   239  LEU239      0.0001
     78  N          2.5670    3.9120   35.7940 N.am  240  THR240     -0.1953
     79  CA         3.2090    5.0830   35.1920 C.3   240  THR240      0.1897
     80  C          3.3510    4.9810   33.6530 C.2   240  THR240      0.2313
     81  O          2.8070    5.8410   32.9660 O.2   240  THR240     -0.2863
     82  CB         4.5200    5.3240   35.9130 C.3   240  THR240      0.1794
     83  OG1        4.2170    5.7570   37.2360 O.3   240  THR240     -0.2208
     84  CG2        5.4010    6.3190   35.2100 C.3   240  THR240      0.0378
     85  N         -0.2450    4.9780   32.2170 N.3   243  LEU243     -0.1245
     86  CA        -0.8900    6.2580   32.4650 C.3   243  LEU243      0.1561
     87  C         -0.3080    7.3980   31.6210 C.2   243  LEU243      0.2260
     88  O         -1.0730    8.1810   31.0520 O.2   243  LEU243     -0.2867
     89  CB        -0.8620    6.5940   33.9700 C.3   243  LEU243      0.0270
     90  CG        -1.7960    5.7630   34.8950 C.3   243  LEU243      0.0019
     91  CD1       -1.4690    6.0100   36.3540 C.3   243  LEU243      0.0001
     92  CD2       -3.2580    6.0700   34.6450 C.3   243  LEU243      0.0001
@<TRIPOS>BOND
     1    88    87    2
     2    87    86    1
     3    85    86    1
     4     9    10    1
     5    86    89    1
     6    81    80    2
     7    10    11    1
     8    10    13    1
     9    80    79    1
    10     4     3    2
    11    89    90    1
    12    11    12    2
    13    13    14    1
    14    73    72    2
    15    92    90    1
    16     3     2    1
    17    90    91    1
    18     2     1    1
    19     2     5    1
    20    14    15    1
    21    79    78    1
    22    79    82    1
    23    84    82    1
    24    72    78   am
    25    72    71    1
    26     8     6    1
    27    82    83    1
    28    71    70    1
    29    71    74    1
    30     5     6    1
    31    15    16    1
    32     6     7    1
    33    47    48    1
    34    74    75    1
    35    76    75    1
    36    75    77    1
    37    67    66    2
    38    17    18    1
    39    51    48    1
    40    51    52    1
    41    24    23    2
    42    48    49    1
    43    66    65    1
    44    54    52   ar
    45    50    49    2
    46    52    53   ar
    47    20    19    2
    48    49    55   am
    49    18    19    1
    50    18    21    1
    51    69    68    1
    52    23    22    1
    53    23    25   am
    54    22    21    1
    55    65    68    1
    56    65    64    1
    57    64    57   am
    58    55    56    1
    59    26    27    1
    60    57    58    2
    61    57    56    1
    62    56    59    1
    63    27    28    1
    64    27    30    1
    65    28    29    2
    66    59    60    1
    67    30    31    1
    68    32    31    1
    69    60    61    1
    70    31    33    1
    71    61    62    1
    72    41    39    1
    73    62    63    1
    74    46    43    1
    75    39    38    1
    76    40    38    1
    77    38    35    1
    78    43    44    1
    79    43    42    1
    80    44    45    2
    81    35    34    1
    82    35    36    1
    83    36    37    2
