@<TRIPOS>MOLECULE
tmp/5qijA01.pdb
 141 134 0 0 0
SMALL
GASTEIGER

@<TRIPOS>ATOM
      1  N         17.8460   23.8010   40.6040 N.3   100  THR100     -0.1203
      2  CA        16.4910   24.3070   40.8260 C.3   100  THR100      0.1994
      3  C         15.9960   23.8260   42.1810 C.2   100  THR100      0.2619
      4  O         16.2870   22.6920   42.5990 O.2   100  THR100     -0.2717
      5  CB        15.5060   23.9920   39.6660 C.3   100  THR100      0.1784
      6  OG1       15.7400   22.6970   39.0890 O.3   100  THR100     -0.2211
      7  CG2       15.5040   25.0570   38.6020 C.3   100  THR100      0.0376
      8  N         15.2620   24.6990   42.8730 N.am  101  SER101     -0.1937
      9  CA        14.6740   24.3850   44.1780 C.3   101  SER101      0.2055
     10  C         13.1560   24.4780   44.0680 C.2   101  SER101      0.2642
     11  O         12.6620   25.3300   43.3260 O.2   101  SER101     -0.2714
     12  CB        15.2040   25.3380   45.2410 C.3   101  SER101      0.2130
     13  OG        15.0460   26.6840   44.8250 O.3   101  SER101     -0.2179
     14  N         12.4210   23.5750   44.7650 N.am  102  LEU102     -0.1977
     15  CA        10.9460   23.5200   44.7880 C.3   102  LEU102      0.1596
     16  C         10.3820   24.8320   45.3090 C.2   102  LEU102      0.2287
     17  O         10.6010   25.1910   46.4690 O.2   102  LEU102     -0.2864
     18  CB        10.4360   22.3750   45.6940 C.3   102  LEU102      0.0297
     19  CG        10.2860   20.9400   45.1730 C.3   102  LEU102      0.0022
     20  CD1        9.4370   20.8710   43.9650 C.3   102  LEU102      0.0001
     21  CD2       11.6200   20.2460   44.9740 C.3   102  LEU102      0.0001
     22  N         11.8740   13.4300   33.0230 N.3   146  SER146     -0.1202
     23  CA        11.1670   13.1120   34.2610 C.3   146  SER146      0.2020
     24  C          9.6810   12.9100   33.9990 C.2   146  SER146      0.2619
     25  O          9.2130   13.2060   32.8960 O.2   146  SER146     -0.2717
     26  CB        11.2900   14.2910   35.2190 C.3   146  SER146      0.2103
     27  OG        12.4580   15.0450   34.9570 O.3   146  SER146     -0.2182
     28  N          8.9220   12.4770   35.0380 N.am  147  LEU147     -0.1965
     29  CA         7.4510   12.4010   35.0070 C.3   147  LEU147      0.1728
     30  C          6.9280   13.8310   34.7280 C.2   147  LEU147      0.2616
     31  O          6.0080   13.9940   33.9240 O.2   147  LEU147     -0.2715
     32  CB         6.8630   11.8790   36.3410 C.3   147  LEU147      0.0311
     33  CG         7.3040   10.4880   36.8390 C.3   147  LEU147      0.0022
     34  CD1        6.5460   10.0960   38.0960 C.3   147  LEU147      0.0001
     35  CD2        7.1210    9.4140   35.7840 C.3   147  LEU147      0.0001
     36  N          7.6140   14.8540   35.2920 N.am  148  ALA148     -0.1977
     37  CA         7.3840   16.2870   35.1010 C.3   148  ALA148      0.1597
     38  C          7.6160   16.7380   33.6270 C.2   148  ALA148      0.2287
     39  O          7.3840   17.9040   33.2930 O.2   148  ALA148     -0.2864
     40  CB         8.2840   17.0800   36.0340 C.3   148  ALA148      0.0319
     41  N          3.0300   19.0670   37.9310 N.3   153  GLN153     -0.1245
     42  CA         2.9270   19.1540   39.4030 C.3   153  GLN153      0.1566
     43  C          3.3070   20.5380   39.8810 C.2   153  GLN153      0.2260
     44  O          4.1150   21.1930   39.2220 O.2   153  GLN153     -0.2867
     45  CB         3.8450   18.1760   40.1240 C.3   153  GLN153      0.0367
     46  CG         3.5250   16.7260   39.9790 C.3   153  GLN153      0.0905
     47  CD         4.8180   16.1440   39.5230 C.2   153  GLN153      0.2608
     48  OE1        4.9450   15.5580   38.4440 O.2   153  GLN153     -0.2717
     49  NE2        5.8320   16.3610   40.3230 N.am  153  GLN153     -0.0878
     50  N          5.2210   23.6620   42.0060 N.3   155  MET155     -0.1230
     51  CA         6.5220   24.1550   42.4690 C.3   155  MET155      0.1702
     52  C          7.7270   23.8990   41.5290 C.2   155  MET155      0.2592
     53  O          8.8560   24.2620   41.8790 O.2   155  MET155     -0.2718
     54  CB         6.8130   23.6340   43.8910 C.3   155  MET155      0.0401
     55  CG         5.6640   23.9270   44.8520 C.3   155  MET155      0.0596
     56  SD         5.8060   23.1870   46.4970 S.3   155  MET155     -0.1393
     57  CE         7.0240   24.3190   47.2290 C.3   155  MET155      0.0692
     58  N          7.4890   23.3390   40.3280 N.am  156  ILE156     -0.1980
     59  CA         8.5620   23.0040   39.3820 C.3   156  ILE156      0.1595
     60  C          8.2590   23.4370   37.9400 C.2   156  ILE156      0.2287
     61  O          8.6650   22.7370   37.0090 O.2   156  ILE156     -0.2864
     62  CB         8.9330   21.4870   39.4740 C.3   156  ILE156      0.0276
     63  CG1        7.7790   20.5410   39.0870 C.3   156  ILE156      0.0022
     64  CG2        9.4750   21.1320   40.8320 C.3   156  ILE156      0.0022
     65  CD1        8.2800   19.2150   38.6150 C.3   156  ILE156      0.0001
     66  N          9.4440   26.0090   35.7610 N.3   158  PRO158     -0.2102
     67  CA        10.5240   26.1400   34.7540 C.3   158  PRO158      0.1504
     68  C         11.1490   24.8010   34.3450 C.2   158  PRO158      0.2575
     69  O         11.3800   24.5640   33.1670 O.2   158  PRO158     -0.2718
     70  CB        11.5360   27.0820   35.4370 C.3   158  PRO158      0.0282
     71  CG        10.7380   27.8000   36.4680 C.3   158  PRO158      0.0208
     72  CD         9.7730   26.7870   36.9760 C.3   158  PRO158      0.0893
     73  N         11.3870   23.9260   35.3190 N.am  159  TYR159     -0.1977
     74  CA        11.9560   22.5930   35.1460 C.3   159  TYR159      0.1639
     75  C         11.0410   21.7380   34.2380 C.2   159  TYR159      0.2290
     76  O         11.5030   21.1540   33.2550 O.2   159  TYR159     -0.2864
     77  CB        12.1350   21.9440   36.5330 C.3   159  TYR159      0.0560
     78  CG        12.6330   20.5180   36.4910 C.ar  159  TYR159     -0.0198
     79  CD1       13.9850   20.2370   36.3100 C.ar  159  TYR159     -0.0009
     80  CD2       11.7520   19.4440   36.6200 C.ar  159  TYR159     -0.0009
     81  CE1       14.4480   18.9270   36.2600 C.ar  159  TYR159      0.0417
     82  CE2       12.2040   18.1280   36.5660 C.ar  159  TYR159      0.0417
     83  CZ        13.5540   17.8760   36.3940 C.ar  159  TYR159      0.1957
     84  OH        14.0040   16.5820   36.3870 O.3   159  TYR159     -0.2866
     85  N         11.8710    9.5830   34.1280 N.3   191  LEU191     -0.1231
     86  CA        12.1990    9.1460   35.4710 C.3   191  LEU191      0.1693
     87  C         11.3130    9.6770   36.5450 C.2   191  LEU191      0.2593
     88  O         10.9490   10.8520   36.5530 O.2   191  LEU191     -0.2718
     89  CB        13.6740    9.4670   35.8130 C.3   191  LEU191      0.0284
     90  CG        14.7810    9.1210   34.7940 C.3   191  LEU191      0.0019
     91  CD1       16.1200    9.5340   35.3280 C.3   191  LEU191      0.0001
     92  CD2       14.8000    7.6300   34.4420 C.3   191  LEU191      0.0001
     93  N         11.0080    8.7900   37.4850 N.am  192  GLY192     -0.1942
     94  CA        10.2890    9.1370   38.7030 C.3   192  GLY192      0.2014
     95  C         11.2990    9.6920   39.6910 C.2   192  GLY192      0.2638
     96  O         12.4490    9.9470   39.3140 O.2   192  GLY192     -0.2714
     97  N         10.9010    9.8580   40.9570 N.am  193  LEU193     -0.1977
     98  CA        11.7930   10.3510   42.0050 C.3   193  LEU193      0.1596
     99  C         12.9070    9.3140   42.3100 C.2   193  LEU193      0.2287
    100  O         12.6270    8.1210   42.4810 O.2   193  LEU193     -0.2864
    101  CB        11.0080   10.7300   43.2550 C.3   193  LEU193      0.0297
    102  CG        11.6330   11.8590   44.0610 C.3   193  LEU193      0.0022
    103  CD1       11.1370   13.2400   43.5680 C.3   193  LEU193      0.0001
    104  CD2       11.3680   11.6630   45.5430 C.3   193  LEU193      0.0001
    105  N         20.9810   15.2850   46.0710 N.3   198  THR198     -0.1203
    106  CA        20.4260   16.5240   45.5270 C.3   198  THR198      0.1994
    107  C         18.8730   16.5050   45.4770 C.2   198  THR198      0.2617
    108  O         18.2400   17.4750   45.8960 O.2   198  THR198     -0.2717
    109  CB        21.0730   16.8000   44.1560 C.3   198  THR198      0.1784
    110  OG1       22.2580   15.9940   44.0000 O.3   198  THR198     -0.2211
    111  CG2       21.4180   18.2540   43.9730 C.3   198  THR198      0.0376
    112  N         18.2750   15.3940   45.0000 N.am  199  ALA199     -0.1979
    113  CA        16.8220   15.2140   44.9250 C.3   199  ALA199      0.1597
    114  C         16.1890   15.1610   46.3220 C.2   199  ALA199      0.2287
    115  O         15.2530   15.9240   46.5900 O.2   199  ALA199     -0.2864
    116  CB        16.4880   13.9410   44.1640 C.3   199  ALA199      0.0319
    117  N         16.0040   18.4220   48.3140 N.3   202  GLU202     -0.1231
    118  CA        15.0810   19.4200   47.7630 C.3   202  GLU202      0.1699
    119  C         13.6060   19.1490   48.1490 C.2   202  GLU202      0.2592
    120  O         12.8620   20.0760   48.4780 O.2   202  GLU202     -0.2718
    121  CB        15.2530   19.4710   46.2380 C.3   202  GLU202      0.0402
    122  CG        15.2640   20.8760   45.6730 C.3   202  GLU202      0.1161
    123  CD        16.4200   21.7500   46.1060 C.2   202  GLU202      0.3649
    124  OE1       17.5750   21.4490   45.7290 O.co2 202  GLU202     -0.2457
    125  OE2       16.1650   22.7430   46.8220 O.co2 202  GLU202     -0.2457
    126  N         13.2060   17.8740   48.1120 N.am  203  ILE203     -0.1980
    127  CA        11.8510   17.4370   48.4180 C.3   203  ILE203      0.1595
    128  C         11.6260   17.2630   49.9350 C.2   203  ILE203      0.2287
    129  O         10.4750   17.0780   50.3570 O.2   203  ILE203     -0.2864
    130  CB        11.4540   16.1760   47.5940 C.3   203  ILE203      0.0276
    131  CG1       12.2670   14.9360   48.0130 C.3   203  ILE203      0.0022
    132  CG2       11.5440   16.4310   46.0860 C.3   203  ILE203      0.0022
    133  CD1       11.4520   13.8640   48.5430 C.3   203  ILE203      0.0001
    134  N          7.6940   17.2040   49.8230 N.3   207  ILE207     -0.1245
    135  CA         7.0990   16.0380   49.1610 C.3   207  ILE207      0.1561
    136  C          7.3980   14.7790   49.9520 C.2   207  ILE207      0.2260
    137  O          8.5240   14.6010   50.4260 O.2   207  ILE207     -0.2867
    138  CB         7.4890   15.9480   47.6430 C.3   207  ILE207      0.0252
    139  CG1        6.9070   17.1470   46.8650 C.3   207  ILE207      0.0019
    140  CG2        7.0490   14.6140   46.9880 C.3   207  ILE207      0.0019
    141  CD1        7.6140   17.4990   45.6400 C.3   207  ILE207      0.0001
@<TRIPOS>BOND
     1    25    24    2
     2    22    23    1
     3    69    68    2
     4    76    75    2
     5    39    38    2
     6    38    37    1
     7    31    30    2
     8    24    23    1
     9    24    28   am
    10    85    86    1
    11    75    74    1
    12    23    26    1
    13    68    67    1
    14    68    73   am
    15    92    90    1
    16    30    29    1
    17    30    36   am
    18    67    70    1
    19    67    66    1
    20    90    91    1
    21    90    89    1
    22    27    26    1
    23    29    28    1
    24    29    32    1
    25    37    36    1
    26    37    40    1
    27    74    73    1
    28    74    77    1
    29    70    71    1
    30    86    89    1
    31    86    87    1
    32    66    72    1
    33    35    33    1
    34    81    79   ar
    35    81    83   ar
    36    79    78   ar
    37    32    33    1
    38    84    83    1
    39    83    82   ar
    40    71    72    1
    41    78    77    1
    42    78    80   ar
    43    87    88    2
    44    87    93   am
    45    82    80   ar
    46    33    34    1
    47    61    60    2
    48    93    94    1
    49    41    42    1
    50    60    59    1
    51    48    47    2
    52     7     5    1
    53    65    63    1
    54    94    95    1
    55    63    62    1
    56     6     5    1
    57    44    43    2
    58    96    95    2
    59    59    62    1
    60    59    58    1
    61    42    43    1
    62    42    45    1
    63    62    64    1
    64    47    46    1
    65    47    49   am
    66     5     2    1
    67    95    97   am
    68    46    45    1
    69    58    52   am
    70     1     2    1
    71     2     3    1
    72    97    98    1
    73    52    53    2
    74    52    51    1
    75    98    99    1
    76    98   101    1
    77    50    51    1
    78     3     4    2
    79     3     8   am
    80    99   100    2
    81    51    54    1
    82     8     9    1
    83   101   102    1
    84    11    10    2
    85   103   102    1
    86    54    55    1
    87    20    19    1
    88   111   109    1
    89   110   109    1
    90   102   104    1
    91    10     9    1
    92    10    14   am
    93   109   106    1
    94   116   113    1
    95     9    12    1
    96    14    15    1
    97    15    16    1
    98    15    18    1
    99    13    12    1
   100    55    56    1
   101   113   112    1
   102   113   114    1
   103    21    19    1
   104   112   107   am
   105    19    18    1
   106    16    17    2
   107   107   106    1
   108   107   108    2
   109   106   105    1
   110   141   139    1
   111   122   123    1
   112   122   121    1
   113   124   123   ar
   114   132   130    1
   115   123   125   ar
   116   121   118    1
   117   114   115    2
   118    56    57    1
   119   139   138    1
   120   140   138    1
   121   130   131    1
   122   130   127    1
   123   138   135    1
   124   118   119    1
   125   118   117    1
   126   131   133    1
   127   126   119   am
   128   126   127    1
   129   119   120    2
   130   127   128    1
   131   135   134    1
   132   135   136    1
   133   128   129    2
   134   136   137    2
