@<TRIPOS>MOLECULE
tmp/5qikA00.pdb
 208 199 0 0 0
SMALL
GASTEIGER

@<TRIPOS>ATOM
      1  N         -3.5040   12.1620    3.6000 N.3    15  ILE15      -0.1245
      2  CA        -3.3150   10.7210    3.7950 C.3    15  ILE15       0.1561
      3  C         -2.8260   10.3720    5.2060 C.2    15  ILE15       0.2260
      4  O         -2.3270    9.2560    5.4290 O.2    15  ILE15      -0.2867
      5  CB        -2.4350   10.0700    2.6900 C.3    15  ILE15       0.0252
      6  CG1       -0.9790   10.5500    2.7470 C.3    15  ILE15       0.0019
      7  CG2       -3.0470   10.2780    1.2870 C.3    15  ILE15       0.0019
      8  CD1       -0.0350    9.9700    1.6720 C.3    15  ILE15       0.0001
      9  N         -1.0790   11.3560    9.2290 N.3    17  LYS17      -0.1231
     10  CA        -0.1590   12.1620   10.0170 C.3    17  LYS17       0.1693
     11  C          1.0270   11.3680   10.4990 C.2    17  LYS17       0.2592
     12  O          0.9890   10.1260   10.5820 O.2    17  LYS17      -0.2718
     13  CB        -0.8920   12.7780   11.2190 C.3    17  LYS17       0.0285
     14  CG        -1.3540   11.7480   12.2640 C.3    17  LYS17       0.0035
     15  CD        -1.9300   12.3930   13.5190 C.3    17  LYS17       0.0206
     16  CE        -2.1660   11.3880   14.6260 C.3    17  LYS17       0.1093
     17  NZ        -0.8940   10.8000   15.1430 N.3    17  LYS17      -0.1314
     18  N          2.0750   12.0980   10.8240 N.am   18  GLY18      -0.1957
     19  CA         3.2460   11.4820   11.4160 C.3    18  GLY18       0.1869
     20  C          3.1780   11.7580   12.8970 C.2    18  GLY18       0.2309
     21  O          2.2070   12.3440   13.3910 O.2    18  GLY18      -0.2863
     22  N          0.5330   14.3820    6.6220 N.3    23  VAL23      -0.1245
     23  CA         0.9630   13.7130    5.4220 C.3    23  VAL23       0.1561
     24  C         -0.0470   13.8520    4.2850 C.2    23  VAL23       0.2260
     25  O         -1.2600   13.7420    4.4830 O.2    23  VAL23      -0.2867
     26  CB         1.3440   12.2250    5.7200 C.3    23  VAL23       0.0252
     27  CG1        1.9370   11.5720    4.4890 C.3    23  VAL23       0.0019
     28  CG2        2.3430   12.1310    6.8960 C.3    23  VAL23       0.0019
     29  N          4.9410   11.3180   -1.5040 N.3    34  ALA34      -0.1245
     30  CA         4.2930   11.5940   -0.2130 C.3    34  ALA34       0.1562
     31  C          5.0090   12.7810    0.3760 C.2    34  ALA34       0.2260
     32  O          6.2430   12.9060    0.2620 O.2    34  ALA34      -0.2867
     33  CB         4.4150   10.3990    0.7420 C.3    34  ALA34       0.0290
     34  N          5.3020   15.2210    3.9020 N.3    36  LYS36      -0.1245
     35  CA         4.9780   15.4520    5.3110 C.3    36  LYS36       0.1561
     36  C          5.2480   16.9280    5.5720 C.2    36  LYS36       0.2260
     37  O          6.3470   17.4370    5.3040 O.2    36  LYS36      -0.2867
     38  CB         5.7690   14.5160    6.2190 C.3    36  LYS36       0.0271
     39  CG         5.2900   14.6610    7.6640 C.3    36  LYS36       0.0035
     40  CD         5.6420   13.4800    8.5520 C.3    36  LYS36       0.0206
     41  CE         7.1170   13.1840    8.6320 C.3    36  LYS36       0.1093
     42  NZ         7.3620   12.1770    9.7150 N.3    36  LYS36      -0.1314
     43  N         14.4910   15.2070   11.4940 N.3    49  GLU49      -0.1245
     44  CA        14.1160   14.1170   10.5900 C.3    49  GLU49       0.1567
     45  C         14.8370   14.2270    9.2350 C.2    49  GLU49       0.2260
     46  O         15.3470   13.2320    8.7110 O.2    49  GLU49      -0.2867
     47  CB        12.6010   14.0430   10.4260 C.3    49  GLU49       0.0388
     48  CG        12.1750   12.6920    9.8570 C.3    49  GLU49       0.1160
     49  CD        10.7000   12.3630    9.9380 C.2    49  GLU49       0.3649
     50  OE1        9.9230   13.1950   10.4550 O.co2  49  GLU49      -0.2457
     51  OE2       10.3420   11.2300    9.5430 O.co2  49  GLU49      -0.2457
     52  N         17.4430   11.4550    7.6050 N.3    53  TYR53      -0.1241
     53  CA        17.3000   10.9200    6.2670 C.3    53  TYR53       0.1605
     54  C         18.4670   11.2120    5.3580 C.2    53  TYR53       0.2264
     55  O         18.6620   10.4810    4.3850 O.2    53  TYR53      -0.2867
     56  CB        16.0090   11.3750    5.6420 C.3    53  TYR53       0.0534
     57  CG        14.8430   10.4710    5.9720 C.ar   53  TYR53      -0.0201
     58  CD1       14.7440    9.1950    5.4140 C.ar   53  TYR53      -0.0009
     59  CD2       13.8180   10.9050    6.7950 C.ar   53  TYR53      -0.0009
     60  CE1       13.6430    8.3790    5.6610 C.ar   53  TYR53       0.0417
     61  CE2       12.7480   10.0670    7.1130 C.ar   53  TYR53       0.0417
     62  CZ        12.6600    8.8110    6.5290 C.ar   53  TYR53       0.1957
     63  OH        11.5650    8.0170    6.7500 O.3    53  TYR53      -0.2866
     64  N         12.2410    3.8150    4.0490 N.3    64  LEU64      -0.1245
     65  CA        11.4990    4.6990    3.1430 C.3    64  LEU64       0.1561
     66  C         12.4480    5.6160    2.3550 C.2    64  LEU64       0.2260
     67  O         13.3760    6.2050    2.9280 O.2    64  LEU64      -0.2867
     68  CB        10.5140    5.5470    3.9410 C.3    64  LEU64       0.0270
     69  CG         9.7110    6.5820    3.1320 C.3    64  LEU64       0.0019
     70  CD1        8.7650    5.9030    2.0860 C.3    64  LEU64       0.0001
     71  CD2        8.9110    7.4780    4.0580 C.3    64  LEU64       0.0001
     72  N         13.8870    8.6180    0.8130 N.3    66  PHE66      -0.1241
     73  CA        13.7910   10.0580    1.0270 C.3    66  PHE66       0.1605
     74  C         14.1050   10.7870   -0.2640 C.2    66  PHE66       0.2264
     75  O         15.0990   10.4570   -0.9270 O.2    66  PHE66      -0.2867
     76  CB        14.7910   10.4670    2.1140 C.3    66  PHE66       0.0534
     77  CG        15.0540   11.9450    2.2550 C.ar   66  PHE66      -0.0203
     78  CD1       14.1830   12.7530    2.9720 C.ar   66  PHE66      -0.0042
     79  CD2       16.1850   12.5160    1.6880 C.ar   66  PHE66      -0.0042
     80  CE1       14.4850   14.1060    3.1770 C.ar   66  PHE66      -0.0003
     81  CE2       16.4720   13.8730    1.8770 C.ar   66  PHE66      -0.0003
     82  CZ        15.6230   14.6390    2.6280 C.ar   66  PHE66      -0.0000
     83  N          8.9370   17.5010    4.0330 N.3    82  LEU82      -0.1231
     84  CA         9.7640   16.3190    3.8240 C.3    82  LEU82       0.1693
     85  C          9.0510   15.5530    2.7270 C.2    82  LEU82       0.2592
     86  O          7.8420   15.3010    2.8450 O.2    82  LEU82      -0.2718
     87  CB         9.8760   15.4030    5.0420 C.3    82  LEU82       0.0284
     88  CG        10.5690   15.9680    6.2540 C.3    82  LEU82       0.0019
     89  CD1       10.5940   14.8890    7.3420 C.3    82  LEU82       0.0001
     90  CD2       12.0090   16.4320    5.9030 C.3    82  LEU82       0.0001
     91  N          9.7690   15.1880    1.6710 N.am   83  VAL83      -0.1966
     92  CA         9.1790   14.4830    0.5260 C.3    83  VAL83       0.1727
     93  C          9.8060   13.1140    0.4190 C.2    83  VAL83       0.2617
     94  O         11.0240   13.0110    0.5010 O.2    83  VAL83      -0.2715
     95  CB         9.4120   15.2680   -0.7950 C.3    83  VAL83       0.0290
     96  CG1        8.6600   14.6200   -1.9580 C.3    83  VAL83       0.0023
     97  CG2        9.0170   16.7440   -0.6360 C.3    83  VAL83       0.0023
     98  N          8.9740   12.0920    0.1990 N.am   84  SER84      -0.1936
     99  CA         9.4500   10.7160    0.0690 C.3    84  SER84       0.2055
    100  C          8.7250    9.9940   -1.0490 C.2    84  SER84       0.2643
    101  O          7.7320   10.4880   -1.6000 O.2    84  SER84      -0.2714
    102  CB         9.1670    9.9450    1.3580 C.3    84  SER84       0.2130
    103  OG         7.7780    9.6150    1.4680 O.3    84  SER84      -0.2179
    104  N          9.1710    8.7620   -1.3120 N.am   85  ASP85      -0.1957
    105  CA         8.4560    7.8790   -2.2320 C.3    85  ASP85       0.1840
    106  C          7.0310    7.6990   -1.6820 C.2    85  ASP85       0.2622
    107  O          6.8210    7.7340   -0.4660 O.2    85  ASP85      -0.2715
    108  CB         9.0800    6.4860   -2.1780 C.3    85  ASP85       0.1450
    109  CG        10.4720    6.3880   -2.7760 C.2    85  ASP85       0.3671
    110  OD1       10.8980    7.3540   -3.4610 O.co2  85  ASP85      -0.2456
    111  OD2       11.1360    5.3310   -2.5700 O.co2  85  ASP85      -0.2456
    112  N          6.0710    7.4620   -2.5740 N.am   86  TYR86      -0.1960
    113  CA         4.6950    7.2350   -2.1690 C.3    86  TYR86       0.1771
    114  C          4.3880    5.7420   -2.2700 C.2    86  TYR86       0.2620
    115  O          4.7330    5.1090   -3.2760 O.2    86  TYR86      -0.2715
    116  CB         3.7530    8.0190   -3.0920 C.3    86  TYR86       0.0574
    117  CG         2.3010    7.6810   -2.8900 C.ar   86  TYR86      -0.0198
    118  CD1        1.5990    8.1600   -1.7850 C.ar   86  TYR86      -0.0009
    119  CD2        1.6270    6.8740   -3.7980 C.ar   86  TYR86      -0.0009
    120  CE1        0.2580    7.8240   -1.5860 C.ar   86  TYR86       0.0417
    121  CE2        0.2830    6.5590   -3.6260 C.ar   86  TYR86       0.0417
    122  CZ        -0.3890    7.0340   -2.5180 C.ar   86  TYR86       0.1957
    123  OH        -1.7050    6.6940   -2.3370 O.3    86  TYR86      -0.2866
    124  N          3.7600    5.1920   -1.2180 N.am   87  HIS87      -0.1959
    125  CA         3.3620    3.7790   -1.2390 C.3    87  HIS87       0.1787
    126  C          1.8340    3.7020   -1.0630 C.2    87  HIS87       0.2620
    127  O          1.3160    4.0570   -0.0140 O.2    87  HIS87      -0.2715
    128  CB         4.1390    2.9670   -0.1660 C.3    87  HIS87       0.0785
    129  CG         5.6080    2.9700   -0.4500 C.ar   87  HIS87       0.0821
    130  ND1        6.1150    2.3920   -1.6060 N.ar   87  HIS87      -0.2267
    131  CD2        6.6280    3.5290    0.2430 C.ar   87  HIS87       0.1154
    132  CE1        7.4310    2.5730   -1.5520 C.ar   87  HIS87       0.1986
    133  NE2        7.7870    3.2540   -0.4650 N.ar   87  HIS87      -0.2212
    134  N          1.1340    3.2320   -2.1070 N.am   88  GLU88      -0.1963
    135  CA        -0.3360    3.1550   -2.1320 C.3    88  GLU88       0.1733
    136  C         -0.9500    2.3610   -0.9690 C.2    88  GLU88       0.2616
    137  O         -2.0150    2.7470   -0.4880 O.2    88  GLU88      -0.2715
    138  CB        -0.7950    2.5570   -3.4800 C.3    88  GLU88       0.0429
    139  CG        -2.2800    2.7070   -3.7720 C.3    88  GLU88       0.1163
    140  CD        -2.7390    2.0940   -5.0860 C.2    88  GLU88       0.3649
    141  OE1       -3.9500    1.7960   -5.2040 O.co2  88  GLU88      -0.2457
    142  OE2       -1.8900    1.8820   -5.9840 O.co2  88  GLU88      -0.2457
    143  N         -0.2890    1.3040   -0.5090 N.am   89  HIS89      -0.1959
    144  CA        -0.8240    0.5060    0.6300 C.3    89  HIS89       0.1787
    145  C         -0.7680    1.2130    1.9710 C.2    89  HIS89       0.2621
    146  O         -1.4660    0.8040    2.9020 O.2    89  HIS89      -0.2715
    147  CB        -0.0730   -0.8120    0.8030 C.3    89  HIS89       0.0785
    148  CG        -0.3660   -1.8280   -0.2550 C.ar   89  HIS89       0.0821
    149  ND1       -1.6770   -2.1100   -0.6440 N.ar   89  HIS89      -0.2267
    150  CD2        0.4740   -2.6180   -0.9570 C.ar   89  HIS89       0.1154
    151  CE1       -1.5790   -3.0290   -1.5930 C.ar   89  HIS89       0.1986
    152  NE2       -0.3180   -3.3880   -1.8010 N.ar   89  HIS89      -0.2212
    153  N          0.0310    2.2700    2.0840 N.am   90  GLY90      -0.1940
    154  CA         0.1600    2.9410    3.3650 C.3    90  GLY90       0.2014
    155  C          0.8710    2.0680    4.3820 C.2    90  GLY90       0.2639
    156  O          1.7660    1.2920    4.0410 O.2    90  GLY90      -0.2714
    157  N          0.5050    2.2170    5.6590 N.am   91  SER91      -0.1949
    158  CA         1.2130    1.5090    6.6970 C.3    91  SER91       0.1924
    159  C          0.9000    0.0200    6.7760 C.2    91  SER91       0.2314
    160  O         -0.1590   -0.4530    6.3290 O.2    91  SER91      -0.2863
    161  CB         0.9110    2.1510    8.0520 C.3    91  SER91       0.2116
    162  OG        -0.4380    1.8960    8.4160 O.3    91  SER91      -0.2180
    163  N         -2.3740   -0.3840    8.4110 N.3    94  ASP94      -0.1239
    164  CA        -3.4960   -0.3440    7.4720 C.3    94  ASP94       0.1674
    165  C         -3.6270   -1.6430    6.6680 C.2    94  ASP94       0.2266
    166  O         -4.7290   -2.1890    6.5180 O.2    94  ASP94      -0.2867
    167  CB        -3.3090    0.8320    6.5090 C.3    94  ASP94       0.1410
    168  CG        -3.4400    2.2360    7.0760 C.2    94  ASP94       0.3668
    169  OD1       -3.7890    2.3740    8.2650 O.co2  94  ASP94      -0.2456
    170  OD2       -3.1170    3.1900    6.3520 O.co2  94  ASP94      -0.2456
    171  N          2.3250    1.2000   12.6250 N.3   141  LYS141     -0.1231
    172  CA         1.8780    2.4660   11.9930 C.3   141  LYS141      0.1693
    173  C          3.0110    3.2390   11.3120 C.2   141  LYS141      0.2592
    174  O          2.7070    4.1380   10.4900 O.2   141  LYS141     -0.2718
    175  CB         1.1390    3.3580   12.9910 C.3   141  LYS141      0.0285
    176  CG        -0.2790    2.8540   13.2600 C.3   141  LYS141      0.0035
    177  CD        -0.9350    3.6250   14.3830 C.3   141  LYS141      0.0206
    178  CE        -2.2860    3.0130   14.6720 C.3   141  LYS141      0.1093
    179  NZ        -2.7080    3.3660   16.0530 N.3   141  LYS141     -0.1314
    180  N          4.2850    2.9230   11.5660 N.am  142  ASN142     -0.1974
    181  CA         5.2470    3.7210   10.8020 C.3   142  ASN142      0.1688
    182  C          6.1350    2.8420    9.9150 C.2   142  ASN142      0.2292
    183  O          7.1830    3.2870    9.4550 O.2   142  ASN142     -0.2864
    184  CB         6.0180    4.6940   11.6750 C.3   142  ASN142      0.1181
    185  CG         6.6910    4.0870   12.8600 C.2   142  ASN142      0.2629
    186  OD1        7.0550    2.9150   12.8660 O.2   142  ASN142     -0.2716
    187  ND2        6.8440    4.8830   13.8960 N.am  142  ASN142     -0.0877
    188  N          5.7880    0.9620    6.2670 N.3   144  LEU144     -0.1245
    189  CA         4.9420    1.0870    5.0820 C.3   144  LEU144      0.1561
    190  C          5.0790   -0.1770    4.2390 C.2   144  LEU144      0.2260
    191  O          6.1170   -0.8340    4.2780 O.2   144  LEU144     -0.2867
    192  CB         5.3520    2.3180    4.2390 C.3   144  LEU144      0.0270
    193  CG         5.3220    3.6320    5.0220 C.3   144  LEU144      0.0019
    194  CD1        5.9380    4.7240    4.2550 C.3   144  LEU144      0.0001
    195  CD2        3.8810    4.0180    5.3700 C.3   144  LEU144      0.0001
    196  N          9.6710    3.8590    8.2020 N.3   154  ALA154     -0.1231
    197  CA         9.4960    5.3010    8.0430 C.3   154  ALA154      0.1694
    198  C          9.4640    5.9940    9.4280 C.2   154  ALA154      0.2592
    199  O          9.6730    5.3530   10.4570 O.2   154  ALA154     -0.2718
    200  CB         8.1910    5.5770    7.2940 C.3   154  ALA154      0.0304
    201  N          9.2430    7.3140    9.4320 N.am  155  ASP155     -0.1974
    202  CA         9.1390    8.1790   10.6110 C.3   155  ASP155      0.1709
    203  C         10.3690    8.0590   11.5090 C.2   155  ASP155      0.2293
    204  O         10.3310    7.5610   12.6360 O.2   155  ASP155     -0.2864
    205  CB         7.8200    7.9690   11.3740 C.3   155  ASP155      0.1436
    206  CG         7.3950    9.2830   12.0410 C.2   155  ASP155      0.3671
    207  OD1        8.2860   10.1550   12.2750 O.co2 155  ASP155     -0.2456
    208  OD2        6.1790    9.4970   12.2070 O.co2 155  ASP155     -0.2456
@<TRIPOS>BOND
     1   142   140   ar
     2   141   140   ar
     3   140   139    1
     4   119   121   ar
     5   119   117   ar
     6   139   138    1
     7   121   122   ar
     8   138   135    1
     9   110   109   ar
    10   115   114    2
    11   116   117    1
    12   116   113    1
    13   117   118   ar
    14   109   111   ar
    15   109   108    1
    16   112   113    1
    17   112   106   am
    18   122   123    1
    19   122   120   ar
    20   114   113    1
    21   114   124   am
    22   105   108    1
    23   105   106    1
    24   105   104    1
    25   135   134    1
    26   135   136    1
    27   134   126   am
    28    96    95    1
    29   152   151   ar
    30   152   150   ar
    31   118   120   ar
    32   106   107    2
    33   130   132   ar
    34   130   129   ar
    35   101   100    2
    36   151   149   ar
    37   132   133   ar
    38    29    30    1
    39   104   100   am
    40   125   124    1
    41   125   126    1
    42   125   128    1
    43   126   127    2
    44   100    99    1
    45   136   143   am
    46   136   137    2
    47   150   148   ar
    48    75    74    2
    49    95    97    1
    50    95    92    1
    51   149   148   ar
    52   143   144    1
    53   133   131   ar
    54   129   128    1
    55   129   131   ar
    56    74    73    1
    57   148   147    1
    58    30    31    1
    59    30    33    1
    60    99    98    1
    61    99   102    1
    62    98    93   am
    63    32    31    2
    64    93    94    2
    65    93    92    1
    66    92    91    1
    67   144   147    1
    68   144   145    1
    69    72    73    1
    70    73    76    1
    71     7     5    1
    72   102   103    1
    73    91    85   am
    74     8     6    1
    75    79    81   ar
    76    79    77   ar
    77    81    82   ar
    78   145   153   am
    79   145   146    2
    80   153   154    1
    81    70    69    1
    82    76    77    1
    83    77    78   ar
    84    66    67    2
    85    66    65    1
    86    82    80   ar
    87     5     6    1
    88     5     2    1
    89    85    86    2
    90    85    84    1
    91    78    80   ar
    92    69    68    1
    93    69    71    1
    94    65    68    1
    95    65    64    1
    96   154   155    1
    97     1     2    1
    98     2     3    1
    99    84    83    1
   100    84    87    1
   101    34    35    1
   102   156   155    2
   103   190   191    2
   104   190   189    1
   105   192   193    1
   106   192   189    1
   107   194   193    1
   108    24    25    2
   109    24    23    1
   110   155   157   am
   111    55    54    2
   112    27    26    1
   113   193   195    1
   114    87    88    1
   115   189   188    1
   116     3     4    2
   117    37    36    2
   118    35    36    1
   119    35    38    1
   120    54    53    1
   121    58    60   ar
   122    58    57   ar
   123    23    26    1
   124    23    22    1
   125    56    57    1
   126    56    53    1
   127   157   158    1
   128    60    62   ar
   129    26    28    1
   130    90    88    1
   131    57    59   ar
   132    38    39    1
   133    88    89    1
   134    53    52    1
   135   160   159    2
   136   170   168   ar
   137   167   168    1
   138   167   164    1
   139   166   165    2
   140    62    63    1
   141    62    61   ar
   142   165   164    1
   143   158   159    1
   144   158   161    1
   145    59    61   ar
   146   168   169   ar
   147   200   197    1
   148   164   163    1
   149    39    40    1
   150   197   196    1
   151   197   198    1
   152   161   162    1
   153    40    41    1
   154    41    42    1
   155    46    45    2
   156     9    10    1
   157    45    44    1
   158   198   201   am
   159   198   199    2
   160   201   202    1
   161   183   182    2
   162    51    49   ar
   163    48    49    1
   164    48    47    1
   165   182   181    1
   166    49    50   ar
   167    10    11    1
   168    10    13    1
   169    47    44    1
   170   174   173    2
   171    11    12    2
   172    11    18   am
   173    44    43    1
   174   202   205    1
   175   202   203    1
   176   181   180    1
   177   181   184    1
   178    18    19    1
   179    13    14    1
   180   173   180   am
   181   173   172    1
   182   205   206    1
   183    19    20    1
   184   203   204    2
   185   184   185    1
   186   172   171    1
   187   172   175    1
   188   206   208   ar
   189   206   207   ar
   190    14    15    1
   191   185   186    2
   192   185   187   am
   193    20    21    2
   194   175   176    1
   195   176   177    1
   196    15    16    1
   197   177   178    1
   198    16    17    1
   199   178   179    1
