@<TRIPOS>MOLECULE
tmp/5qilA00.pdb
 206 198 0 0 0
SMALL
GASTEIGER

@<TRIPOS>ATOM
      1  N         -3.2580   12.0460    3.6000 N.3    15  ILE15      -0.1231
      2  CA        -3.1640   10.5860    3.7280 C.3    15  ILE15       0.1692
      3  C         -2.7720   10.1030    5.1220 C.2    15  ILE15       0.2593
      4  O         -2.6800    8.8860    5.3410 O.2    15  ILE15      -0.2718
      5  CB        -2.2190    9.9710    2.6350 C.3    15  ILE15       0.0266
      6  CG1       -0.7870   10.5340    2.7220 C.3    15  ILE15       0.0019
      7  CG2       -2.7940   10.0870    1.2060 C.3    15  ILE15       0.0020
      8  CD1        0.2840    9.7360    1.7890 C.3    15  ILE15       0.0001
      9  N         -2.5000   11.0340    6.0240 N.am   16  GLY16      -0.1942
     10  CA        -2.0810   10.6880    7.3770 C.3    16  GLY16       0.2014
     11  C         -1.5130   11.8480    8.1610 C.2    16  GLY16       0.2639
     12  O         -1.4970   12.9850    7.6830 O.2    16  GLY16      -0.2714
     13  N         -1.0770   11.5570    9.3920 N.am   17  LYS17      -0.1963
     14  CA        -0.4740   12.5150   10.3110 C.3    17  LYS17       0.1728
     15  C          0.4780   11.7760   11.2570 C.2    17  LYS17       0.2616
     16  O          0.1220   10.7200   11.8000 O.2    17  LYS17      -0.2715
     17  CB        -1.5650   13.2620   11.1050 C.3    17  LYS17       0.0311
     18  CG        -1.0660   14.4920   11.8550 C.3    17  LYS17       0.0038
     19  CD        -1.9080   14.7730   13.1000 C.3    17  LYS17       0.0206
     20  CE        -1.8390   16.2410   13.5350 C.3    17  LYS17       0.1093
     21  NZ        -0.4580   16.7770   13.6870 N.3    17  LYS17      -0.1314
     22  N          1.6860   12.3260   11.4200 N.am   18  GLY18      -0.1955
     23  CA         2.6830   11.8080   12.3560 C.3    18  GLY18       0.1869
     24  C          2.4870   12.5030   13.6940 C.2    18  GLY18       0.2309
     25  O          1.3850   12.9980   13.9660 O.2    18  GLY18      -0.2863
     26  N          0.6350   14.4690    6.5860 N.3    23  VAL23      -0.1245
     27  CA         1.0400   13.7090    5.4170 C.3    23  VAL23       0.1561
     28  C          0.0770   13.8460    4.2390 C.2    23  VAL23       0.2260
     29  O         -1.1300   13.7330    4.3950 O.2    23  VAL23      -0.2867
     30  CB         1.3180   12.2270    5.7700 C.3    23  VAL23       0.0252
     31  CG1        2.1790   11.5660    4.6910 C.3    23  VAL23       0.0019
     32  CG2        2.0020   12.1140    7.1340 C.3    23  VAL23       0.0019
     33  N          5.1090   11.1810   -1.4970 N.3    34  ALA34      -0.1245
     34  CA         4.4620   11.4200   -0.2140 C.3    34  ALA34       0.1562
     35  C          5.1740   12.6290    0.3650 C.2    34  ALA34       0.2260
     36  O          6.3810   12.8070    0.1690 O.2    34  ALA34      -0.2867
     37  CB         4.6060   10.2140    0.7110 C.3    34  ALA34       0.0290
     38  N          5.4840   15.1720    3.8350 N.3    36  LYS36      -0.1245
     39  CA         5.2100   15.4050    5.2520 C.3    36  LYS36       0.1561
     40  C          5.4460   16.8840    5.5200 C.2    36  LYS36       0.2260
     41  O          6.5420   17.3920    5.2610 O.2    36  LYS36      -0.2867
     42  CB         6.0760   14.5240    6.1640 C.3    36  LYS36       0.0271
     43  CG         5.4030   14.2930    7.5240 C.3    36  LYS36       0.0035
     44  CD         6.2490   13.5890    8.5910 C.3    36  LYS36       0.0206
     45  CE         7.0860   12.4220    8.1520 C.3    36  LYS36       0.1093
     46  NZ         7.2530   11.4410    9.2490 N.3    36  LYS36      -0.1314
     47  N         14.4570   14.9330   11.4680 N.3    49  GLU49      -0.1245
     48  CA        14.1170   13.8560   10.5440 C.3    49  GLU49       0.1567
     49  C         14.9030   13.9800    9.2320 C.2    49  GLU49       0.2260
     50  O         15.4640   12.9940    8.7490 O.2    49  GLU49      -0.2867
     51  CB        12.6010   13.8000   10.3420 C.3    49  GLU49       0.0388
     52  CG        12.1530   12.4900    9.6930 C.3    49  GLU49       0.1160
     53  CD        10.6680   12.1880    9.7870 C.2    49  GLU49       0.3649
     54  OE1        9.9330   12.9330   10.4710 O.co2  49  GLU49      -0.2457
     55  OE2       10.2510   11.1530    9.2270 O.co2  49  GLU49      -0.2457
     56  N         17.5980   11.2480    7.6930 N.3    53  TYR53      -0.1241
     57  CA        17.4880   10.7090    6.3280 C.3    53  TYR53       0.1605
     58  C         18.6750   11.0230    5.4310 C.2    53  TYR53       0.2264
     59  O         18.9390   10.2890    4.4740 O.2    53  TYR53      -0.2867
     60  CB        16.1920   11.1350    5.6460 C.3    53  TYR53       0.0534
     61  CG        15.0200   10.2340    5.9640 C.ar   53  TYR53      -0.0201
     62  CD1       14.9010    8.9740    5.3710 C.ar   53  TYR53      -0.0009
     63  CD2       13.9930   10.6630    6.7950 C.ar   53  TYR53      -0.0009
     64  CE1       13.7850    8.1790    5.5870 C.ar   53  TYR53       0.0417
     65  CE2       12.8950    9.8440    7.0650 C.ar   53  TYR53       0.0417
     66  CZ        12.8060    8.5960    6.4710 C.ar   53  TYR53       0.1957
     67  OH        11.7460    7.7720    6.7330 O.3    53  TYR53      -0.2866
     68  N         12.4560    3.6790    4.0090 N.3    64  LEU64      -0.1245
     69  CA        11.6930    4.5620    3.1300 C.3    64  LEU64       0.1561
     70  C         12.6500    5.4580    2.3300 C.2    64  LEU64       0.2260
     71  O         13.5520    6.0600    2.9140 O.2    64  LEU64      -0.2867
     72  CB        10.7390    5.4320    3.9610 C.3    64  LEU64       0.0270
     73  CG         9.8570    6.4140    3.1800 C.3    64  LEU64       0.0019
     74  CD1        8.8900    5.6560    2.2090 C.3    64  LEU64       0.0001
     75  CD2        9.0610    7.2760    4.1420 C.3    64  LEU64       0.0001
     76  N         14.0880    8.4280    0.7740 N.3    66  PHE66      -0.1241
     77  CA        13.9880    9.8670    1.0370 C.3    66  PHE66       0.1605
     78  C         14.2680   10.6430   -0.2370 C.2    66  PHE66       0.2264
     79  O         15.2030   10.2990   -0.9550 O.2    66  PHE66      -0.2867
     80  CB        14.9730   10.2530    2.1210 C.3    66  PHE66       0.0534
     81  CG        15.0480   11.7180    2.4340 C.ar   66  PHE66      -0.0203
     82  CD1       14.1020   12.3160    3.2670 C.ar   66  PHE66      -0.0042
     83  CD2       16.0930   12.4920    1.9530 C.ar   66  PHE66      -0.0042
     84  CE1       14.2080   13.6670    3.6150 C.ar   66  PHE66      -0.0003
     85  CE2       16.2100   13.8350    2.3230 C.ar   66  PHE66      -0.0003
     86  CZ        15.2710   14.4040    3.1530 C.ar   66  PHE66      -0.0000
     87  N          9.0810   17.3920    3.9770 N.3    82  LEU82      -0.1231
     88  CA         9.8720   16.1790    3.8130 C.3    82  LEU82       0.1693
     89  C          9.1710   15.4080    2.6950 C.2    82  LEU82       0.2592
     90  O          7.9570   15.3270    2.6960 O.2    82  LEU82      -0.2718
     91  CB         9.9740   15.3390    5.0810 C.3    82  LEU82       0.0284
     92  CG        10.7080   15.9760    6.2670 C.3    82  LEU82       0.0019
     93  CD1       10.6640   15.0550    7.4470 C.3    82  LEU82       0.0001
     94  CD2       12.1600   16.3370    5.9100 C.3    82  LEU82       0.0001
     95  N          9.9170   14.9430    1.6960 N.am   83  VAL83      -0.1966
     96  CA         9.3580   14.2710    0.5300 C.3    83  VAL83       0.1727
     97  C          9.9790   12.8920    0.4350 C.2    83  VAL83       0.2617
     98  O         11.1890   12.7670    0.6080 O.2    83  VAL83      -0.2715
     99  CB         9.5960   15.1050   -0.7670 C.3    83  VAL83       0.0290
    100  CG1        8.8850   14.4920   -1.9870 C.3    83  VAL83       0.0023
    101  CG2        9.1930   16.5610   -0.5770 C.3    83  VAL83       0.0023
    102  N          9.1570   11.8700    0.1370 N.am   84  SER84      -0.1936
    103  CA         9.6090   10.4850    0.0390 C.3    84  SER84       0.2055
    104  C          8.9180    9.7710   -1.0850 C.2    84  SER84       0.2643
    105  O          7.9880   10.3050   -1.7030 O.2    84  SER84      -0.2714
    106  CB         9.3170    9.7520    1.3530 C.3    84  SER84       0.2130
    107  OG         7.9400    9.4390    1.5330 O.3    84  SER84      -0.2179
    108  N          9.3420    8.5280   -1.3320 N.am   85  ASP85      -0.1957
    109  CA         8.6390    7.6370   -2.2460 C.3    85  ASP85       0.1840
    110  C          7.2180    7.4540   -1.6740 C.2    85  ASP85       0.2622
    111  O          7.0440    7.4800   -0.4560 O.2    85  ASP85      -0.2715
    112  CB         9.3100    6.2590   -2.2240 C.3    85  ASP85       0.1450
    113  CG        10.7230    6.1990   -2.7770 C.2    85  ASP85       0.3671
    114  OD1       11.1320    7.1560   -3.5090 O.co2  85  ASP85      -0.2456
    115  OD2       11.3990    5.1850   -2.5340 O.co2  85  ASP85      -0.2456
    116  N          6.2210    7.2460   -2.5500 N.am   86  TYR86      -0.1960
    117  CA         4.8340    7.0110   -2.1460 C.3    86  TYR86       0.1771
    118  C          4.5870    5.5100   -2.2600 C.2    86  TYR86       0.2620
    119  O          4.9960    4.9030   -3.2460 O.2    86  TYR86      -0.2715
    120  CB         3.8580    7.7760   -3.0860 C.3    86  TYR86       0.0574
    121  CG         2.3940    7.4840   -2.8330 C.ar   86  TYR86      -0.0198
    122  CD1        1.7380    8.0100   -1.7240 C.ar   86  TYR86      -0.0009
    123  CD2        1.6680    6.6640   -3.6900 C.ar   86  TYR86      -0.0009
    124  CE1        0.3880    7.7260   -1.4770 C.ar   86  TYR86       0.0417
    125  CE2        0.3150    6.4030   -3.4720 C.ar   86  TYR86       0.0417
    126  CZ        -0.3080    6.9030   -2.3430 C.ar   86  TYR86       0.1957
    127  OH        -1.6300    6.6300   -2.1160 O.3    86  TYR86      -0.2866
    128  N          3.9590    4.9120   -1.2510 N.am   87  HIS87      -0.1959
    129  CA         3.6140    3.4840   -1.3040 C.3    87  HIS87       0.1787
    130  C          2.1040    3.3770   -1.1710 C.2    87  HIS87       0.2620
    131  O          1.5520    3.7490   -0.1430 O.2    87  HIS87      -0.2715
    132  CB         4.3650    2.6690   -0.2300 C.3    87  HIS87       0.0785
    133  CG         5.8440    2.6600   -0.4620 C.ar   87  HIS87       0.0821
    134  ND1        6.3900    2.1380   -1.6300 N.ar   87  HIS87      -0.2267
    135  CD2        6.8360    3.2060    0.2730 C.ar   87  HIS87       0.1154
    136  CE1        7.6900    2.3420   -1.5420 C.ar   87  HIS87       0.1986
    137  NE2        8.0070    2.9840   -0.4210 N.ar   87  HIS87      -0.2212
    138  N          1.4370    2.9020   -2.2320 N.am   88  GLU88      -0.1963
    139  CA        -0.0300    2.7740   -2.3010 C.3    88  GLU88       0.1733
    140  C         -0.6540    2.0000   -1.1380 C.2    88  GLU88       0.2616
    141  O         -1.7140    2.3840   -0.6780 O.2    88  GLU88      -0.2715
    142  CB        -0.4300    2.1520   -3.6530 C.3    88  GLU88       0.0429
    143  CG        -1.7040    2.7240   -4.2420 C.3    88  GLU88       0.1163
    144  CD        -2.1240    2.1110   -5.5660 C.2    88  GLU88       0.3649
    145  OE1       -3.3460    2.0900   -5.8430 O.co2  88  GLU88      -0.2457
    146  OE2       -1.2400    1.6350   -6.3180 O.co2  88  GLU88      -0.2457
    147  N          0.0020    0.9340   -0.6290 N.am   89  HIS89      -0.1959
    148  CA        -0.5220    0.1730    0.5190 C.3    89  HIS89       0.1787
    149  C         -0.5150    0.9150    1.8500 C.2    89  HIS89       0.2620
    150  O         -1.2120    0.5020    2.7740 O.2    89  HIS89      -0.2715
    151  CB         0.2060   -1.1670    0.6820 C.3    89  HIS89       0.0785
    152  CG        -0.0740   -2.1510   -0.4170 C.ar   89  HIS89       0.0821
    153  ND1       -1.3650   -2.4260   -0.8320 N.ar   89  HIS89      -0.2267
    154  CD2        0.7830   -2.9340   -1.1120 C.ar   89  HIS89       0.1154
    155  CE1       -1.2530   -3.3510   -1.7700 C.ar   89  HIS89       0.1986
    156  NE2        0.0200   -3.6950   -1.9660 N.ar   89  HIS89      -0.2212
    157  N          0.2780    1.9800    1.9580 N.am   90  GLY90      -0.1954
    158  CA         0.4150    2.6950    3.2220 C.3    90  GLY90       0.1869
    159  C          1.1600    1.8380    4.2460 C.2    90  GLY90       0.2309
    160  O          1.9750    0.9710    3.8970 O.2    90  GLY90      -0.2863
    161  N         -2.0560   -0.5680    8.2490 N.3    94  ASP94      -0.1239
    162  CA        -3.1940   -0.5610    7.3250 C.3    94  ASP94       0.1674
    163  C         -3.3110   -1.8720    6.5390 C.2    94  ASP94       0.2266
    164  O         -4.4090   -2.3970    6.3810 O.2    94  ASP94      -0.2867
    165  CB        -3.0770    0.5890    6.3360 C.3    94  ASP94       0.1410
    166  CG        -3.3370    1.9600    6.8930 C.2    94  ASP94       0.3668
    167  OD1       -3.7150    2.0600    8.0740 O.co2  94  ASP94      -0.2456
    168  OD2       -3.1600    2.9350    6.1500 O.co2  94  ASP94      -0.2456
    169  N          2.5940    1.0930   12.4350 N.3   141  LYS141     -0.1231
    170  CA         2.1490    2.3260   11.7760 C.3   141  LYS141      0.1693
    171  C          3.3300    3.0890   11.1800 C.2   141  LYS141      0.2592
    172  O          3.1230    4.0030   10.3730 O.2   141  LYS141     -0.2718
    173  CB         1.3640    3.2250   12.7520 C.3   141  LYS141      0.0285
    174  CG        -0.0950    2.7160   12.9890 C.3   141  LYS141      0.0035
    175  CD        -0.8300    3.5540   14.0410 C.3   141  LYS141      0.0206
    176  CE        -2.2520    3.0500   14.2270 C.3   141  LYS141      0.1093
    177  NZ        -2.9970    3.8880   15.1830 N.3   141  LYS141     -0.1314
    178  N          4.5620    2.7070   11.5700 N.am  142  ASN142     -0.1974
    179  CA         5.8050    3.3500   11.1420 C.3   142  ASN142      0.1688
    180  C          6.5970    2.5530   10.1180 C.2   142  ASN142      0.2292
    181  O          7.7640    2.8410    9.8560 O.2   142  ASN142     -0.2864
    182  CB         6.6500    3.6810   12.3700 C.3   142  ASN142      0.1181
    183  CG         6.1230    4.9020   13.0740 C.2   142  ASN142      0.2629
    184  OD1        5.2210    5.5860   12.5800 O.2   142  ASN142     -0.2716
    185  ND2        6.6920    5.2290   14.2220 N.am  142  ASN142     -0.0877
    186  N          6.0880    0.9180    6.1460 N.3   144  LEU144     -0.1245
    187  CA         5.2280    0.9830    4.9530 C.3   144  LEU144      0.1561
    188  C          5.4030   -0.2850    4.1490 C.2   144  LEU144      0.2260
    189  O          6.4880   -0.8480    4.1430 O.2   144  LEU144     -0.2867
    190  CB         5.5800    2.2150    4.0990 C.3   144  LEU144      0.0270
    191  CG         5.2870    3.5340    4.8220 C.3   144  LEU144      0.0019
    192  CD1        6.2910    4.5660    4.4960 C.3   144  LEU144      0.0001
    193  CD2        3.8700    4.0240    4.5330 C.3   144  LEU144      0.0001
    194  N         10.0570    3.6970    8.2670 N.3   154  ALA154     -0.1231
    195  CA         9.9230    5.1280    8.0870 C.3   154  ALA154      0.1694
    196  C          9.8690    5.8440    9.4500 C.2   154  ALA154      0.2592
    197  O         10.0480    5.1970   10.4770 O.2   154  ALA154     -0.2718
    198  CB         8.6360    5.3940    7.3130 C.3   154  ALA154      0.0304
    199  N          9.6060    7.1670    9.4500 N.am  155  ASP155     -0.1974
    200  CA         9.4420    8.0170   10.6600 C.3   155  ASP155      0.1709
    201  C         10.6270    7.8990   11.5820 C.2   155  ASP155      0.2293
    202  O         10.5460    7.3360   12.6860 O.2   155  ASP155     -0.2864
    203  CB         8.1080    7.6950   11.3940 C.3   155  ASP155      0.1436
    204  CG         6.9430    7.7270   10.4200 C.2   155  ASP155      0.3671
    205  OD1        6.8040    8.7380    9.7000 O.co2 155  ASP155     -0.2456
    206  OD2        6.3220    6.6740   10.2140 O.co2 155  ASP155     -0.2456
@<TRIPOS>BOND
     1   146   144   ar
     2   145   144   ar
     3   144   143    1
     4   143   142    1
     5   123   125   ar
     6   123   121   ar
     7   142   139    1
     8   114   113   ar
     9   125   126   ar
    10   119   118    2
    11   120   121    1
    12   120   117    1
    13   121   122   ar
    14   113   115   ar
    15   113   112    1
    16   116   117    1
    17   116   110   am
    18   126   127    1
    19   126   124   ar
    20   139   138    1
    21   139   140    1
    22   118   117    1
    23   118   128   am
    24   109   112    1
    25   109   110    1
    26   109   108    1
    27   138   130   am
    28   100    99    1
    29   156   155   ar
    30   156   154   ar
    31   155   153   ar
    32   122   124   ar
    33   105   104    2
    34   110   111    2
    35   134   136   ar
    36   134   133   ar
    37   136   137   ar
    38    33    34    1
    39   108   104   am
    40   129   128    1
    41   129   130    1
    42   129   132    1
    43   130   131    2
    44   140   141    2
    45   140   147   am
    46   154   152   ar
    47   104   103    1
    48    79    78    2
    49   153   152   ar
    50    99   101    1
    51    99    96    1
    52   147   148    1
    53   133   132    1
    54   133   135   ar
    55   137   135   ar
    56   152   151    1
    57    78    77    1
    58    34    35    1
    59    34    37    1
    60   103   102    1
    61   103   106    1
    62   102    97   am
    63    36    35    2
    64    97    96    1
    65    97    98    2
    66   148   151    1
    67   148   149    1
    68    96    95    1
    69    76    77    1
    70    77    80    1
    71     7     5    1
    72   106   107    1
    73    95    89   am
    74     8     6    1
    75   149   157   am
    76   149   150    2
    77    83    85   ar
    78    83    81   ar
    79   157   158    1
    80    80    81    1
    81    74    73    1
    82    85    86   ar
    83    70    71    2
    84    70    69    1
    85    81    82   ar
    86     5     6    1
    87     5     2    1
    88    89    90    2
    89    89    88    1
    90    69    72    1
    91    69    68    1
    92    86    84   ar
    93    73    72    1
    94    73    75    1
    95   158   159    1
    96    82    84   ar
    97     1     2    1
    98     2     3    1
    99    88    87    1
   100    88    91    1
   101    38    39    1
   102   160   159    2
   103   190   191    1
   104   190   187    1
   105   189   188    2
   106   188   187    1
   107    28    29    2
   108    28    27    1
   109    59    58    2
   110   192   191    1
   111   193   191    1
   112    31    30    1
   113   187   186    1
   114    91    92    1
   115     3     4    2
   116     3     9   am
   117    39    40    1
   118    39    42    1
   119    41    40    2
   120    62    64   ar
   121    62    61   ar
   122    27    30    1
   123    27    26    1
   124    58    57    1
   125    64    66   ar
   126    60    61    1
   127    60    57    1
   128    30    32    1
   129    94    92    1
   130    61    63   ar
   131     9    10    1
   132   168   166   ar
   133    42    43    1
   134    92    93    1
   135    57    56    1
   136   165   166    1
   137   165   162    1
   138   164   163    2
   139    66    67    1
   140    66    65   ar
   141   163   162    1
   142    63    65   ar
   143   166   167   ar
   144   198   195    1
   145   162   161    1
   146    10    11    1
   147    43    44    1
   148    12    11    2
   149   195   194    1
   150   195   196    1
   151    45    44    1
   152    45    46    1
   153    11    13   am
   154    50    49    2
   155    55    53   ar
   156    49    48    1
   157    13    14    1
   158   196   199   am
   159   196   197    2
   160   199   200    1
   161    52    53    1
   162    52    51    1
   163   205   204   ar
   164    53    54   ar
   165   181   180    2
   166   180   179    1
   167   206   204   ar
   168    14    17    1
   169    14    15    1
   170    51    48    1
   171   172   171    2
   172   204   203    1
   173    48    47    1
   174   200   203    1
   175   200   201    1
   176    17    18    1
   177   179   178    1
   178   179   182    1
   179   171   178   am
   180   171   170    1
   181    15    22   am
   182    15    16    2
   183    22    23    1
   184   201   202    2
   185   170   169    1
   186   170   173    1
   187    18    19    1
   188    23    24    1
   189   182   183    1
   190   184   183    2
   191   173   174    1
   192   174   175    1
   193   183   185   am
   194    19    20    1
   195    20    21    1
   196    24    25    2
   197   175   176    1
   198   176   177    1
