@<TRIPOS>MOLECULE
tmp/5qimA00.pdb
 217 209 0 0 0
SMALL
GASTEIGER

@<TRIPOS>ATOM
      1  N         -3.6950   12.7580    3.8860 N.3    14  ILE14      -0.1231
      2  CA        -3.4180   11.3970    4.3580 C.3    14  ILE14       0.1692
      3  C         -3.6660   11.3060    5.8480 C.2    14  ILE14       0.2593
      4  O         -4.3250   10.3730    6.3000 O.2    14  ILE14      -0.2718
      5  CB        -1.9940   10.9350    3.9600 C.3    14  ILE14       0.0266
      6  CG1       -1.9610   10.5520    2.4820 C.3    14  ILE14       0.0019
      7  CG2       -1.4750    9.7730    4.8720 C.3    14  ILE14       0.0020
      8  CD1       -0.5200   10.3000    1.9420 C.3    14  ILE14       0.0001
      9  N         -3.1980   12.2930    6.5880 N.am   15  GLY15      -0.1942
     10  CA        -3.4260   12.3310    8.0300 C.3    15  GLY15       0.2014
     11  C         -2.3820   13.1350    8.7710 C.2    15  GLY15       0.2639
     12  O         -1.5720   13.8060    8.1520 O.2    15  GLY15      -0.2714
     13  N         -2.4150   13.1070   10.1000 N.am   16  LYS16      -0.1963
     14  CA        -1.4520   13.8760   10.8820 C.3    16  LYS16       0.1728
     15  C         -0.3770   12.9760   11.4740 C.2    16  LYS16       0.2617
     16  O         -0.6590   11.8380   11.8540 O.2    16  LYS16      -0.2715
     17  CB        -2.1860   14.6470   11.9900 C.3    16  LYS16       0.0311
     18  CG        -1.5510   15.9420   12.3900 C.3    16  LYS16       0.0038
     19  CD        -2.4230   16.6640   13.4150 C.3    16  LYS16       0.0206
     20  CE        -2.4300   15.9530   14.7710 C.3    16  LYS16       0.1093
     21  NZ        -1.1910   16.2010   15.5770 N.3    16  LYS16      -0.1314
     22  N          0.8410   13.4970   11.5670 N.am   17  GLY17      -0.1940
     23  CA         1.9310   12.7940   12.2220 C.3    17  GLY17       0.2014
     24  C          2.0200   13.2560   13.6650 C.2    17  GLY17       0.2638
     25  O          1.1270   13.9680   14.1470 O.2    17  GLY17      -0.2714
     26  N          3.1280   12.8950   14.3570 N.am   18  ARG18      -0.1977
     27  CA         3.4600   13.3420   15.7190 C.3    18  ARG18       0.1597
     28  C          3.4750   14.8790   15.6430 C.2    18  ARG18       0.2287
     29  O          2.8140   15.5610   16.4260 O.2    18  ARG18      -0.2864
     30  CB         4.8290   12.7420   16.0880 C.3    18  ARG18       0.0334
     31  CG         5.4580   13.1570   17.4090 C.3    18  ARG18       0.0492
     32  CD         6.8080   12.4490   17.6170 C.3    18  ARG18       0.2205
     33  NE         7.8100   12.7960   16.5940 N.pl3  18  ARG18      -0.0865
     34  CZ         8.1550   12.0080   15.5770 C.cat  18  ARG18       0.5346
     35  NH1        7.6030   10.8090   15.4390 N.pl3  18  ARG18       0.1354
     36  NH2        9.0550   12.4130   14.6930 N.pl3  18  ARG18       0.1354
     37  N          0.3380   15.0290    6.7330 N.3    22  VAL22      -0.1245
     38  CA         0.7880   14.1960    5.6200 C.3    22  VAL22       0.1561
     39  C         -0.1980   14.2860    4.4410 C.2    22  VAL22       0.2260
     40  O         -1.4190   14.2080    4.6350 O.2    22  VAL22      -0.2867
     41  CB         1.0500   12.7500    6.0720 C.3    22  VAL22       0.0252
     42  CG1        1.7160   11.9450    4.9600 C.3    22  VAL22       0.0019
     43  CG2        1.9070   12.7180    7.3630 C.3    22  VAL22       0.0019
     44  N          4.7930   11.4170   -1.3160 N.3    33  ALA33      -0.1245
     45  CA         4.1650   11.7000   -0.0280 C.3    33  ALA33       0.1562
     46  C          4.8730   12.9340    0.4820 C.2    33  ALA33       0.2260
     47  O          6.0850   13.0640    0.3400 O.2    33  ALA33      -0.2867
     48  CB         4.3610   10.5370    0.9560 C.3    33  ALA33       0.0290
     49  N          5.1540   15.6160    3.8690 N.3    35  LYS35      -0.1245
     50  CA         4.8470   15.9250    5.2660 C.3    35  LYS35       0.1561
     51  C          5.1730   17.4090    5.4750 C.2    35  LYS35       0.2260
     52  O          6.2980   17.8650    5.1880 O.2    35  LYS35      -0.2867
     53  CB         5.6390   15.0410    6.2260 C.3    35  LYS35       0.0271
     54  CG         5.2770   15.2720    7.7040 C.3    35  LYS35       0.0035
     55  CD         5.4540   13.9990    8.5590 C.3    35  LYS35       0.0206
     56  CE         6.8360   13.4070    8.4220 C.3    35  LYS35       0.1093
     57  NZ         6.9930   12.0980    9.1440 N.3    35  LYS35      -0.1314
     58  N         14.2540   15.2970   11.4230 N.3    48  GLU48      -0.1245
     59  CA        13.8400   14.2380   10.4960 C.3    48  GLU48       0.1567
     60  C         14.6020   14.3720    9.1700 C.2    48  GLU48       0.2260
     61  O         15.0880   13.3700    8.6340 O.2    48  GLU48      -0.2867
     62  CB        12.3260   14.2890   10.2630 C.3    48  GLU48       0.0388
     63  CG        11.8170   13.0210    9.5750 C.3    48  GLU48       0.1160
     64  CD        10.3110   12.8480    9.6240 C.2    48  GLU48       0.3649
     65  OE1        9.6490   13.5650   10.4090 O.co2  48  GLU48      -0.2457
     66  OE2        9.7810   12.0760    8.7940 O.co2  48  GLU48      -0.2457
     67  N         17.1650   11.4540    7.5940 N.3    52  TYR52      -0.1241
     68  CA        17.0200   10.9600    6.2230 C.3    52  TYR52       0.1605
     69  C         18.1860   11.2840    5.3040 C.2    52  TYR52       0.2264
     70  O         18.3900   10.5750    4.3260 O.2    52  TYR52      -0.2867
     71  CB        15.7230   11.4510    5.6160 C.3    52  TYR52       0.0534
     72  CG        14.5350   10.5740    5.9500 C.ar   52  TYR52      -0.0201
     73  CD1       14.4450    9.2700    5.4620 C.ar   52  TYR52      -0.0009
     74  CD2       13.5010   11.0460    6.7500 C.ar   52  TYR52      -0.0009
     75  CE1       13.3340    8.4710    5.7270 C.ar   52  TYR52       0.0417
     76  CE2       12.3920   10.2440    7.0450 C.ar   52  TYR52       0.0417
     77  CZ        12.3300    8.9480    6.5490 C.ar   52  TYR52       0.1957
     78  OH        11.2460    8.1480    6.8150 O.3    52  TYR52      -0.2866
     79  N         12.1100    3.8710    4.0050 N.3    63  LEU63      -0.1245
     80  CA        11.3760    4.8000    3.1590 C.3    63  LEU63       0.1561
     81  C         12.3380    5.6880    2.3630 C.2    63  LEU63       0.2260
     82  O         13.2580    6.2780    2.9560 O.2    63  LEU63      -0.2867
     83  CB        10.4440    5.6550    4.0330 C.3    63  LEU63       0.0270
     84  CG         9.6280    6.7320    3.2630 C.3    63  LEU63       0.0019
     85  CD1        8.7280    6.1010    2.1350 C.3    63  LEU63       0.0001
     86  CD2        8.7850    7.5430    4.2530 C.3    63  LEU63       0.0001
     87  N         13.7200    8.7020    0.7700 N.3    65  PHE65      -0.1241
     88  CA        13.6830   10.1550    0.9740 C.3    65  PHE65       0.1605
     89  C         13.9620   10.9020   -0.3260 C.2    65  PHE65       0.2264
     90  O         14.9210   10.5760   -1.0240 O.2    65  PHE65      -0.2867
     91  CB        14.7340   10.5490    2.0380 C.3    65  PHE65       0.0534
     92  CG        14.7900   12.0260    2.3230 C.ar   65  PHE65      -0.0203
     93  CD1       13.8050   12.6390    3.0900 C.ar   65  PHE65      -0.0042
     94  CD2       15.8510   12.8000    1.8570 C.ar   65  PHE65      -0.0042
     95  CE1       13.8990   13.9920    3.4200 C.ar   65  PHE65      -0.0003
     96  CE2       15.9300   14.1570    2.1690 C.ar   65  PHE65      -0.0003
     97  CZ        14.9530   14.7350    2.9470 C.ar   65  PHE65      -0.0000
     98  N          8.8910   17.8950    3.8720 N.3    81  LEU81      -0.1231
     99  CA         9.6970   16.6800    3.6780 C.3    81  LEU81       0.1693
    100  C          8.9560   15.9050    2.5960 C.2    81  LEU81       0.2592
    101  O          7.7330   15.7850    2.6690 O.2    81  LEU81      -0.2718
    102  CB         9.8400   15.8030    4.9170 C.3    81  LEU81       0.0284
    103  CG        10.4850   16.4640    6.1500 C.3    81  LEU81       0.0019
    104  CD1       10.4360   15.5050    7.3250 C.3    81  LEU81       0.0001
    105  CD2       11.9320   16.8880    5.8480 C.3    81  LEU81       0.0001
    106  N          9.6770   15.3670    1.6090 N.am   82  VAL82      -0.1966
    107  CA         9.0600   14.6470    0.4800 C.3    82  VAL82       0.1727
    108  C          9.6780   13.2700    0.3910 C.2    82  VAL82       0.2617
    109  O         10.9020   13.1380    0.5140 O.2    82  VAL82      -0.2715
    110  CB         9.2210   15.4350   -0.8600 C.3    82  VAL82       0.0290
    111  CG1        8.4600   14.7480   -2.0090 C.3    82  VAL82       0.0023
    112  CG2        8.7660   16.8980   -0.6980 C.3    82  VAL82       0.0023
    113  N          8.8420   12.2490    0.1600 N.am   83  SER83      -0.1936
    114  CA         9.3310   10.8610    0.0530 C.3    83  SER83       0.2055
    115  C          8.5770   10.1270   -1.0500 C.2    83  SER83       0.2643
    116  O          7.5740   10.6360   -1.5860 O.2    83  SER83      -0.2714
    117  CB         9.0900   10.1420    1.3890 C.3    83  SER83       0.2130
    118  OG         7.6990    9.9060    1.5860 O.3    83  SER83      -0.2179
    119  N          8.9860    8.8770   -1.3170 N.am   84  ASP84      -0.1957
    120  CA         8.2300    8.0000   -2.1960 C.3    84  ASP84       0.1840
    121  C          6.8480    7.8390   -1.5670 C.2    84  ASP84       0.2622
    122  O          6.7170    7.9100   -0.3480 O.2    84  ASP84      -0.2715
    123  CB         8.8730    6.5880   -2.2230 C.3    84  ASP84       0.1450
    124  CG        10.3060    6.5140   -2.7430 C.2    84  ASP84       0.3671
    125  OD1       10.7720    7.5030   -3.3610 O.co2  84  ASP84      -0.2456
    126  OD2       10.9450    5.4540   -2.5570 O.co2  84  ASP84      -0.2456
    127  N          5.8330    7.5910   -2.3860 N.am   85  TYR85      -0.1960
    128  CA         4.4700    7.3480   -1.9070 C.3    85  TYR85       0.1771
    129  C          4.1720    5.8490   -2.0390 C.2    85  TYR85       0.2620
    130  O          4.4710    5.2400   -3.0830 O.2    85  TYR85      -0.2715
    131  CB         3.4900    8.1520   -2.7630 C.3    85  TYR85       0.0574
    132  CG         2.0360    7.8300   -2.4810 C.ar   85  TYR85      -0.0198
    133  CD1        1.4050    8.3000   -1.3330 C.ar   85  TYR85      -0.0009
    134  CD2        1.2840    7.0820   -3.3800 C.ar   85  TYR85      -0.0009
    135  CE1        0.0530    8.0190   -1.0820 C.ar   85  TYR85       0.0417
    136  CE2       -0.0490    6.7690   -3.1260 C.ar   85  TYR85       0.0417
    137  CZ        -0.6540    7.2290   -1.9730 C.ar   85  TYR85       0.1957
    138  OH        -1.9680    6.9080   -1.7630 O.3    85  TYR85      -0.2866
    139  N          3.5920    5.2700   -0.9880 N.am   86  HIS86      -0.1959
    140  CA         3.1960    3.8660   -0.9800 C.3    86  HIS86       0.1787
    141  C          1.7020    3.7730   -0.7970 C.2    86  HIS86       0.2620
    142  O          1.1800    4.1580    0.2460 O.2    86  HIS86      -0.2715
    143  CB         4.0090    3.0830    0.0610 C.3    86  HIS86       0.0785
    144  CG         5.4650    3.0620   -0.2900 C.ar   86  HIS86       0.0821
    145  ND1        5.9260    2.4300   -1.4420 N.ar   86  HIS86      -0.2267
    146  CD2        6.5130    3.6530    0.3300 C.ar   86  HIS86       0.1154
    147  CE1        7.2380    2.6260   -1.4620 C.ar   86  HIS86       0.1986
    148  NE2        7.6360    3.3510   -0.4100 N.ar   86  HIS86      -0.2212
    149  N          0.9990    3.3830   -1.8850 N.am   87  GLU87      -0.1963
    150  CA        -0.4710    3.3060   -1.9200 C.3    87  GLU87       0.1733
    151  C         -1.0960    2.4950   -0.7700 C.2    87  GLU87       0.2616
    152  O         -2.1250    2.9130   -0.2510 O.2    87  GLU87      -0.2715
    153  CB        -0.9350    2.7640   -3.2730 C.3    87  GLU87       0.0429
    154  CG        -2.3830    3.0830   -3.5970 C.3    87  GLU87       0.1163
    155  CD        -2.8080    2.5510   -4.9540 C.2    87  GLU87       0.3649
    156  OE1       -3.6220    1.6000   -4.9930 O.co2  87  GLU87      -0.2457
    157  OE2       -2.2890    3.0540   -5.9770 O.co2  87  GLU87      -0.2457
    158  N         -0.4910    1.3790   -0.3710 N.am   88  HIS88      -0.1959
    159  CA        -1.0210    0.5450    0.7440 C.3    88  HIS88       0.1787
    160  C         -0.9560    1.2690    2.1100 C.2    88  HIS88       0.2620
    161  O         -1.6730    0.8850    3.0460 O.2    88  HIS88      -0.2715
    162  CB        -0.2690   -0.7900    0.8620 C.3    88  HIS88       0.0785
    163  CG        -0.5680   -1.7980   -0.2070 C.ar   88  HIS88       0.0821
    164  ND1       -1.8740   -2.0970   -0.5840 N.ar   88  HIS88      -0.2267
    165  CD2        0.2830   -2.5810   -0.9160 C.ar   88  HIS88       0.1154
    166  CE1       -1.7750   -3.0400   -1.5090 C.ar   88  HIS88       0.1986
    167  NE2       -0.5030   -3.3680   -1.7460 N.ar   88  HIS88      -0.2212
    168  N         -0.0890    2.2810    2.2230 N.am   89  GLY89      -0.1954
    169  CA         0.0830    2.9690    3.4940 C.3    89  GLY89       0.1869
    170  C          0.7360    2.0460    4.5050 C.2    89  GLY89       0.2309
    171  O          1.5520    1.1980    4.1330 O.2    89  GLY89      -0.2863
    172  N         -2.5340   -0.4700    8.6090 N.3    93  ASP93      -0.1239
    173  CA        -3.6530   -0.4150    7.6550 C.3    93  ASP93       0.1674
    174  C         -3.7700   -1.6900    6.8300 C.2    93  ASP93       0.2266
    175  O         -4.8620   -2.2430    6.6910 O.2    93  ASP93      -0.2867
    176  CB        -3.5310    0.8030    6.7220 C.3    93  ASP93       0.1410
    177  CG        -3.8480    2.1400    7.3540 C.2    93  ASP93       0.3668
    178  OD1       -4.1830    2.1710    8.5590 O.co2  93  ASP93      -0.2456
    179  OD2       -3.7340    3.1650    6.6540 O.co2  93  ASP93      -0.2456
    180  N          2.2050    1.0490   12.7060 N.3   140  LYS140     -0.1231
    181  CA         1.7520    2.2980   12.0680 C.3   140  LYS140      0.1693
    182  C          2.9130    3.0630   11.4180 C.2   140  LYS140      0.2592
    183  O          2.6630    3.9420   10.5650 O.2   140  LYS140     -0.2718
    184  CB         1.0650    3.1970   13.1080 C.3   140  LYS140      0.0285
    185  CG        -0.3460    2.7160   13.3880 C.3   140  LYS140      0.0035
    186  CD        -1.0810    3.5890   14.3940 C.3   140  LYS140      0.0206
    187  CE        -2.3870    2.9180   14.7800 C.3   140  LYS140      0.1093
    188  NZ        -2.7780    3.2340   16.1800 N.3   140  LYS140     -0.1314
    189  N          4.1650    2.7210   11.8060 N.am  141  ASN141     -0.1974
    190  CA         5.4060    3.3660   11.2990 C.3   141  ASN141      0.1688
    191  C          6.1750    2.5370   10.2450 C.2   141  ASN141      0.2292
    192  O          7.3240    2.8530    9.9130 O.2   141  ASN141     -0.2864
    193  CB         6.3300    3.7410   12.4850 C.3   141  ASN141      0.1181
    194  CG         5.7500    4.8500   13.3160 C.2   141  ASN141      0.2629
    195  OD1        4.8260    5.5770   12.8980 O.2   141  ASN141     -0.2716
    196  ND2        6.3670    5.1090   14.4380 N.am  141  ASN141     -0.0877
    197  N          5.6810    0.9500    6.2900 N.3   143  LEU143     -0.1245
    198  CA         4.8160    1.0700    5.1030 C.3   143  LEU143      0.1561
    199  C          4.9170   -0.1870    4.2540 C.2   143  LEU143      0.2260
    200  O          5.9450   -0.8510    4.2880 O.2   143  LEU143     -0.2867
    201  CB         5.2110    2.3100    4.2740 C.3   143  LEU143      0.0270
    202  CG         5.0780    3.6640    4.9890 C.3   143  LEU143      0.0019
    203  CD1        5.8420    4.7430    4.2450 C.3   143  LEU143      0.0001
    204  CD2        3.6020    4.0990    5.1050 C.3   143  LEU143      0.0001
    205  N          9.5650    3.5630    8.2220 N.3   153  ALA153     -0.1231
    206  CA         9.3300    5.0000    8.1200 C.3   153  ALA153      0.1694
    207  C          9.3370    5.6190    9.5150 C.2   153  ALA153      0.2592
    208  O          9.8280    5.0010   10.4560 O.2   153  ALA153     -0.2718
    209  CB         7.9900    5.2500    7.4400 C.3   153  ALA153      0.0304
    210  N          8.8670    6.8690    9.6310 N.am  154  ASP154     -0.1974
    211  CA         8.8260    7.6290   10.8930 C.3   154  ASP154      0.1709
    212  C         10.1810    7.6390   11.6120 C.2   154  ASP154      0.2293
    213  O         10.2940    7.2090   12.7600 O.2   154  ASP154     -0.2864
    214  CB         7.6800    7.1520   11.8080 C.3   154  ASP154      0.1436
    215  CG         7.4280    8.0830   12.9900 C.2   154  ASP154      0.3671
    216  OD1        7.1120    9.2760   12.7540 O.co2 154  ASP154     -0.2456
    217  OD2        7.5980    7.6330   14.1500 O.co2 154  ASP154     -0.2456
@<TRIPOS>BOND
     1   157   155   ar
     2   156   155   ar
     3   155   154    1
     4   154   153    1
     5   134   136   ar
     6   134   132   ar
     7   125   124   ar
     8   153   150    1
     9   136   137   ar
    10   130   129    2
    11   131   132    1
    12   131   128    1
    13   124   126   ar
    14   124   123    1
    15   132   133   ar
    16   127   128    1
    17   127   121   am
    18   123   120    1
    19   120   121    1
    20   120   119    1
    21   129   128    1
    22   129   139   am
    23   111   110    1
    24   137   138    1
    25   137   135   ar
    26   150   149    1
    27   150   151    1
    28   149   141   am
    29   167   166   ar
    30   167   165   ar
    31   116   115    2
    32   121   122    2
    33   166   164   ar
    34   147   145   ar
    35   147   148   ar
    36   145   144   ar
    37   133   135   ar
    38   119   115   am
    39    44    45    1
    40   115   114    1
    41    90    89    2
    42   139   140    1
    43   140   141    1
    44   140   143    1
    45   165   163   ar
    46   110   112    1
    47   110   107    1
    48   141   142    2
    49   151   158   am
    50   151   152    2
    51   164   163   ar
    52   148   146   ar
    53   158   159    1
    54    89    88    1
    55   144   143    1
    56   144   146   ar
    57   163   162    1
    58    45    46    1
    59    45    48    1
    60   114   113    1
    61   114   117    1
    62   113   108   am
    63    47    46    2
    64   108   107    1
    65   108   109    2
    66   107   106    1
    67   159   162    1
    68   159   160    1
    69    87    88    1
    70    88    91    1
    71   117   118    1
    72   106   100   am
    73    94    96   ar
    74    94    92   ar
    75     8     6    1
    76    91    92    1
    77   160   168   am
    78   160   161    2
    79    85    84    1
    80    96    97   ar
    81   168   169    1
    82    92    93   ar
    83    81    82    2
    84    81    80    1
    85     6     5    1
    86   100   101    2
    87   100    99    1
    88    97    95   ar
    89    93    95   ar
    90    80    79    1
    91    80    83    1
    92    84    83    1
    93    84    86    1
    94   169   170    1
    95    99    98    1
    96    99   102    1
    97    49    50    1
    98     1     2    1
    99     5     2    1
   100     5     7    1
   101   171   170    2
   102   203   202    1
   103   199   200    2
   104   199   198    1
   105   201   202    1
   106   201   198    1
   107    70    69    2
   108     2     3    1
   109    39    40    2
   110    39    38    1
   111   102   103    1
   112    42    41    1
   113   202   204    1
   114   198   197    1
   115    52    51    2
   116    50    51    1
   117    50    53    1
   118    69    68    1
   119    73    75   ar
   120    73    72   ar
   121    71    72    1
   122    71    68    1
   123    38    41    1
   124    38    37    1
   125    75    77   ar
   126     3     4    2
   127     3     9   am
   128   105   103    1
   129    72    74   ar
   130    41    43    1
   131   103   104    1
   132    68    67    1
   133    53    54    1
   134    77    78    1
   135    77    76   ar
   136     9    10    1
   137   179   177   ar
   138   175   174    2
   139   176   177    1
   140   176   173    1
   141    74    76   ar
   142   174   173    1
   143   177   178   ar
   144   209   206    1
   145   173   172    1
   146    54    55    1
   147    10    11    1
   148   206   205    1
   149   206   207    1
   150    12    11    2
   151    56    55    1
   152    56    57    1
   153    61    60    2
   154    11    13   am
   155    66    64   ar
   156    60    59    1
   157   207   210   am
   158   207   208    2
   159    63    64    1
   160    63    62    1
   161    64    65   ar
   162   210   211    1
   163   192   191    2
   164    13    14    1
   165   191   190    1
   166    62    59    1
   167    59    58    1
   168   183   182    2
   169    14    15    1
   170    14    17    1
   171   211   212    1
   172   211   214    1
   173   190   189    1
   174   190   193    1
   175   182   189   am
   176   182   181    1
   177    15    22   am
   178    15    16    2
   179    22    23    1
   180   212   213    2
   181   214   215    1
   182    17    18    1
   183   181   180    1
   184   181   184    1
   185    23    24    1
   186    18    19    1
   187   193   194    1
   188   216   215   ar
   189   195   194    2
   190   215   217   ar
   191   184   185    1
   192   194   196   am
   193   185   186    1
   194    19    20    1
   195    24    25    2
   196    24    26   am
   197    26    27    1
   198   186   187    1
   199    36    34    1
   200    20    21    1
   201   187   188    1
   202    35    34    1
   203    34    33    2
   204    28    27    1
   205    28    29    2
   206    27    30    1
   207    30    31    1
   208    33    32    1
   209    31    32    1
