@<TRIPOS>MOLECULE
tmp/5qinA00.pdb
 178 168 0 0 0
SMALL
GASTEIGER

@<TRIPOS>ATOM
      1  N         15.7500   -6.2590    1.4610 N.3    11  VAL11      -0.1231
      2  CA        15.3080   -4.8630    1.3690 C.3    11  VAL11       0.1692
      3  C         16.3000   -3.8770    1.9600 C.2    11  VAL11       0.2593
      4  O         16.1690   -2.6730    1.7400 O.2    11  VAL11      -0.2718
      5  CB        13.8930   -4.6370    1.9420 C.3    11  VAL11       0.0266
      6  CG1       12.8340   -5.4030    1.1480 C.3    11  VAL11       0.0020
      7  CG2       13.8280   -4.9670    3.4320 C.3    11  VAL11       0.0020
      8  N         17.2290   -4.3630    2.7700 N.am   12  GLY12      -0.1942
      9  CA        18.1850   -3.4810    3.4050 C.3    12  GLY12       0.2014
     10  C         19.4140   -4.1640    3.9380 C.2    12  GLY12       0.2639
     11  O         19.5110   -5.3970    3.9760 O.2    12  GLY12      -0.2714
     12  N         20.3980   -3.3550    4.2600 N.am   13  LYS13      -0.1963
     13  CA        21.6270   -3.8620    4.8130 C.3    13  LYS13       0.1728
     14  C         22.0790   -2.8720    5.8730 C.2    13  LYS13       0.2616
     15  O         22.3050   -1.6860    5.5870 O.2    13  LYS13      -0.2715
     16  CB        22.6910   -4.0330    3.7290 C.3    13  LYS13       0.0311
     17  CG        23.9710   -4.7120    4.1930 C.3    13  LYS13       0.0038
     18  CD        24.9420   -4.9030    3.0470 C.3    13  LYS13       0.0206
     19  CE        26.2110   -5.6080    3.4620 C.3    13  LYS13       0.1093
     20  NZ        26.0130   -7.0760    3.5930 N.3    13  LYS13      -0.1314
     21  N         22.1700   -3.3660    7.0930 N.am   14  GLY14      -0.1955
     22  CA        22.6630   -2.5650    8.1990 C.3    14  GLY14       0.1869
     23  C         24.1340   -2.8440    8.4040 C.2    14  GLY14       0.2309
     24  O         24.7560   -3.6620    7.7090 O.2    14  GLY14      -0.2863
     25  N         18.6110   -7.2070    5.9010 N.3    19  VAL19      -0.1245
     26  CA        17.2070   -7.1070    6.2790 C.3    19  VAL19       0.1561
     27  C         16.3660   -7.6080    5.1120 C.2    19  VAL19       0.2260
     28  O         16.6110   -7.1800    3.9810 O.2    19  VAL19      -0.2867
     29  CB        16.7900   -5.6490    6.6240 C.3    19  VAL19       0.0252
     30  CG1       15.3020   -5.5880    6.9960 C.3    19  VAL19       0.0019
     31  CG2       17.6630   -5.0800    7.7520 C.3    19  VAL19       0.0019
     32  N          9.5540   -7.8980    8.8840 N.3    31  ALA31      -0.1245
     33  CA        10.9480   -7.6690    8.4870 C.3    31  ALA31       0.1562
     34  C         11.7530   -8.6780    9.2840 C.2    31  ALA31       0.2260
     35  O         11.4610   -8.9110   10.4510 O.2    31  ALA31      -0.2867
     36  CB        11.4090   -6.2700    8.8730 C.3    31  ALA31       0.0290
     37  N         15.7280   -9.4250   10.3280 N.3    33  LYS33      -0.1245
     38  CA        17.0960   -8.9240   10.3110 C.3    33  LYS33       0.1561
     39  C         17.9890  -10.0960   10.6850 C.2    33  LYS33       0.2260
     40  O         17.8030  -10.6950   11.7510 O.2    33  LYS33      -0.2867
     41  CB        17.2280   -7.7840   11.2970 C.3    33  LYS33       0.0271
     42  CG        18.5380   -7.0310   11.1470 C.3    33  LYS33       0.0035
     43  CD        18.4110   -5.7030   11.9310 C.3    33  LYS33       0.0206
     44  CE        19.6500   -4.8210   11.8610 C.3    33  LYS33       0.1093
     45  NZ        19.3640   -3.4580   12.4450 N.3    33  LYS33      -0.1314
     46  N         20.9530   -5.7490   20.3620 N.3    46  GLU46      -0.1245
     47  CA        19.6450   -5.3210   19.8620 C.3    46  GLU46       0.1567
     48  C         18.5250   -6.0960   20.5500 C.2    46  GLU46       0.2260
     49  O         17.5530   -5.4920   20.9780 O.2    46  GLU46      -0.2867
     50  CB        19.5530   -5.5590   18.3500 C.3    46  GLU46       0.0388
     51  CG        20.4760   -4.6870   17.5270 C.3    46  GLU46       0.1160
     52  CD        19.7270   -4.0230   16.3860 C.2    46  GLU46       0.3649
     53  OE1       20.1370   -4.1880   15.2160 O.co2  46  GLU46      -0.2457
     54  OE2       18.7510   -3.3070   16.6740 O.co2  46  GLU46      -0.2457
     55  N         15.4690   -4.3390   22.6410 N.3    50  PHE50      -0.1241
     56  CA        14.0910   -4.6040   22.2310 C.3    50  PHE50       0.1605
     57  C         13.2750   -5.4160   23.2320 C.2    50  PHE50       0.2264
     58  O         12.0470   -5.3180   23.2270 O.2    50  PHE50      -0.2867
     59  CB        14.0400   -5.2610   20.8620 C.3    50  PHE50       0.0534
     60  CG        14.2060   -4.3150   19.6960 C.ar   50  PHE50      -0.0203
     61  CD1       13.2280   -3.3650   19.4020 C.ar   50  PHE50      -0.0042
     62  CD2       15.3090   -4.4130   18.8470 C.ar   50  PHE50      -0.0042
     63  CE1       13.3630   -2.5230   18.2940 C.ar   50  PHE50      -0.0003
     64  CE2       15.4520   -3.5560   17.7560 C.ar   50  PHE50      -0.0003
     65  CZ        14.4720   -2.6310   17.4710 C.ar   50  PHE50      -0.0000
     66  N         10.6090    0.8770   16.4080 N.3    61  LEU61      -0.1245
     67  CA        10.1780   -0.2570   15.6120 C.3    61  LEU61       0.1561
     68  C          9.5930   -1.3770   16.4880 C.2    61  LEU61       0.2260
     69  O         10.1980   -1.7750   17.4960 O.2    61  LEU61      -0.2867
     70  CB        11.3540   -0.7580   14.7600 C.3    61  LEU61       0.0270
     71  CG        11.1720   -2.0170   13.9150 C.3    61  LEU61       0.0019
     72  CD1       10.0710   -1.7910   12.8110 C.3    61  LEU61       0.0001
     73  CD2       12.5100   -2.4040   13.2480 C.3    61  LEU61       0.0001
     74  N          8.8880   -4.7410   17.8600 N.3    63  PHE63      -0.1241
     75  CA         9.6120   -6.0190   17.9200 C.3    63  PHE63       0.1605
     76  C          8.6730   -7.1980   18.1460 C.2    63  PHE63       0.2264
     77  O          7.7900   -7.1070   19.0050 O.2    63  PHE63      -0.2867
     78  CB        10.6120   -5.9390   19.0830 C.3    63  PHE63       0.0534
     79  CG        11.4660   -7.1590   19.3280 C.ar   63  PHE63      -0.0203
     80  CD1       12.4770   -7.5130   18.4360 C.ar   63  PHE63      -0.0042
     81  CD2       11.2940   -7.9260   20.4760 C.ar   63  PHE63      -0.0042
     82  CE1       13.2890   -8.6250   18.6830 C.ar   63  PHE63      -0.0003
     83  CE2       12.1110   -9.0340   20.7260 C.ar   63  PHE63      -0.0003
     84  CZ        13.0930   -9.3790   19.8230 C.ar   63  PHE63      -0.0000
     85  N         16.2100  -11.3400   14.0840 N.3    79  LEU79      -0.1245
     86  CA        15.3060  -10.4760   14.8510 C.3    79  LEU79       0.1561
     87  C         14.1420  -10.2530   13.8920 C.2    79  LEU79       0.2260
     88  O         14.3640  -10.0290   12.7030 O.2    79  LEU79      -0.2867
     89  CB        15.9300   -9.1370   15.2150 C.3    79  LEU79       0.0270
     90  CG        17.1670   -9.2090   16.1010 C.3    79  LEU79       0.0019
     91  CD1       17.7860   -7.8280   16.2700 C.3    79  LEU79       0.0001
     92  CD2       16.8830   -9.8690   17.4560 C.3    79  LEU79       0.0001
     93  N         10.4770   -8.1750   13.1610 N.3    81  THR81      -0.1203
     94  CA         9.6900   -7.0160   13.5780 C.3    81  THR81       0.1994
     95  C          8.5760   -6.7430   12.5990 C.2    81  THR81       0.2618
     96  O          8.4400   -7.4210   11.5740 O.2    81  THR81      -0.2717
     97  CB        10.5980   -5.7370   13.5940 C.3    81  THR81       0.1784
     98  OG1       11.0370   -5.4690   12.2630 O.3    81  THR81      -0.2211
     99  CG2       11.8190   -5.8960   14.5020 C.3    81  THR81       0.0376
    100  N          7.8200   -5.6810   12.8930 N.am   82  ALA82      -0.1965
    101  CA         6.8360   -5.1820   11.9370 C.3    82  ALA82       0.1728
    102  C          7.6090   -4.7080   10.6740 C.2    82  ALA82       0.2616
    103  O          8.8020   -4.3980   10.7440 O.2    82  ALA82      -0.2715
    104  CB         6.1000   -4.0100   12.5430 C.3    82  ALA82       0.0334
    105  N          6.9270   -4.6630    9.5410 N.am   83  PHE83      -0.1960
    106  CA         7.5120   -4.2470    8.2660 C.3    83  PHE83       0.1771
    107  C          6.8820   -2.9040    7.8800 C.2    83  PHE83       0.2620
    108  O          5.6470   -2.7470    7.9350 O.2    83  PHE83      -0.2715
    109  CB         7.1760   -5.2710    7.1540 C.3    83  PHE83       0.0574
    110  CG         7.8200   -5.0020    5.8200 C.ar   83  PHE83      -0.0200
    111  CD1        9.1700   -5.2680    5.6130 C.ar   83  PHE83      -0.0042
    112  CD2        7.0670   -4.5200    4.7480 C.ar   83  PHE83      -0.0042
    113  CE1        9.7760   -4.9820    4.3940 C.ar   83  PHE83      -0.0003
    114  CE2        7.6700   -4.2480    3.5190 C.ar   83  PHE83      -0.0003
    115  CZ         9.0200   -4.4760    3.3460 C.ar   83  PHE83      -0.0000
    116  N          7.7210   -1.9550    7.4760 N.am   84  HIS84      -0.1959
    117  CA         7.2370   -0.6490    7.0080 C.3    84  HIS84       0.1787
    118  C          7.5070   -0.5530    5.5310 C.2    84  HIS84       0.2620
    119  O          8.6620   -0.3780    5.1210 O.2    84  HIS84      -0.2715
    120  CB         7.8840    0.4980    7.8280 C.3    84  HIS84       0.0785
    121  CG         7.3990    0.4600    9.2440 C.ar   84  HIS84       0.0821
    122  ND1        6.0550    0.6470    9.5510 N.ar   84  HIS84      -0.2267
    123  CD2        8.0720    0.1490   10.3840 C.ar   84  HIS84       0.1154
    124  CE1        5.9590    0.5020   10.8660 C.ar   84  HIS84       0.1986
    125  NE2        7.1500    0.1890   11.4170 N.ar   84  HIS84      -0.2212
    126  N          6.4390   -0.6610    4.6820 N.am   85  ALA85      -0.1977
    127  CA         6.6350   -0.6850    3.2270 C.3    85  ALA85       0.1597
    128  C          7.3430    0.5190    2.6390 C.2    85  ALA85       0.2287
    129  O          8.0150    0.3750    1.6030 O.2    85  ALA85      -0.2864
    130  CB         5.3030   -0.8980    2.5150 C.3    85  ALA85       0.0319
    131  N          9.7960    2.0800    3.8020 N.3    87  GLY87      -0.1210
    132  CA        11.2280    1.9230    4.0190 C.3    87  GLY87       0.1956
    133  C         11.9380    3.0500    4.7370 C.2    87  GLY87       0.2611
    134  O         11.3320    3.8140    5.4960 O.2    87  GLY87      -0.2717
    135  N         13.2450    3.1680    4.4660 N.am   88  ASN88      -0.1974
    136  CA        14.0330    4.1000    5.2440 C.3    88  ASN88       0.1688
    137  C         13.8860    5.5200    4.7410 C.2    88  ASN88       0.2292
    138  O         13.5980    5.7630    3.5520 O.2    88  ASN88      -0.2864
    139  CB        15.4830    3.6540    5.3710 C.3    88  ASN88       0.1181
    140  CG        16.2890    3.8170    4.1100 C.2    88  ASN88       0.2629
    141  OD1       16.6290    4.9400    3.6820 O.2    88  ASN88      -0.2716
    142  ND2       16.6700    2.6970    3.5050 N.am   88  ASN88      -0.0877
    143  N         19.3740    6.7330    6.8980 N.3   139  SER139     -0.1202
    144  CA        19.2600    5.3900    6.3430 C.3   139  SER139      0.2020
    145  C         18.7500    4.3320    7.3240 C.2   139  SER139      0.2618
    146  O         18.4350    3.2080    6.8790 O.2   139  SER139     -0.2717
    147  CB        20.5740    4.9370    5.7140 C.3   139  SER139      0.2103
    148  OG        21.5790    4.7570    6.7070 O.3   139  SER139     -0.2182
    149  N         18.6950    4.6650    8.6520 N.am  140  ASN140     -0.1974
    150  CA        18.1600    3.6810    9.6030 C.3   140  ASN140      0.1688
    151  C         16.9780    4.2250   10.3860 C.2   140  ASN140      0.2292
    152  O         16.6270    3.6810   11.4460 O.2   140  ASN140     -0.2864
    153  CB        19.2620    3.1040   10.5090 C.3   140  ASN140      0.1181
    154  CG        19.9700    4.1350   11.3490 C.2   140  ASN140      0.2629
    155  OD1       19.4570    5.2250   11.6030 O.2   140  ASN140     -0.2716
    156  ND2       21.1050    3.7300   11.9470 N.am  140  ASN140     -0.0877
    157  N         12.9480    4.6960    9.9530 N.3   142  LEU142     -0.1245
    158  CA        11.9000    4.1280    9.1010 C.3   142  LEU142      0.1561
    159  C         10.6970    5.0200    9.0080 C.2   142  LEU142      0.2260
    160  O         10.2920    5.6480    9.9930 O.2   142  LEU142     -0.2867
    161  CB        11.4780    2.7500    9.6360 C.3   142  LEU142      0.0270
    162  CG        12.6450    1.7550    9.8080 C.3   142  LEU142      0.0019
    163  CD1       12.1470    0.4540   10.4420 C.3   142  LEU142      0.0001
    164  CD2       13.4240    1.5330    8.5240 C.3   142  LEU142      0.0001
    165  N         15.2950    2.3580   14.8130 N.3   152  CYS152     -0.1221
    166  CA        15.8030    0.9850   14.8710 C.3   152  CYS152      0.1808
    167  C         17.3330    1.0200   14.7610 C.2   152  CYS152      0.2601
    168  O         17.9290    2.1110   14.7630 O.2   152  CYS152     -0.2717
    169  CB        15.1610    0.1550   13.7560 C.3   152  CYS152      0.0970
    170  SG        15.7630    0.5660   12.0940 S.3   152  CYS152     -0.0800
    171  N         17.9610   -0.1670   14.6190 N.am  153  ASP153     -0.1973
    172  CA        19.3900   -0.3290   14.3420 C.3   153  ASP153      0.1709
    173  C         20.2230    0.0660   15.5470 C.2   153  ASP153      0.2293
    174  O         21.0050    1.0310   15.5310 O.2   153  ASP153     -0.2864
    175  CB        19.7670    0.4540   13.0720 C.3   153  ASP153      0.1436
    176  CG        21.0400    0.0090   12.4150 C.2   153  ASP153      0.3671
    177  OD1       21.3580   -1.2110   12.4830 O.co2 153  ASP153     -0.2456
    178  OD2       21.6800    0.8450   11.7530 O.co2 153  ASP153     -0.2456
@<TRIPOS>BOND
     1     6     5    1
     2     2     1    1
     3     2     5    1
     4     2     3    1
     5   129   128    2
     6     4     3    2
     7     5     7    1
     8     3     8   am
     9   130   127    1
    10   128   127    1
    11     8     9    1
    12    18    19    1
    13    18    17    1
    14   127   126    1
    15   115   114   ar
    16   115   113   ar
    17     9    10    1
    18    19    20    1
    19   142   140   am
    20   114   112   ar
    21   138   137    2
    22   141   140    2
    23    16    17    1
    24    16    13    1
    25   131   132    1
    26    10    11    2
    27    10    12   am
    28    28    27    2
    29   132   133    1
    30   140   139    1
    31    12    13    1
    32   113   111   ar
    33   135   133   am
    34   135   136    1
    35   126   118   am
    36   133   134    2
    37   137   136    1
    38   112   110   ar
    39    13    14    1
    40    27    26    1
    41   119   118    2
    42   136   139    1
    43   118   117    1
    44    15    14    2
    45   111   110   ar
    46   147   144    1
    47   147   148    1
    48   110   109    1
    49    14    21   am
    50    25    26    1
    51    26    29    1
    52   144   143    1
    53   144   145    1
    54    29    30    1
    55    29    31    1
    56   146   145    2
    57   117   116    1
    58   117   120    1
    59    21    22    1
    60   109   106    1
    61   145   149   am
    62   116   107   am
    63    24    23    2
    64   120   121    1
    65   107   108    2
    66   107   106    1
    67    22    23    1
    68   106   105    1
    69    33    36    1
    70    33    32    1
    71    33    34    1
    72   164   162    1
    73   149   150    1
    74   159   158    1
    75   159   160    2
    76   158   161    1
    77   158   157    1
    78   121   122   ar
    79   121   123   ar
    80    34    35    2
    81   105   102   am
    82   122   124   ar
    83   150   151    1
    84   150   153    1
    85   161   162    1
    86   162   163    1
    87    38    37    1
    88    38    39    1
    89    38    41    1
    90   123   125   ar
    91   151   152    2
    92   153   154    1
    93   102   103    2
    94   102   101    1
    95    39    40    2
    96   124   125   ar
    97    42    41    1
    98    42    43    1
    99   154   155    2
   100   154   156   am
   101    96    95    2
   102   178   176   ar
   103    44    43    1
   104    44    45    1
   105   101   104    1
   106   101   100    1
   107   170   169    1
   108    98    97    1
   109   176   177   ar
   110   176   175    1
   111    95   100   am
   112    95    94    1
   113    88    87    2
   114    72    71    1
   115   175   172    1
   116    93    94    1
   117    73    71    1
   118    94    97    1
   119    97    99    1
   120   169   166    1
   121    87    86    1
   122    71    70    1
   123    85    86    1
   124   172   171    1
   125   172   173    1
   126   171   167   am
   127    70    67    1
   128   167   168    2
   129   167   166    1
   130   165   166    1
   131    86    89    1
   132    89    90    1
   133    53    52   ar
   134   174   173    2
   135    67    66    1
   136    67    68    1
   137    90    91    1
   138    90    92    1
   139    52    54   ar
   140    52    51    1
   141    68    69    2
   142    65    64   ar
   143    65    63   ar
   144    51    50    1
   145    64    62   ar
   146    74    75    1
   147    75    76    1
   148    75    78    1
   149    76    77    2
   150    63    61   ar
   151    50    47    1
   152    80    82   ar
   153    80    79   ar
   154    82    84   ar
   155    62    60   ar
   156    78    79    1
   157    79    81   ar
   158    61    60   ar
   159    60    59    1
   160    84    83   ar
   161    47    46    1
   162    47    48    1
   163    81    83   ar
   164    48    49    2
   165    59    56    1
   166    56    55    1
   167    56    57    1
   168    58    57    2
