@<TRIPOS>MOLECULE
tmp/5qj0A01.pdb
 107 108 0 0 0
SMALL
GASTEIGER

@<TRIPOS>ATOM
      1  N          7.9710  -20.4670   17.9160 N.3    95  LYS95      -0.1231
      2  CA         8.0840  -21.9280   17.9080 C.3    95  LYS95       0.1693
      3  C          6.6850  -22.5350   18.1940 C.2    95  LYS95       0.2592
      4  O          6.4800  -23.7290   18.0150 O.2    95  LYS95      -0.2718
      5  CB         9.0410  -22.3850   19.0390 C.3    95  LYS95       0.0285
      6  CG        10.4290  -21.7470   19.0500 C.3    95  LYS95       0.0035
      7  CD        11.6040  -22.7460   19.0360 C.3    95  LYS95       0.0206
      8  CE        11.4030  -24.0330   19.8070 C.3    95  LYS95       0.1093
      9  NZ        12.4020  -24.2260   20.8880 N.3    95  LYS95      -0.1314
     10  N          5.7550  -21.7040   18.6880 N.am   96  TYR96      -0.1976
     11  CA         4.4080  -22.0680   19.1130 C.3    96  TYR96       0.1639
     12  C          3.2680  -21.9490   18.0420 C.2    96  TYR96       0.2290
     13  O          2.1340  -21.6630   18.3980 O.2    96  TYR96      -0.2864
     14  CB         4.0580  -21.2510   20.3480 C.3    96  TYR96       0.0560
     15  CG         4.9160  -21.5600   21.5540 C.ar   96  TYR96      -0.0198
     16  CD1        6.1250  -20.8950   21.7660 C.ar   96  TYR96      -0.0009
     17  CD2        4.4860  -22.4580   22.5260 C.ar   96  TYR96      -0.0009
     18  CE1        6.9070  -21.1560   22.8900 C.ar   96  TYR96       0.0417
     19  CE2        5.2520  -22.7150   23.6620 C.ar   96  TYR96       0.0417
     20  CZ         6.4620  -22.0610   23.8380 C.ar   96  TYR96       0.1957
     21  OH         7.2060  -22.2950   24.9650 O.3    96  TYR96      -0.2866
     22  N         14.6500  -19.6600   27.3210 N.3   130  PRO130     -0.2102
     23  CA        15.5860  -20.0830   26.2650 C.3   130  PRO130      0.1504
     24  C         15.7590  -19.0340   25.1720 C.2   130  PRO130      0.2576
     25  O         14.8380  -18.2560   24.8830 O.2   130  PRO130     -0.2718
     26  CB        14.9200  -21.3290   25.6710 C.3   130  PRO130      0.0282
     27  CG        13.8990  -21.7710   26.7010 C.3   130  PRO130      0.0208
     28  CD        13.4300  -20.5000   27.3290 C.3   130  PRO130      0.0893
     29  N         16.9240  -19.0390   24.5430 N.am  131  THR131     -0.1939
     30  CA        17.1880  -18.1550   23.4160 C.3   131  THR131      0.2028
     31  C         17.7070  -18.9780   22.2660 C.2   131  THR131      0.2642
     32  O         18.1650  -20.1050   22.4490 O.2   131  THR131     -0.2714
     33  CB        18.1840  -17.0250   23.7690 C.3   131  THR131      0.1808
     34  OG1       19.3690  -17.6030   24.3070 O.3   131  THR131     -0.2208
     35  CG2       17.6160  -16.0150   24.7580 C.3   131  THR131      0.0379
     36  N         17.6310  -18.4110   21.0720 N.am  132  THR132     -0.1950
     37  CA        18.1960  -19.0160   19.8820 C.3   132  THR132      0.1897
     38  C         19.4210  -18.1820   19.5220 C.2   132  THR132      0.2313
     39  O         19.3750  -16.9450   19.5650 O.2   132  THR132     -0.2863
     40  CB        17.1700  -19.0340   18.7090 C.3   132  THR132      0.1794
     41  OG1       15.9890  -19.7000   19.1400 O.3   132  THR132     -0.2208
     42  CG2       17.6980  -19.7590   17.4710 C.3   132  THR132      0.0378
     43  N         18.4790  -14.3010   20.4900 N.3   154  TYR154     -0.1228
     44  CA        17.1610  -13.7460   20.7280 C.3   154  TYR154      0.1721
     45  C         16.1570  -14.6950   21.3650 C.2   154  TYR154      0.2437
     46  O         16.1980  -15.9060   21.1080 O.2   154  TYR154     -0.2733
     47  CB        16.6000  -13.1900   19.3970 C.3   154  TYR154      0.0547
     48  CG        16.4880  -14.2250   18.3020 C.ar  154  TYR154     -0.0200
     49  CD1       15.3240  -14.9730   18.1350 C.ar  154  TYR154     -0.0009
     50  CD2       17.5230  -14.4230   17.3960 C.ar  154  TYR154     -0.0009
     51  CE1       15.2240  -15.9460   17.1350 C.ar  154  TYR154      0.0417
     52  CE2       17.4300  -15.3870   16.3890 C.ar  154  TYR154      0.0417
     53  CZ        16.2680  -16.1250   16.2460 C.ar  154  TYR154      0.1957
     54  OH        16.1640  -17.0240   15.2120 O.3   154  TYR154     -0.2866
     55  N         15.1810  -14.1670   22.1270 N.am  155  PRO155     -0.2718
     56  CA        14.1320  -15.0490   22.6640 C.3   155  PRO155      0.1535
     57  C         13.0000  -15.2100   21.6210 C.2   155  PRO155      0.2598
     58  O         13.0350  -14.5740   20.5560 O.2   155  PRO155     -0.2715
     59  CB        13.6510  -14.2880   23.9050 C.3   155  PRO155      0.0310
     60  CG        13.7900  -12.8630   23.5070 C.3   155  PRO155      0.0237
     61  CD        14.9410  -12.7560   22.5280 C.3   155  PRO155      0.0939
     62  N         12.0000  -16.0420   21.9380 N.am  156  ASP156     -0.1972
     63  CA        10.8570  -16.3360   21.0500 C.3   156  ASP156      0.1709
     64  C          9.9760  -15.1230   20.8340 C.2   156  ASP156      0.2293
     65  O          9.8850  -14.2660   21.7040 O.2   156  ASP156     -0.2864
     66  CB        10.0200  -17.5200   21.6070 C.3   156  ASP156      0.1436
     67  CG         8.9360  -18.0170   20.6590 C.2   156  ASP156      0.3671
     68  OD1        9.2590  -18.7580   19.7480 O.co2 156  ASP156     -0.2456
     69  OD2        7.7660  -17.6550   20.8530 O.co2 156  ASP156     -0.2456
     70  N         20.2870  -22.0110   22.4050 N.3   259  PHE259     -0.1227
     71  CA        20.0750  -23.2130   21.6100 C.3   259  PHE259      0.1736
     72  C         20.2730  -22.8720   20.1400 C.2   259  PHE259      0.2595
     73  O         19.9070  -21.7690   19.7140 O.2   259  PHE259     -0.2718
     74  CB        18.6490  -23.7650   21.8330 C.3   259  PHE259      0.0547
     75  CG        18.3710  -24.1720   23.2630 C.ar  259  PHE259     -0.0202
     76  CD1       17.9690  -23.2300   24.2080 C.ar  259  PHE259     -0.0042
     77  CD2       18.5350  -25.4870   23.6700 C.ar  259  PHE259     -0.0042
     78  CE1       17.7760  -23.5940   25.5420 C.ar  259  PHE259     -0.0003
     79  CE2       18.3290  -25.8550   25.0070 C.ar  259  PHE259     -0.0003
     80  CZ        17.9480  -24.9120   25.9280 C.ar  259  PHE259     -0.0000
     81  N         20.8100  -23.8380   19.3450 N.am  260  ASN260     -0.1960
     82  CA        20.9670  -23.6410   17.9060 C.3   260  ASN260      0.1819
     83  C         19.5870  -23.8350   17.2160 C.2   260  ASN260      0.2622
     84  O         18.6150  -24.1370   17.9020 O.2   260  ASN260     -0.2715
     85  CB        22.0690  -24.5490   17.3130 C.3   260  ASN260      0.1195
     86  CG        21.8160  -26.0480   17.3680 C.2   260  ASN260      0.2630
     87  OD1       20.7040  -26.5220   17.5660 O.2   260  ASN260     -0.2716
     88  ND2       22.8550  -26.8300   17.1730 N.am  260  ASN260     -0.0877
     89  N         19.5030  -23.6380   15.8920 N.am  261  SER261     -0.1936
     90  CA        18.2410  -23.7500   15.1260 C.3   261  SER261      0.2055
     91  C         17.6570  -25.1680   15.1350 C.2   261  SER261      0.2643
     92  O         16.4740  -25.3250   14.8460 O.2   261  SER261     -0.2714
     93  CB        18.4410  -23.2770   13.6860 C.3   261  SER261      0.2130
     94  OG        19.3190  -24.1480   12.9860 O.3   261  SER261     -0.2179
     95  N         18.4780  -26.1810   15.4930 N.am  262  LYS262     -0.1963
     96  CA        18.0740  -27.5930   15.5800 C.3   262  LYS262      0.1728
     97  C         17.5070  -27.9290   16.9460 C.2   262  LYS262      0.2616
     98  O         16.9990  -29.0280   17.1330 O.2   262  LYS262     -0.2715
     99  CB        19.2520  -28.5360   15.2480 C.3   262  LYS262      0.0311
    100  CG        19.7090  -28.4570   13.8010 C.3   262  LYS262      0.0038
    101  CD        20.8530  -29.4210   13.4970 C.3   262  LYS262      0.0206
    102  CE        21.1320  -29.4750   12.0090 C.3   262  LYS262      0.1093
    103  NZ        22.2650  -30.3760   11.6690 N.3   262  LYS262     -0.1314
    104  N         17.5550  -26.9790   17.8810 N.am  263  GLY263     -0.1955
    105  CA        17.0420  -27.1980   19.2290 C.3   263  GLY263      0.1869
    106  C         18.0530  -27.8430   20.1640 C.2   263  GLY263      0.2309
    107  O         17.7100  -28.2220   21.2780 O.2   263  GLY263     -0.2863
@<TRIPOS>BOND
     1   103   102    1
     2   102   101    1
     3    94    93    1
     4   101   100    1
     5    93    90    1
     6   100    99    1
     7    92    91    2
     8    90    91    1
     9    90    89    1
    10    91    95   am
    11    54    53    1
    12    99    96    1
    13    95    96    1
    14    96    97    1
    15    89    83   am
    16    53    52   ar
    17    53    51   ar
    18    52    50   ar
    19    97    98    2
    20    97   104   am
    21    51    49   ar
    22    88    86   am
    23    83    84    2
    24    83    82    1
    25    85    86    1
    26    85    82    1
    27    86    87    2
    28    50    48   ar
    29    42    40    1
    30   104   105    1
    31    82    81    1
    32     2     1    1
    33     2     3    1
    34     2     5    1
    35     4     3    2
    36    12    13    2
    37    12    11    1
    38    49    48   ar
    39     3    10   am
    40    48    47    1
    41    10    11    1
    42    40    41    1
    43    40    37    1
    44     7     6    1
    45     7     8    1
    46     5     6    1
    47    11    14    1
    48   105   106    1
    49    81    72   am
    50    47    44    1
    51    38    39    2
    52    38    37    1
    53    73    72    2
    54    68    67   ar
    55     8     9    1
    56    37    36    1
    57    72    71    1
    58   106   107    2
    59    14    15    1
    60    43    44    1
    61    58    57    2
    62    67    69   ar
    63    67    66    1
    64    44    45    1
    65    64    63    1
    66    64    65    2
    67    63    66    1
    68    63    62    1
    69    36    31   am
    70    46    45    2
    71    45    55   am
    72    15    16   ar
    73    15    17   ar
    74    71    74    1
    75    71    70    1
    76    57    62   am
    77    57    56    1
    78    16    18   ar
    79    74    75    1
    80    55    61    1
    81    55    56    1
    82    31    32    2
    83    31    30    1
    84    17    19   ar
    85    61    60    1
    86    56    59    1
    87    18    20   ar
    88    75    77   ar
    89    75    76   ar
    90    30    33    1
    91    30    29    1
    92    60    59    1
    93    19    20   ar
    94    77    79   ar
    95    33    34    1
    96    33    35    1
    97    20    21    1
    98    76    78   ar
    99    29    24   am
   100    25    24    2
   101    79    80   ar
   102    24    23    1
   103    78    80   ar
   104    26    23    1
   105    26    27    1
   106    23    22    1
   107    27    28    1
   108    22    28    1
