@<TRIPOS>MOLECULE
tmp/5qj1A02.pdb
 116 108 0 0 0
SMALL
GASTEIGER

@<TRIPOS>ATOM
      1  N         31.7260  -14.7840  -23.7720 N.3   143  GLU143     -0.1245
      2  CA        31.2830  -13.9210  -22.6780 C.3   143  GLU143      0.1567
      3  C         32.3580  -13.6880  -21.6350 C.2   143  GLU143      0.2260
      4  O         33.0580  -14.6220  -21.2040 O.2   143  GLU143     -0.2867
      5  CB        30.0260  -14.4800  -21.9910 C.3   143  GLU143      0.0388
      6  CG        28.8100  -14.5640  -22.8940 C.3   143  GLU143      0.1160
      7  CD        27.6110  -15.2320  -22.2550 C.2   143  GLU143      0.3649
      8  OE1       27.7090  -16.4270  -21.8980 O.co2 143  GLU143     -0.2457
      9  OE2       26.5670  -14.5580  -22.1150 O.co2 143  GLU143     -0.2457
     10  N         33.6490  -12.8480  -17.8940 N.3   145  PHE145     -0.1227
     11  CA        33.2940  -13.1090  -16.5010 C.3   145  PHE145      0.1736
     12  C         34.4680  -12.7920  -15.5890 C.2   145  PHE145      0.2595
     13  O         35.5910  -12.6010  -16.0630 O.2   145  PHE145     -0.2718
     14  CB        32.9010  -14.5900  -16.3010 C.3   145  PHE145      0.0547
     15  CG        31.6640  -15.0610  -17.0260 C.ar  145  PHE145     -0.0202
     16  CD1       30.3980  -14.8420  -16.4930 C.ar  145  PHE145     -0.0042
     17  CD2       31.7630  -15.7270  -18.2410 C.ar  145  PHE145     -0.0042
     18  CE1       29.2500  -15.2650  -17.1690 C.ar  145  PHE145     -0.0003
     19  CE2       30.6120  -16.1690  -18.9080 C.ar  145  PHE145     -0.0003
     20  CZ        29.3640  -15.9080  -18.3820 C.ar  145  PHE145     -0.0000
     21  N         34.2110  -12.7200  -14.2600 N.am  146  CYS146     -0.1970
     22  CA        35.2190  -12.5130  -13.2110 C.3   146  CYS146      0.1712
     23  C         35.2510  -13.7890  -12.3440 C.2   146  CYS146      0.2296
     24  O         34.1800  -14.2740  -11.9630 O.2   146  CYS146     -0.2864
     25  CB        34.9060  -11.2650  -12.3830 C.3   146  CYS146      0.0983
     26  SG        36.2670  -10.7060  -11.3130 S.3   146  CYS146     -0.0798
     27  N         35.6550  -16.4600   -9.1870 N.3   148  ASP148     -0.1239
     28  CA        35.2120  -16.5590   -7.7870 C.3   148  ASP148      0.1674
     29  C         34.2540  -15.4470   -7.3680 C.2   148  ASP148      0.2266
     30  O         33.4020  -15.0430   -8.1580 O.2   148  ASP148     -0.2867
     31  CB        36.4230  -16.6420   -6.8360 C.3   148  ASP148      0.1410
     32  CG        36.1770  -17.3900   -5.5380 C.2   148  ASP148      0.3668
     33  OD1       35.6990  -18.5480   -5.5960 O.co2 148  ASP148     -0.2456
     34  OD2       36.4940  -16.8320   -4.4630 O.co2 148  ASP148     -0.2456
     35  N         34.1990  -20.5220  -15.6950 N.3   151  LYS151     -0.1245
     36  CA        32.9960  -21.0790  -16.3130 C.3   151  LYS151      0.1561
     37  C         33.3540  -21.4590  -17.7550 C.2   151  LYS151      0.2260
     38  O         33.8580  -20.6030  -18.4840 O.2   151  LYS151     -0.2867
     39  CB        31.8760  -20.0330  -16.4010 C.3   151  LYS151      0.0271
     40  CG        31.1420  -19.7520  -15.1210 C.3   151  LYS151      0.0035
     41  CD        30.2220  -18.5320  -15.3010 C.3   151  LYS151      0.0206
     42  CE        29.0280  -18.5610  -14.3760 C.3   151  LYS151      0.1093
     43  NZ        29.4140  -18.6800  -12.9430 N.3   151  LYS151     -0.1314
     44  N         20.6970  -13.3260  -10.9460 N.3   363  SER363     -0.1217
     45  CA        21.9080  -12.7040  -10.3910 C.3   363  SER363      0.1889
     46  C         21.6380  -11.4380   -9.5470 C.2   363  SER363      0.2288
     47  O         22.5780  -10.7830   -9.1030 O.2   363  SER363     -0.2866
     48  CB        22.8950  -12.3890  -11.5170 C.3   363  SER363      0.2089
     49  OG        23.1180  -13.5400  -12.3130 O.3   363  SER363     -0.2183
     50  N         22.7670   -5.9470   -8.1460 N.3   382  ARG382     -0.1245
     51  CA        23.5440   -7.1690   -8.2910 C.3   382  ARG382      0.1563
     52  C         24.9940   -6.8350   -7.9500 C.2   382  ARG382      0.2260
     53  O         25.3440   -5.6540   -7.8180 O.2   382  ARG382     -0.2867
     54  CB        23.4390   -7.7480   -9.7310 C.3   382  ARG382      0.0307
     55  CG        23.9480   -6.8350  -10.8740 C.3   382  ARG382      0.0489
     56  CD        24.4070   -7.6120  -12.0940 C.3   382  ARG382      0.2205
     57  NE        25.5880   -8.4520  -11.8070 N.pl3 382  ARG382     -0.0865
     58  CZ        25.9040   -9.5630  -12.4710 C.cat 382  ARG382      0.5346
     59  NH1       25.1320   -9.9970  -13.4560 N.pl3 382  ARG382      0.1354
     60  NH2       26.9820  -10.2630  -12.1350 N.pl3 382  ARG382      0.1354
     61  N         31.3230   -8.3210  -12.4660 N.3   386  THR386     -0.1218
     62  CA        31.2310   -8.8110  -13.8580 C.3   386  THR386      0.1862
     63  C         30.7620   -7.6800  -14.7980 C.2   386  THR386      0.2287
     64  O         31.4800   -7.4310  -15.7650 O.2   386  THR386     -0.2866
     65  CB        30.4230  -10.1080  -13.9120 C.3   386  THR386      0.1770
     66  OG1       31.2360  -11.0880  -13.3000 O.3   386  THR386     -0.2211
     67  CG2       30.0980  -10.5580  -15.3250 C.3   386  THR386      0.0375
     68  N         33.1420   -6.2700  -17.8120 N.3   390  ARG390     -0.1245
     69  CA        32.6450   -6.2620  -19.2020 C.3   390  ARG390      0.1563
     70  C         32.7960   -4.8730  -19.7980 C.2   390  ARG390      0.2260
     71  O         33.2840   -4.7610  -20.9220 O.2   390  ARG390     -0.2867
     72  CB        31.1940   -6.7510  -19.3030 C.3   390  ARG390      0.0307
     73  CG        31.0630   -8.2190  -19.0290 C.3   390  ARG390      0.0489
     74  CD        29.6510   -8.7120  -19.1650 C.3   390  ARG390      0.2205
     75  NE        29.5350  -10.0430  -18.5820 N.pl3 390  ARG390     -0.0865
     76  CZ        28.6980  -10.9820  -19.0010 C.cat 390  ARG390      0.5346
     77  NH1       27.8890  -10.7500  -20.0300 N.pl3 390  ARG390      0.1354
     78  NH2       28.6800  -12.1700  -18.4140 N.pl3 390  ARG390      0.1354
     79  N         18.8570   -1.4820  -17.0200 N.3   410  GLN410     -0.1245
     80  CA        18.2780   -2.3730  -16.0160 C.3   410  GLN410      0.1566
     81  C         18.5710   -1.9890  -14.5870 C.2   410  GLN410      0.2260
     82  O         17.7450   -2.2340  -13.7110 O.2   410  GLN410     -0.2867
     83  CB        18.7530   -3.8140  -16.2580 C.3   410  GLN410      0.0367
     84  CG        18.1500   -4.4540  -17.5070 C.3   410  GLN410      0.0905
     85  CD        18.3980   -5.9350  -17.4710 C.2   410  GLN410      0.2608
     86  OE1       17.5420   -6.7100  -17.0460 O.2   410  GLN410     -0.2717
     87  NE2       19.5880   -6.3570  -17.8800 N.am  410  GLN410     -0.0878
     88  N         23.7040   -5.7200  -26.4430 N.3   442  GLU442     -0.1231
     89  CA        23.1600   -7.0460  -26.1640 C.3   442  GLU442      0.1699
     90  C         22.3780   -7.0600  -24.8410 C.2   442  GLU442      0.2592
     91  O         22.8470   -6.5090  -23.8390 O.2   442  GLU442     -0.2718
     92  CB        24.2760   -8.1060  -26.1650 C.3   442  GLU442      0.0402
     93  CG        23.7640   -9.4670  -25.8190 C.3   442  GLU442      0.1161
     94  CD        24.8410  -10.5180  -25.7400 C.2   442  GLU442      0.3649
     95  OE1       26.0530  -10.2380  -25.5760 O.co2 442  GLU442     -0.2457
     96  OE2       24.5640  -11.7040  -25.8900 O.co2 442  GLU442     -0.2457
     97  N         21.1810   -7.6750  -24.8590 N.am  443  MET443     -0.1965
     98  CA        20.2820   -7.8030  -23.7090 C.3   443  MET443      0.1736
     99  C         19.4560   -9.1020  -23.8100 C.2   443  MET443      0.2616
    100  O         18.4930   -9.1640  -24.5780 O.2   443  MET443     -0.2715
    101  CB        19.3550   -6.5700  -23.5980 C.3   443  MET443      0.0427
    102  CG        19.5170   -5.7840  -22.3070 C.3   443  MET443      0.0599
    103  SD        17.9490   -5.0150  -21.8190 S.3   443  MET443     -0.1393
    104  CE        18.5030   -3.5160  -21.1590 C.3   443  MET443      0.0692
    105  N         19.8530  -10.1370  -23.0360 N.am  444  TYR444     -0.1974
    106  CA        19.2180  -11.4690  -22.9470 C.3   444  TYR444      0.1639
    107  C         19.0910  -12.1650  -24.3190 C.2   444  TYR444      0.2290
    108  O         17.9900  -12.5530  -24.7330 O.2   444  TYR444     -0.2864
    109  CB        17.8680  -11.4170  -22.1870 C.3   444  TYR444      0.0560
    110  CG        18.0010  -10.8260  -20.8000 C.ar  444  TYR444     -0.0198
    111  CD1       18.3670  -11.6170  -19.7170 C.ar  444  TYR444     -0.0009
    112  CD2       17.8160   -9.4640  -20.5810 C.ar  444  TYR444     -0.0009
    113  CE1       18.5400  -11.0700  -18.4470 C.ar  444  TYR444      0.0417
    114  CE2       17.9850   -8.9060  -19.3170 C.ar  444  TYR444      0.0417
    115  CZ        18.3490   -9.7130  -18.2530 C.ar  444  TYR444      0.1957
    116  OH        18.5140   -9.1790  -17.0010 O.3   444  TYR444     -0.2866
@<TRIPOS>BOND
     1    88    89    1
     2    92    89    1
     3    92    93    1
     4    89    90    1
     5    96    94   ar
     6    93    94    1
     7    94    95   ar
     8    97    90   am
     9    97    98    1
    10    90    91    2
    11   108   107    2
    12   100    99    2
    13   107   106    1
    14    99    98    1
    15    99   105   am
    16     1     2    1
    17    98   101    1
    18   101   102    1
    19   105   106    1
    20   106   109    1
    21     6     7    1
    22     6     5    1
    23     2     5    1
    24     2     3    1
    25   102   103    1
    26     7     9   ar
    27     7     8   ar
    28   109   110    1
    29   103   104    1
    30     3     4    2
    31    71    70    2
    32   110   112   ar
    33   110   111   ar
    34   112   114   ar
    35    77    76    1
    36    70    69    1
    37   111   113   ar
    38   114   115   ar
    39    72    69    1
    40    72    73    1
    41    69    68    1
    42    74    73    1
    43    74    75    1
    44    76    75    2
    45    76    78    1
    46    19    20   ar
    47    19    17   ar
    48    38    37    2
    49   113   115   ar
    50    20    18   ar
    51   115   116    1
    52    17    15   ar
    53    10    11    1
    54    87    85   am
    55    37    36    1
    56    84    85    1
    57    84    83    1
    58    85    86    2
    59    18    16   ar
    60    15    16   ar
    61    15    14    1
    62    79    80    1
    63    11    14    1
    64    11    12    1
    65    39    36    1
    66    39    40    1
    67    36    35    1
    68    83    80    1
    69    13    12    2
    70    80    81    1
    71    64    63    2
    72    12    21   am
    73    67    65    1
    74    41    40    1
    75    41    42    1
    76    63    62    1
    77    81    82    2
    78    42    43    1
    79    21    22    1
    80    65    62    1
    81    65    66    1
    82    62    61    1
    83    59    58    1
    84    22    25    1
    85    22    23    1
    86    58    60    1
    87    58    57    2
    88    25    26    1
    89    23    24    2
    90    49    48    1
    91    56    57    1
    92    56    55    1
    93    48    45    1
    94    44    45    1
    95    55    54    1
    96    45    46    1
    97    54    51    1
    98    46    47    2
    99    27    28    1
   100    51    50    1
   101    51    52    1
   102    30    29    2
   103    52    53    2
   104    28    29    1
   105    28    31    1
   106    31    32    1
   107    33    32   ar
   108    32    34   ar
