@<TRIPOS>MOLECULE
tmp/5qj1A01.pdb
 100 99 0 0 0
SMALL
GASTEIGER

@<TRIPOS>ATOM
      1  N         22.6150  -20.4860  -45.0770 N.3   100  LYS100     -0.1231
      2  CA        23.5740  -21.3220  -45.8090 C.3   100  LYS100      0.1693
      3  C         23.2430  -21.2520  -47.3110 C.2   100  LYS100      0.2592
      4  O         24.0860  -21.5680  -48.1430 O.2   100  LYS100     -0.2718
      5  CB        23.3860  -22.7870  -45.3840 C.3   100  LYS100      0.0285
      6  CG        23.9190  -23.1450  -44.0010 C.3   100  LYS100      0.0035
      7  CD        25.2800  -23.8440  -44.0430 C.3   100  LYS100      0.0206
      8  CE        25.3200  -25.2110  -44.7040 C.3   100  LYS100      0.1093
      9  NZ        24.5470  -26.2320  -43.9580 N.3   100  LYS100     -0.1314
     10  N         22.0000  -20.8820  -47.6430 N.am  101  TYR101     -0.1976
     11  CA        21.4470  -20.8270  -48.9910 C.3   101  TYR101      0.1639
     12  C         21.7580  -19.5300  -49.7570 C.2   101  TYR101      0.2290
     13  O         21.1460  -19.2660  -50.7960 O.2   101  TYR101     -0.2864
     14  CB        19.9390  -21.1140  -48.9610 C.3   101  TYR101      0.0560
     15  CG        19.6060  -22.5080  -48.4710 C.ar  101  TYR101     -0.0198
     16  CD1       19.4130  -22.7660  -47.1130 C.ar  101  TYR101     -0.0009
     17  CD2       19.4490  -23.5660  -49.3650 C.ar  101  TYR101     -0.0009
     18  CE1       19.0730  -24.0400  -46.6570 C.ar  101  TYR101      0.0417
     19  CE2       19.1130  -24.8490  -48.9220 C.ar  101  TYR101      0.0417
     20  CZ        18.9230  -25.0790  -47.5650 C.ar  101  TYR101      0.1957
     21  OH        18.6030  -26.3400  -47.1150 O.3   101  TYR101     -0.2866
     22  N         18.5190  -29.6770  -39.5690 N.3   135  PRO135     -0.2102
     23  CA        19.8960  -29.4750  -39.0710 C.3   135  PRO135      0.1504
     24  C         20.0740  -28.1820  -38.2660 C.2   135  PRO135      0.2576
     25  O         19.3310  -27.2190  -38.4480 O.2   135  PRO135     -0.2718
     26  CB        20.7430  -29.4810  -40.3590 C.3   135  PRO135      0.0282
     27  CG        19.8210  -28.9540  -41.4100 C.3   135  PRO135      0.0208
     28  CD        18.4110  -29.3860  -41.0180 C.3   135  PRO135      0.0893
     29  N         21.0250  -28.1810  -37.3360 N.am  136  THR136     -0.1939
     30  CA        21.3120  -26.9870  -36.5280 C.3   136  THR136      0.2028
     31  C         22.8140  -26.7710  -36.4490 C.2   136  THR136      0.2642
     32  O         23.5830  -27.7050  -36.6230 O.2   136  THR136     -0.2714
     33  CB        20.7860  -27.1100  -35.0870 C.3   136  THR136      0.1808
     34  OG1       21.3920  -28.2340  -34.4460 O.3   136  THR136     -0.2208
     35  CG2       19.2420  -27.1490  -34.9800 C.3   136  THR136      0.0379
     36  N         23.2150  -25.5410  -36.1220 N.am  137  THR137     -0.1950
     37  CA        24.6050  -25.1690  -35.9070 C.3   137  THR137      0.1897
     38  C         24.8040  -25.0470  -34.3890 C.2   137  THR137      0.2313
     39  O         23.9110  -24.5780  -33.6770 O.2   137  THR137     -0.2863
     40  CB        24.9320  -23.8530  -36.6500 C.3   137  THR137      0.1794
     41  OG1       24.6100  -24.0260  -38.0340 O.3   137  THR137     -0.2208
     42  CG2       26.4190  -23.4390  -36.5090 C.3   137  THR137      0.0378
     43  N         21.1520  -23.5020  -32.9980 N.3   158  TYR158     -0.1241
     44  CA        20.1400  -22.8070  -33.7810 C.3   158  TYR158      0.1605
     45  C         19.9460  -23.3170  -35.2110 C.2   158  TYR158      0.2264
     46  O         20.9260  -23.6620  -35.8690 O.2   158  TYR158     -0.2867
     47  CB        20.4560  -21.2880  -33.7960 C.3   158  TYR158      0.0534
     48  CG        21.7660  -20.9270  -34.4900 C.ar  158  TYR158     -0.0201
     49  CD1       22.9690  -20.9340  -33.7970 C.ar  158  TYR158     -0.0009
     50  CD2       21.7840  -20.5110  -35.8210 C.ar  158  TYR158     -0.0009
     51  CE1       24.1720  -20.6010  -34.4270 C.ar  158  TYR158      0.0417
     52  CE2       22.9810  -20.1680  -36.4590 C.ar  158  TYR158      0.0417
     53  CZ        24.1710  -20.1990  -35.7510 C.ar  158  TYR158      0.1957
     54  OH        25.3610  -19.8550  -36.3650 O.3   158  TYR158     -0.2866
     55  N         18.7800  -22.8660  -39.4070 N.3   160  ASP160     -0.1239
     56  CA        19.0320  -21.9160  -40.4870 C.3   160  ASP160      0.1674
     57  C         18.0100  -20.7840  -40.5170 C.2   160  ASP160      0.2266
     58  O         16.8440  -20.9900  -40.1660 O.2   160  ASP160     -0.2867
     59  CB        19.0570  -22.6500  -41.8300 C.3   160  ASP160      0.1410
     60  CG        19.5830  -21.7750  -42.9430 C.2   160  ASP160      0.3668
     61  OD1       20.8070  -21.5460  -42.9820 O.co2 160  ASP160     -0.2456
     62  OD2       18.7570  -21.2810  -43.7540 O.co2 160  ASP160     -0.2456
     63  N         25.8330  -29.3660  -36.1820 N.3   263  PHE263     -0.1227
     64  CA        27.0220  -29.2340  -37.0200 C.3   263  PHE263      0.1736
     65  C         27.8180  -28.0320  -36.5310 C.2   263  PHE263      0.2595
     66  O         27.2150  -27.0590  -36.1000 O.2   263  PHE263     -0.2718
     67  CB        26.6240  -29.0360  -38.5010 C.3   263  PHE263      0.0547
     68  CG        25.7890  -30.1710  -39.0740 C.ar  263  PHE263     -0.0202
     69  CD1       24.4100  -30.2220  -38.8630 C.ar  263  PHE263     -0.0042
     70  CD2       26.3870  -31.2030  -39.7920 C.ar  263  PHE263     -0.0042
     71  CE1       23.6510  -31.3050  -39.3380 C.ar  263  PHE263     -0.0003
     72  CE2       25.6210  -32.2770  -40.2790 C.ar  263  PHE263     -0.0003
     73  CZ        24.2600  -32.3160  -40.0590 C.ar  263  PHE263     -0.0000
     74  N         29.1710  -28.0870  -36.5950 N.am  264  ASN264     -0.1960
     75  CA        30.0020  -26.9450  -36.2250 C.3   264  ASN264      0.1819
     76  C         30.0090  -25.9110  -37.3710 C.2   264  ASN264      0.2622
     77  O         29.3460  -26.1090  -38.4000 O.2   264  ASN264     -0.2715
     78  CB        31.4240  -27.3860  -35.7890 C.3   264  ASN264      0.1195
     79  CG        32.3070  -28.0380  -36.8570 C.2   264  ASN264      0.2630
     80  OD1       32.0800  -27.9250  -38.0550 O.2   264  ASN264     -0.2716
     81  ND2       33.3410  -28.7510  -36.4360 N.am  264  ASN264     -0.0877
     82  N         30.7440  -24.8030  -37.1980 N.am  265  SER265     -0.1936
     83  CA        30.8460  -23.7070  -38.1700 C.3   265  SER265      0.2055
     84  C         31.4500  -24.1330  -39.5220 C.2   265  SER265      0.2643
     85  O         31.2580  -23.4300  -40.5230 O.2   265  SER265     -0.2714
     86  CB        31.6420  -22.5450  -37.5770 C.3   265  SER265      0.2130
     87  OG        32.9780  -22.9460  -37.3300 O.3   265  SER265     -0.2179
     88  N         32.1510  -25.2790  -39.5470 N.am  266  LYS266     -0.1963
     89  CA        32.8010  -25.8620  -40.7370 C.3   266  LYS266      0.1728
     90  C         31.9070  -26.8810  -41.4980 C.2   266  LYS266      0.2616
     91  O         32.3460  -27.4420  -42.5020 O.2   266  LYS266     -0.2715
     92  CB        34.1110  -26.5520  -40.3210 C.3   266  LYS266      0.0311
     93  CG        35.1690  -25.5920  -39.8030 C.3   266  LYS266      0.0038
     94  CD        36.4760  -26.3030  -39.5240 C.3   266  LYS266      0.0206
     95  CE        37.6020  -25.3170  -39.3210 C.3   266  LYS266      0.1093
     96  NZ        38.9150  -25.9970  -39.1810 N.3   266  LYS266     -0.1314
     97  N         30.6960  -27.1350  -40.9970 N.am  267  GLY267     -0.1955
     98  CA        29.7770  -28.1060  -41.5930 C.3   267  GLY267      0.1869
     99  C         30.0070  -29.5470  -41.1670 C.2   267  GLY267      0.2309
    100  O         29.3680  -30.4540  -41.6950 O.2   267  GLY267     -0.2863
@<TRIPOS>BOND
     1    13    12    2
     2    12    11    1
     3    17    19   ar
     4    17    15   ar
     5    11    14    1
     6    11    10    1
     7    14    15    1
     8    19    20   ar
     9    15    16   ar
    10     4     3    2
    11    10     3   am
    12    20    21    1
    13    20    18   ar
    14     3     2    1
    15    16    18   ar
    16     2     5    1
    17     2     1    1
    18     5     6    1
    19     8     7    1
    20     8     9    1
    21     7     6    1
    22    62    60   ar
    23    61    60   ar
    24    60    59    1
    25    91    90    2
    26    59    56    1
    27   100    99    2
    28    98    99    1
    29    98    97    1
    30    90    97   am
    31    90    89    1
    32    27    28    1
    33    27    26    1
    34    28    22    1
    35    89    92    1
    36    89    88    1
    37    85    84    2
    38    57    56    1
    39    57    58    2
    40    56    55    1
    41    26    23    1
    42    92    93    1
    43    72    73   ar
    44    72    70   ar
    45    73    71   ar
    46    93    94    1
    47    70    68   ar
    48    22    23    1
    49    88    84   am
    50    94    95    1
    51    84    83    1
    52    71    69   ar
    53    95    96    1
    54    68    69   ar
    55    68    67    1
    56    23    24    1
    57    67    64    1
    58    25    24    2
    59    77    76    2
    60    24    29   am
    61    83    86    1
    62    83    82    1
    63    80    79    2
    64    41    40    1
    65    86    87    1
    66    76    82   am
    67    76    75    1
    68    29    30    1
    69    64    65    1
    70    64    63    1
    71    79    81   am
    72    79    78    1
    73    40    42    1
    74    40    37    1
    75    32    31    2
    76    74    65   am
    77    74    75    1
    78    65    66    2
    79    30    31    1
    80    30    33    1
    81    52    50   ar
    82    52    53   ar
    83    31    36   am
    84    54    53    1
    85    75    78    1
    86    36    37    1
    87    37    38    1
    88    46    45    2
    89    50    48   ar
    90    53    51   ar
    91    45    44    1
    92    33    35    1
    93    33    34    1
    94    48    49   ar
    95    48    47    1
    96    51    49   ar
    97    38    39    2
    98    47    44    1
    99    44    43    1
