@<TRIPOS>MOLECULE
tmp/5qj1A00.pdb
 236 225 0 0 0
SMALL
GASTEIGER

@<TRIPOS>ATOM
      1  N          8.5070  -11.9400  -17.5960 N.3   189  PHE189     -0.1227
      2  CA         8.9710  -11.0210  -18.6500 C.3   189  PHE189      0.1736
      3  C          8.0100   -9.8760  -19.0120 C.2   189  PHE189      0.2595
      4  O          8.2690   -9.1620  -19.9750 O.2   189  PHE189     -0.2718
      5  CB         9.3680  -11.8180  -19.9130 C.3   189  PHE189      0.0547
      6  CG        10.5120  -12.7920  -19.7070 C.ar  189  PHE189     -0.0202
      7  CD1       11.7040  -12.3810  -19.1190 C.ar  189  PHE189     -0.0042
      8  CD2       10.3980  -14.1180  -20.1050 C.ar  189  PHE189     -0.0042
      9  CE1       12.7700  -13.2720  -18.9610 C.ar  189  PHE189     -0.0003
     10  CE2       11.4690  -15.0050  -19.9530 C.ar  189  PHE189     -0.0003
     11  CZ        12.6500  -14.5730  -19.3960 C.ar  189  PHE189     -0.0000
     12  N          6.9520   -9.6570  -18.2380 N.am  190  GLN190     -0.1965
     13  CA         6.0080   -8.5820  -18.5200 C.3   190  GLN190      0.1733
     14  C          6.2880   -7.3220  -17.6860 C.2   190  GLN190      0.2616
     15  O          5.5940   -6.3140  -17.8420 O.2   190  GLN190     -0.2715
     16  CB         4.5800   -9.0750  -18.2560 C.3   190  GLN190      0.0408
     17  CG         4.2750   -9.3360  -16.7700 C.3   190  GLN190      0.0908
     18  CD         2.9390   -9.9840  -16.5840 C.2   190  GLN190      0.2608
     19  OE1        2.8250  -11.0860  -16.0560 O.2   190  GLN190     -0.2717
     20  NE2        1.8980   -9.3220  -17.0130 N.am  190  GLN190     -0.0878
     21  N          7.2610   -7.3970  -16.7670 N.am  191  TYR191     -0.1960
     22  CA         7.5310   -6.3120  -15.8460 C.3   191  TYR191      0.1771
     23  C          8.7660   -5.4970  -16.1350 C.2   191  TYR191      0.2620
     24  O          9.8490   -6.0350  -16.3560 O.2   191  TYR191     -0.2715
     25  CB         7.6490   -6.8460  -14.3850 C.3   191  TYR191      0.0574
     26  CG         6.4520   -7.6150  -13.8790 C.ar  191  TYR191     -0.0198
     27  CD1        5.2610   -6.9620  -13.5590 C.ar  191  TYR191     -0.0009
     28  CD2        6.5250   -8.9890  -13.6540 C.ar  191  TYR191     -0.0009
     29  CE1        4.1580   -7.6640  -13.0740 C.ar  191  TYR191      0.0417
     30  CE2        5.4290   -9.7010  -13.1620 C.ar  191  TYR191      0.0417
     31  CZ         4.2470   -9.0340  -12.8870 C.ar  191  TYR191      0.1957
     32  OH         3.1750   -9.7200  -12.4070 O.3   191  TYR191     -0.2866
     33  N          8.6270   -4.1940  -15.9590 N.am  192  SER192     -0.1936
     34  CA         9.7430   -3.2630  -15.9820 C.3   192  SER192      0.2040
     35  C         10.4200   -3.4920  -14.6030 C.2   192  SER192      0.2485
     36  O          9.7790   -4.0810  -13.7210 O.2   192  SER192     -0.2729
     37  CB         9.2080   -1.8360  -16.0260 C.3   192  SER192      0.2129
     38  OG         8.5870   -1.4980  -14.7950 O.3   192  SER192     -0.2179
     39  N         11.6670   -3.0490  -14.3630 N.am  193  PRO193     -0.2726
     40  CA        12.2610   -3.2620  -13.0330 C.3   193  PRO193      0.1402
     41  C         11.4490   -2.6610  -11.8490 C.2   193  PRO193      0.2269
     42  O         11.3660   -3.3080  -10.8090 O.2   193  PRO193     -0.2865
     43  CB        13.6640   -2.6620  -13.1820 C.3   193  PRO193      0.0296
     44  CG        13.9620   -2.7510  -14.6520 C.3   193  PRO193      0.0237
     45  CD        12.6480   -2.4340  -15.2930 C.3   193  PRO193      0.0939
     46  N          8.1570   -2.2960  -11.7230 N.3   195  GLN195     -0.1231
     47  CA         6.9470   -3.1190  -11.6000 C.3   195  GLN195      0.1698
     48  C          7.2780   -4.4690  -10.9630 C.2   195  GLN195      0.2592
     49  O          6.4590   -4.9990  -10.2080 O.2   195  GLN195     -0.2718
     50  CB         6.2920   -3.3210  -12.9550 C.3   195  GLN195      0.0381
     51  CG         5.6240   -2.0580  -13.5130 C.3   195  GLN195      0.0905
     52  CD         5.1480   -2.2530  -14.9480 C.2   195  GLN195      0.2608
     53  OE1        5.6470   -3.0970  -15.7220 O.2   195  GLN195     -0.2717
     54  NE2        4.1690   -1.4630  -15.3420 N.am  195  GLN195     -0.0878
     55  N          8.4870   -5.0160  -11.2480 N.am  196  ARG196     -0.1980
     56  CA         8.9280   -6.2920  -10.6670 C.3   196  ARG196      0.1597
     57  C          9.0800   -6.1400   -9.1500 C.2   196  ARG196      0.2287
     58  O          8.6420   -7.0090   -8.4020 O.2   196  ARG196     -0.2864
     59  CB        10.2590   -6.7590  -11.2890 C.3   196  ARG196      0.0334
     60  CG        10.6360   -8.2000  -10.9310 C.3   196  ARG196      0.0492
     61  CD        11.9410   -8.6260  -11.6070 C.3   196  ARG196      0.2205
     62  NE        11.9090   -8.3830  -13.0570 N.pl3 196  ARG196     -0.0865
     63  CZ        11.3310   -9.1720  -13.9620 C.cat 196  ARG196      0.5346
     64  NH1       10.7530  -10.3120  -13.5940 N.pl3 196  ARG196      0.1354
     65  NH2       11.3190   -8.8260  -15.2340 N.pl3 196  ARG196      0.1354
     66  N          7.1140   -7.9930   -6.0340 N.3   200  LEU200     -0.1245
     67  CA         7.7840   -8.6580   -4.9150 C.3   200  LEU200      0.1561
     68  C          7.3720   -8.0560   -3.5530 C.2   200  LEU200      0.2260
     69  O          7.1930   -8.7970   -2.5810 O.2   200  LEU200     -0.2867
     70  CB         9.3270   -8.5810   -5.0890 C.3   200  LEU200      0.0270
     71  CG         9.8580   -9.3350   -6.3140 C.3   200  LEU200      0.0019
     72  CD1       11.2570   -8.8910   -6.6730 C.3   200  LEU200      0.0001
     73  CD2        9.7350  -10.8730   -6.1120 C.3   200  LEU200      0.0001
     74  N          7.2470  -16.2900   -9.2080 N.3   310  LEU310     -0.1245
     75  CA         7.7520  -15.3900  -10.2590 C.3   310  LEU310      0.1561
     76  C          8.7520  -16.2020  -11.0700 C.2   310  LEU310      0.2260
     77  O          9.7380  -16.6760  -10.5020 O.2   310  LEU310     -0.2867
     78  CB         8.3870  -14.0970   -9.7010 C.3   310  LEU310      0.0270
     79  CG         8.7420  -12.9850  -10.7420 C.3   310  LEU310      0.0019
     80  CD1        7.4920  -12.5340  -11.5630 C.3   310  LEU310      0.0001
     81  CD2        9.3750  -11.7960  -10.0580 C.3   310  LEU310      0.0001
     82  N         11.1810  -16.5760  -14.6920 N.3   312  CYS312     -0.1235
     83  CA        11.9340  -16.0090  -15.8340 C.3   312  CYS312      0.1677
     84  C         12.7680  -17.1010  -16.4230 C.2   312  CYS312      0.2270
     85  O         13.8940  -17.2980  -15.9670 O.2   312  CYS312     -0.2867
     86  CB        12.8160  -14.8510  -15.3890 C.3   312  CYS312      0.0956
     87  SG        11.9360  -13.3050  -15.1980 S.3   312  CYS312     -0.0801
     88  N         14.7330  -19.3540  -14.1590 N.3   315  ASP315     -0.1239
     89  CA        14.9220  -18.6610  -12.8820 C.3   315  ASP315      0.1674
     90  C         13.5530  -18.5590  -12.2240 C.2   315  ASP315      0.2266
     91  O         12.5830  -18.1130  -12.8390 O.2   315  ASP315     -0.2867
     92  CB        15.5280  -17.2740  -13.0600 C.3   315  ASP315      0.1410
     93  CG        17.0410  -17.2830  -13.1170 C.2   315  ASP315      0.3668
     94  OD1       17.6790  -17.2190  -12.0340 O.co2 315  ASP315     -0.2456
     95  OD2       17.5870  -17.3160  -14.2360 O.co2 315  ASP315     -0.2456
     96  N         11.3750  -17.8180   -8.3370 N.3   317  VAL317     -0.1245
     97  CA        11.2460  -17.3330   -6.9700 C.3   317  VAL317      0.1561
     98  C          9.8620  -17.6730   -6.4590 C.2   317  VAL317      0.2260
     99  O          8.8600  -17.4290   -7.1370 O.2   317  VAL317     -0.2867
    100  CB        11.5930  -15.8310   -6.7970 C.3   317  VAL317      0.0252
    101  CG1       11.2370  -15.3330   -5.3810 C.3   317  VAL317      0.0019
    102  CG2       13.0790  -15.6030   -7.0710 C.3   317  VAL317      0.0019
    103  N         13.2700  -10.2310    2.2880 N.3   356  LEU356     -0.1245
    104  CA        13.1540  -10.1590    0.8270 C.3   356  LEU356      0.1561
    105  C         14.5110   -9.8530    0.1460 C.2   356  LEU356      0.2260
    106  O         14.8130  -10.4500   -0.8800 O.2   356  LEU356     -0.2867
    107  CB        12.0660   -9.1280    0.4390 C.3   356  LEU356      0.0270
    108  CG        11.8970   -8.7630   -1.0510 C.3   356  LEU356      0.0019
    109  CD1       11.3720   -9.9190   -1.8690 C.3   356  LEU356      0.0001
    110  CD2       11.0090   -7.5460   -1.2110 C.3   356  LEU356      0.0001
    111  N         17.2320  -12.7800   -1.0280 N.3   359  ILE359     -0.1245
    112  CA        16.9840  -13.7360   -2.1290 C.3   359  ILE359      0.1561
    113  C         17.7370  -13.2600   -3.3770 C.2   359  ILE359      0.2260
    114  O         17.5790  -12.1040   -3.7730 O.2   359  ILE359     -0.2867
    115  CB        15.4530  -13.8190   -2.4250 C.3   359  ILE359      0.0252
    116  CG1       14.6540  -14.2170   -1.1490 C.3   359  ILE359      0.0019
    117  CG2       15.1560  -14.7260   -3.6470 C.3   359  ILE359      0.0019
    118  CD1       13.1570  -13.8200   -1.1400 C.3   359  ILE359      0.0001
    119  N         18.1390  -13.9680   -7.4440 N.3   361  SER361     -0.1202
    120  CA        17.4950  -14.5630   -8.6180 C.3   361  SER361      0.2020
    121  C         17.8580  -13.7190   -9.8230 C.2   361  SER361      0.2619
    122  O         17.8250  -12.4960   -9.7260 O.2   361  SER361     -0.2717
    123  CB        15.9840  -14.5850   -8.4460 C.3   361  SER361      0.2103
    124  OG        15.3740  -15.2290   -9.5520 O.3   361  SER361     -0.2182
    125  N         18.1750  -14.3630  -10.9710 N.am  362  CYS362     -0.1969
    126  CA        18.6210  -13.6590  -12.1950 C.3   362  CYS362      0.1712
    127  C         19.8230  -12.7820  -11.8270 C.2   362  CYS362      0.2296
    128  O         19.8980  -11.6160  -12.2370 O.2   362  CYS362     -0.2864
    129  CB        17.4900  -12.8400  -12.8220 C.3   362  CYS362      0.0983
    130  SG        16.1140  -13.8320  -13.4430 S.3   362  CYS362     -0.0798
    131  N         20.3610  -11.1210   -9.2900 N.3   364  SER364     -0.1202
    132  CA        19.9530   -9.8910   -8.6330 C.3   364  SER364      0.2020
    133  C         19.3180  -10.0520   -7.2660 C.2   364  SER364      0.2619
    134  O         18.8180  -11.1210   -6.9310 O.2   364  SER364     -0.2717
    135  CB        18.9900   -9.1350   -9.5540 C.3   364  SER364      0.2103
    136  OG        19.5100   -9.1560  -10.8740 O.3   364  SER364     -0.2182
    137  N         19.2990   -8.9570   -6.4910 N.am  365  ASN365     -0.1960
    138  CA        18.6130   -8.9040   -5.2030 C.3   365  ASN365      0.1819
    139  C         18.0030   -7.5230   -5.0490 C.2   365  ASN365      0.2621
    140  O         18.4730   -6.5510   -5.6460 O.2   365  ASN365     -0.2715
    141  CB        19.5490   -9.2170   -4.0090 C.3   365  ASN365      0.1195
    142  CG        20.6070   -8.1700   -3.7750 C.2   365  ASN365      0.2630
    143  OD1       21.6320   -8.1360   -4.4630 O.2   365  ASN365     -0.2716
    144  ND2       20.3740   -7.2670   -2.8220 N.am  365  ASN365     -0.0877
    145  N         16.9810   -7.4440   -4.2070 N.am  366  VAL366     -0.1977
    146  CA        16.3130   -6.2100   -3.8380 C.3   366  VAL366      0.1596
    147  C         17.1950   -5.5090   -2.7950 C.2   366  VAL366      0.2287
    148  O         17.7480   -6.1600   -1.9080 O.2   366  VAL366     -0.2864
    149  CB        14.8810   -6.4990   -3.3070 C.3   366  VAL366      0.0276
    150  CG1       14.2130   -5.2320   -2.7560 C.3   366  VAL366      0.0022
    151  CG2       14.0190   -7.1540   -4.3980 C.3   366  VAL366      0.0022
    152  N         16.2070   -3.1200   -7.6690 N.3   380  LEU380     -0.1245
    153  CA        17.0070   -4.3090   -7.9520 C.3   380  LEU380      0.1561
    154  C         18.4490   -3.9410   -8.2210 C.2   380  LEU380      0.2260
    155  O         18.7320   -2.9560   -8.8960 O.2   380  LEU380     -0.2867
    156  CB        16.4170   -5.1400   -9.1280 C.3   380  LEU380      0.0270
    157  CG        15.1270   -5.9170   -8.7660 C.3   380  LEU380      0.0019
    158  CD1       14.2490   -6.1330  -10.0030 C.3   380  LEU380      0.0001
    159  CD2       15.4290   -7.2110   -8.0050 C.3   380  LEU380      0.0001
    160  N         20.5050    0.6160  -18.2540 N.3   409  ILE409     -0.1231
    161  CA        19.0530    0.5960  -18.3360 C.3   409  ILE409      0.1692
    162  C         18.4290   -0.2280  -17.2040 C.2   409  ILE409      0.2592
    163  O         17.5580    0.2790  -16.5190 O.2   409  ILE409     -0.2718
    164  CB        18.5970    0.1500  -19.7510 C.3   409  ILE409      0.0266
    165  CG1       18.9580    1.2630  -20.7960 C.3   409  ILE409      0.0019
    166  CG2       17.0830   -0.1730  -19.7710 C.3   409  ILE409      0.0020
    167  CD1       19.1410    0.7920  -22.2650 C.3   409  ILE409      0.0001
    168  N         18.8570   -1.4820  -17.0200 N.am  410  GLN410     -0.1966
    169  CA        18.2780   -2.3730  -16.0160 C.3   410  GLN410      0.1733
    170  C         18.5710   -1.9890  -14.5870 C.2   410  GLN410      0.2616
    171  O         17.7450   -2.2340  -13.7110 O.2   410  GLN410     -0.2715
    172  CB        18.7530   -3.8140  -16.2580 C.3   410  GLN410      0.0408
    173  CG        18.1500   -4.4540  -17.5070 C.3   410  GLN410      0.0908
    174  CD        18.3980   -5.9350  -17.4710 C.2   410  GLN410      0.2608
    175  OE1       17.5420   -6.7100  -17.0460 O.2   410  GLN410     -0.2717
    176  NE2       19.5880   -6.3570  -17.8800 N.am  410  GLN410     -0.0878
    177  N         19.7610   -1.4190  -14.3400 N.am  411  TYR411     -0.1974
    178  CA        20.2040   -1.1290  -12.9760 C.3   411  TYR411      0.1639
    179  C         20.4820    0.3620  -12.7440 C.2   411  TYR411      0.2290
    180  O         21.2910    0.7120  -11.8800 O.2   411  TYR411     -0.2864
    181  CB        21.4730   -1.9700  -12.6910 C.3   411  TYR411      0.0560
    182  CG        21.2560   -3.4670  -12.6920 C.ar  411  TYR411     -0.0198
    183  CD1       20.6620   -4.1090  -11.6020 C.ar  411  TYR411     -0.0009
    184  CD2       21.7230   -4.2560  -13.7390 C.ar  411  TYR411     -0.0009
    185  CE1       20.4940   -5.4910  -11.5780 C.ar  411  TYR411      0.0417
    186  CE2       21.6160   -5.6500  -13.7000 C.ar  411  TYR411      0.0417
    187  CZ        20.9660   -6.2570  -12.6360 C.ar  411  TYR411      0.1957
    188  OH        20.8530   -7.6220  -12.5780 O.3   411  TYR411     -0.2866
    189  N         21.1810   -7.6750  -24.8590 N.3   443  MET443     -0.1230
    190  CA        20.2820   -7.8030  -23.7090 C.3   443  MET443      0.1702
    191  C         19.4560   -9.1020  -23.8100 C.2   443  MET443      0.2592
    192  O         18.4930   -9.1640  -24.5780 O.2   443  MET443     -0.2718
    193  CB        19.3550   -6.5700  -23.5980 C.3   443  MET443      0.0401
    194  CG        19.5170   -5.7840  -22.3070 C.3   443  MET443      0.0596
    195  SD        17.9490   -5.0150  -21.8190 S.3   443  MET443     -0.1393
    196  CE        18.5030   -3.5160  -21.1590 C.3   443  MET443      0.0692
    197  N         19.8530  -10.1370  -23.0360 N.am  444  TYR444     -0.1976
    198  CA        19.2180  -11.4690  -22.9470 C.3   444  TYR444      0.1639
    199  C         19.0910  -12.1650  -24.3190 C.2   444  TYR444      0.2290
    200  O         17.9900  -12.5530  -24.7330 O.2   444  TYR444     -0.2864
    201  CB        17.8680  -11.4170  -22.1870 C.3   444  TYR444      0.0560
    202  CG        18.0010  -10.8260  -20.8000 C.ar  444  TYR444     -0.0198
    203  CD1       18.3670  -11.6170  -19.7170 C.ar  444  TYR444     -0.0009
    204  CD2       17.8160   -9.4640  -20.5810 C.ar  444  TYR444     -0.0009
    205  CE1       18.5400  -11.0700  -18.4470 C.ar  444  TYR444      0.0417
    206  CE2       17.9850   -8.9060  -19.3170 C.ar  444  TYR444      0.0417
    207  CZ        18.3490   -9.7130  -18.2530 C.ar  444  TYR444      0.1957
    208  OH        18.5140   -9.1790  -17.0010 O.3   444  TYR444     -0.2866
    209  N         19.6900   -4.9670  -29.2660 N.3   448  TYR448     -0.1241
    210  CA        18.7890   -3.8130  -29.2780 C.3   448  TYR448      0.1605
    211  C         19.5420   -2.5630  -29.7270 C.2   448  TYR448      0.2264
    212  O         20.7730   -2.5020  -29.6370 O.2   448  TYR448     -0.2867
    213  CB        18.2350   -3.5410  -27.8690 C.3   448  TYR448      0.0534
    214  CG        17.1820   -4.4940  -27.3540 C.ar  448  TYR448     -0.0201
    215  CD1       17.5390   -5.6480  -26.6620 C.ar  448  TYR448     -0.0009
    216  CD2       15.8300   -4.1730  -27.4280 C.ar  448  TYR448     -0.0009
    217  CE1       16.5750   -6.4980  -26.1230 C.ar  448  TYR448      0.0417
    218  CE2       14.8550   -5.0170  -26.8980 C.ar  448  TYR448      0.0417
    219  CZ        15.2330   -6.1790  -26.2450 C.ar  448  TYR448      0.1957
    220  OH        14.2780   -7.0160  -25.7200 O.3   448  TYR448     -0.2866
    221  N         10.9700    3.2210  -16.7430 N.3   462  LEU462     -0.1245
    222  CA        11.2380    1.8870  -16.1960 C.3   462  LEU462      0.1561
    223  C         11.4640    1.8040  -14.6920 C.2   462  LEU462      0.2260
    224  O         11.2590    0.7410  -14.1170 O.2   462  LEU462     -0.2867
    225  CB        12.4370    1.2600  -16.9210 C.3   462  LEU462      0.0270
    226  CG        12.2780    1.0020  -18.4310 C.3   462  LEU462      0.0019
    227  CD1       13.5520    0.4480  -19.0170 C.3   462  LEU462      0.0001
    228  CD2       11.1300    0.0410  -18.7320 C.3   462  LEU462      0.0001
    229  N          7.9820    0.3270  -24.9760 N.3   543  LEU543     -0.1245
    230  CA         7.5120   -1.0390  -25.2040 C.3   543  LEU543      0.1561
    231  C          6.4560   -1.0650  -26.3000 C.2   543  LEU543      0.2260
    232  O          6.3900   -2.0200  -27.0680 O.2   543  LEU543     -0.2867
    233  CB         6.9380   -1.6250  -23.9080 C.3   543  LEU543      0.0270
    234  CG         7.9450   -1.9510  -22.8050 C.3   543  LEU543      0.0019
    235  CD1        7.1860   -2.3750  -21.5690 C.3   543  LEU543      0.0001
    236  CD2        8.8890   -3.0540  -23.2090 C.3   543  LEU543      0.0001
@<TRIPOS>BOND
     1   211   212    2
     2   211   210    1
     3   210   209    1
     4   210   213    1
     5   213   214    1
     6   216   214   ar
     7   216   218   ar
     8   214   215   ar
     9   232   231    2
    10   218   219   ar
    11   215   217   ar
    12   231   230    1
    13   219   217   ar
    14   219   220    1
    15   230   229    1
    16   230   233    1
    17   189   190    1
    18   200   199    2
    19   192   191    2
    20   199   198    1
    21   233   234    1
    22   191   190    1
    23   191   197   am
    24   190   193    1
    25   193   194    1
    26   236   234    1
    27   197   198    1
    28   198   201    1
    29   234   235    1
    30   194   195    1
    31   167   165    1
    32   201   202    1
    33   195   196    1
    34   202   204   ar
    35   202   203   ar
    36   165   164    1
    37   204   206   ar
    38     8    10   ar
    39     8     6   ar
    40     4     3    2
    41    10    11   ar
    42     5     6    1
    43     5     2    1
    44   166   164    1
    45   164   161    1
    46   203   205   ar
    47     6     7   ar
    48    11     9   ar
    49   206   207   ar
    50     7     9   ar
    51   227   226    1
    52     3     2    1
    53     3    12   am
    54   228   226    1
    55     2     1    1
    56    13    16    1
    57    13    12    1
    58    13    14    1
    59   205   207   ar
    60   226   225    1
    61   161   160    1
    62   161   162    1
    63    16    17    1
    64   207   208    1
    65   176   174   am
    66    15    14    2
    67    14    21   am
    68   173   174    1
    69   173   172    1
    70   174   175    2
    71   162   168   am
    72   162   163    2
    73   168   169    1
    74    20    18   am
    75   225   222    1
    76    17    18    1
    77    21    22    1
    78   221   222    1
    79    18    19    2
    80    84    85    2
    81    84    83    1
    82    24    23    2
    83   172   169    1
    84   222   223    1
    85    23    33   am
    86    23    22    1
    87    37    34    1
    88    37    38    1
    89   169   170    1
    90    34    33    1
    91    34    35    1
    92    22    25    1
    93    83    86    1
    94    83    82    1
    95    53    52    2
    96    86    87    1
    97    54    52   am
    98    45    44    1
    99    45    39    1
   100    65    63    1
   101    52    51    1
   102   223   224    2
   103    44    43    1
   104    35    39   am
   105    35    36    2
   106   170   177   am
   107   170   171    2
   108    25    26    1
   109    39    40    1
   110   177   178    1
   111    95    93   ar
   112    88    89    1
   113    63    64    1
   114    63    62    2
   115    26    28   ar
   116    26    27   ar
   117   184   186   ar
   118   184   182   ar
   119   186   187   ar
   120    28    30   ar
   121    27    29   ar
   122    51    50    1
   123   130   129    1
   124    43    40    1
   125    30    31   ar
   126    93    92    1
   127    93    94   ar
   128    29    31   ar
   129    92    89    1
   130    62    61    1
   131    40    41    1
   132   178   179    1
   133   178   181    1
   134    50    47    1
   135    31    32    1
   136    89    90    1
   137    91    90    2
   138   129   126    1
   139   179   180    2
   140   182   181    1
   141   182   183   ar
   142   187   188    1
   143   187   185   ar
   144   128   127    2
   145   126   127    1
   146   126   125    1
   147    41    42    2
   148    46    47    1
   149    61    60    1
   150   183   185   ar
   151    47    48    1
   152    80    79    1
   153    59    60    1
   154    59    56    1
   155    55    48   am
   156    55    56    1
   157    76    77    2
   158    76    75    1
   159   125   121   am
   160    48    49    2
   161   136   135    1
   162    79    81    1
   163    79    78    1
   164    56    57    1
   165    75    78    1
   166    75    74    1
   167   158   157    1
   168   121   122    2
   169   121   120    1
   170   135   132    1
   171   124   123    1
   172   131   132    1
   173    57    58    2
   174   156   157    1
   175   156   153    1
   176   155   154    2
   177   157   159    1
   178   132   133    1
   179   120   123    1
   180   120   119    1
   181    96    97    1
   182   154   153    1
   183   153   152    1
   184   133   134    2
   185   133   137   am
   186    99    98    2
   187   102   100    1
   188    97   100    1
   189    97    98    1
   190   100   101    1
   191    72    71    1
   192   137   138    1
   193    71    73    1
   194    71    70    1
   195    66    67    1
   196   140   139    2
   197   138   139    1
   198   138   141    1
   199    70    67    1
   200   139   145   am
   201    67    68    1
   202   143   142    2
   203   151   149    1
   204   145   146    1
   205   141   142    1
   206   146   149    1
   207   146   147    1
   208   142   144   am
   209   114   113    2
   210   117   115    1
   211    68    69    2
   212   113   112    1
   213   149   150    1
   214   147   148    2
   215   115   112    1
   216   115   116    1
   217   112   111    1
   218   109   108    1
   219   110   108    1
   220   116   118    1
   221   108   107    1
   222   106   105    2
   223   105   104    1
   224   107   104    1
   225   104   103    1
