@<TRIPOS>MOLECULE
tmp/5qj3B04.pdb
 104 96 0 0 0
SMALL
GASTEIGER

@<TRIPOS>ATOM
      1  N         29.8170    1.8990   31.9810 N.3   103  LEU103     -0.1245
      2  CA        30.0950    0.7620   31.1000 C.3   103  LEU103      0.1561
      3  C         31.5470    0.6950   30.6940 C.2   103  LEU103      0.2260
      4  O         32.1670    1.7310   30.4440 O.2   103  LEU103     -0.2867
      5  CB        29.2260    0.7920   29.8300 C.3   103  LEU103      0.0270
      6  CG        27.7260    0.7550   29.9950 C.3   103  LEU103      0.0019
      7  CD1       27.0600    0.7140   28.6550 C.3   103  LEU103      0.0001
      8  CD2       27.2950   -0.3950   30.8510 C.3   103  LEU103      0.0001
      9  N         32.7270   -1.0550   27.8320 N.3   105  ASP105     -0.1239
     10  CA        32.6600   -0.8190   26.3920 C.3   105  ASP105      0.1674
     11  C         31.3110   -0.1080   26.1410 C.2   105  ASP105      0.2266
     12  O         30.3200   -0.7550   25.7850 O.2   105  ASP105     -0.2867
     13  CB        32.7810   -2.1560   25.6120 C.3   105  ASP105      0.1410
     14  CG        32.9360   -2.0320   24.1100 C.2   105  ASP105      0.3668
     15  OD1       31.9780   -1.5800   23.4490 O.co2 105  ASP105     -0.2456
     16  OD2       33.9910   -2.4470   23.5890 O.co2 105  ASP105     -0.2456
     17  N         28.6210    1.8140   24.2590 N.3   107  PRO107     -0.2116
     18  CA        28.2990    2.0540   22.8410 C.3   107  PRO107      0.1372
     19  C         27.7980    3.4700   22.5440 C.2   107  PRO107      0.2244
     20  O         27.9110    3.9150   21.4020 O.2   107  PRO107     -0.2868
     21  CB        27.2360    0.9970   22.5380 C.3   107  PRO107      0.0268
     22  CG        26.5750    0.7450   23.8320 C.3   107  PRO107      0.0207
     23  CD        27.6060    0.9450   24.9010 C.3   107  PRO107      0.0892
     24  N         26.1040    6.1460   28.1890 N.3   119  CYS119     -0.1235
     25  CA        24.7970    5.4990   28.3410 C.3   119  CYS119      0.1677
     26  C         24.1740    5.8710   29.6700 C.2   119  CYS119      0.2270
     27  O         24.8860    6.1020   30.6550 O.2   119  CYS119     -0.2867
     28  CB        24.9110    3.9770   28.2120 C.3   119  CYS119      0.0956
     29  SG        25.2340    3.3770   26.5310 S.3   119  CYS119     -0.0801
     30  N         18.9090   -2.5590   31.4460 N.3   125  THR125     -0.1203
     31  CA        20.1500   -2.2520   30.7220 C.3   125  THR125      0.1994
     32  C         19.9500   -1.6840   29.3130 C.2   125  THR125      0.2617
     33  O         20.9160   -1.2110   28.7040 O.2   125  THR125     -0.2717
     34  CB        21.0760   -3.4800   30.6790 C.3   125  THR125      0.1784
     35  OG1       20.4120   -4.5840   30.0570 O.3   125  THR125     -0.2211
     36  CG2       21.5930   -3.8670   32.0340 C.3   125  THR125      0.0376
     37  N         18.7260   -1.7470   28.7830 N.am  126  ARG126     -0.1979
     38  CA        18.4770   -1.2730   27.4200 C.3   126  ARG126      0.1597
     39  C         17.9650    0.1930   27.2940 C.2   126  ARG126      0.2287
     40  O         17.6870    0.6200   26.1750 O.2   126  ARG126     -0.2864
     41  CB        17.5940   -2.2770   26.6320 C.3   126  ARG126      0.0334
     42  CG        18.1790   -3.6750   26.5240 C.3   126  ARG126      0.0492
     43  CD        17.1050   -4.7250   26.3170 C.3   126  ARG126      0.2205
     44  NE        16.3030   -5.0000   27.5060 N.pl3 126  ARG126     -0.0865
     45  CZ        15.3010   -5.8700   27.5340 C.cat 126  ARG126      0.5346
     46  NH1       14.9790   -6.5590   26.4410 N.pl3 126  ARG126      0.1354
     47  NH2       14.6140   -6.0680   28.6580 N.pl3 126  ARG126      0.1354
     48  N         19.0190    2.4280   24.3190 N.3   129  GLU129     -0.1245
     49  CA        18.9390    1.7620   23.0040 C.3   129  GLU129      0.1567
     50  C         18.4310    2.6890   21.8780 C.2   129  GLU129      0.2260
     51  O         19.0260    2.7200   20.8010 O.2   129  GLU129     -0.2867
     52  CB        18.1500    0.4600   23.0990 C.3   129  GLU129      0.0388
     53  CG        18.4910   -0.5300   22.0170 C.3   129  GLU129      0.1160
     54  CD        17.6360   -0.4710   20.7660 C.2   129  GLU129      0.3649
     55  OE1       16.4840    0.0270   20.8230 O.co2 129  GLU129     -0.2457
     56  OE2       18.1040   -1.0060   19.7350 O.co2 129  GLU129     -0.2457
     57  N         12.9060    5.4880   23.7530 N.3   133  LEU133     -0.1245
     58  CA        12.8460    4.6080   24.9080 C.3   133  LEU133      0.1561
     59  C         13.4020    5.3030   26.1400 C.2   133  LEU133      0.2260
     60  O         12.8220    5.1960   27.2250 O.2   133  LEU133     -0.2867
     61  CB        13.5860    3.2960   24.6050 C.3   133  LEU133      0.0270
     62  CG        13.6900    2.2560   25.7100 C.3   133  LEU133      0.0019
     63  CD1       12.3330    1.6120   26.0230 C.3   133  LEU133      0.0001
     64  CD2       14.7120    1.2290   25.3430 C.3   133  LEU133      0.0001
     65  N          8.1300   -9.8400   19.7340 N.3   220  ARG220     -0.1245
     66  CA         8.9390   -9.0500   18.8200 C.3   220  ARG220      0.1563
     67  C          8.1130   -8.6510   17.5760 C.2   220  ARG220      0.2260
     68  O          8.6810   -8.1190   16.6150 O.2   220  ARG220     -0.2867
     69  CB        10.2090   -9.8030   18.4030 C.3   220  ARG220      0.0307
     70  CG        11.1660  -10.0070   19.5440 C.3   220  ARG220      0.0489
     71  CD        12.1460  -11.0630   19.1550 C.3   220  ARG220      0.2205
     72  NE        13.0340  -11.4050   20.2590 N.pl3 220  ARG220     -0.0865
     73  CZ        14.3370  -11.5990   20.1200 C.cat 220  ARG220      0.5346
     74  NH1       14.9030  -11.5160   18.9290 N.pl3 220  ARG220      0.1354
     75  NH2       15.0810  -11.8930   21.1680 N.pl3 220  ARG220      0.1354
     76  N         21.5290    4.0980   20.4740 N.3   253  PHE253     -0.1241
     77  CA        22.4760    4.4120   21.5350 C.3   253  PHE253      0.1605
     78  C         22.9100    5.8670   21.5690 C.2   253  PHE253      0.2264
     79  O         23.7910    6.2050   22.3320 O.2   253  PHE253     -0.2867
     80  CB        23.6610    3.4350   21.5280 C.3   253  PHE253      0.0534
     81  CG        23.2500    1.9970   21.7660 C.ar  253  PHE253     -0.0203
     82  CD1       22.8650    1.5660   23.0320 C.ar  253  PHE253     -0.0042
     83  CD2       23.2760    1.0690   20.7300 C.ar  253  PHE253     -0.0042
     84  CE1       22.5170    0.2360   23.2610 C.ar  253  PHE253     -0.0003
     85  CE2       22.9520   -0.2680   20.9660 C.ar  253  PHE253     -0.0003
     86  CZ        22.5760   -0.6730   22.2330 C.ar  253  PHE253     -0.0000
     87  N         22.3730   -1.0490   14.6640 N.3   294  PHE294     -0.1241
     88  CA        23.5960   -0.7830   15.4280 C.3   294  PHE294      0.1605
     89  C         24.8120   -0.5170   14.5390 C.2   294  PHE294      0.2264
     90  O         25.9470   -0.7510   14.9780 O.2   294  PHE294     -0.2867
     91  CB        23.8590   -1.9130   16.4480 C.3   294  PHE294      0.0534
     92  CG        22.7740   -2.2280   17.4610 C.ar  294  PHE294     -0.0203
     93  CD1       21.7060   -1.3560   17.6630 C.ar  294  PHE294     -0.0042
     94  CD2       22.8590   -3.3620   18.2600 C.ar  294  PHE294     -0.0042
     95  CE1       20.7160   -1.6420   18.6040 C.ar  294  PHE294     -0.0003
     96  CE2       21.8790   -3.6380   19.2190 C.ar  294  PHE294     -0.0003
     97  CZ        20.8090   -2.7800   19.3810 C.ar  294  PHE294     -0.0000
     98  N         27.9900    1.4810   15.9270 N.3   297  VAL297     -0.1245
     99  CA        28.6320    1.0220   17.1680 C.3   297  VAL297      0.1561
    100  C         29.2200   -0.3590   16.9910 C.2   297  VAL297      0.2260
    101  O         29.6110   -1.0110   17.9590 O.2   297  VAL297     -0.2867
    102  CB        27.6900    1.0980   18.4040 C.3   297  VAL297      0.0252
    103  CG1       27.2980    2.5350   18.7100 C.3   297  VAL297      0.0019
    104  CG2       26.4440    0.2220   18.2360 C.3   297  VAL297      0.0019
@<TRIPOS>BOND
     1    89    90    2
     2    89    88    1
     3    87    88    1
     4    88    91    1
     5    98    99    1
     6    91    92    1
     7    68    67    2
     8   100    99    1
     9   100   101    2
    10    99   102    1
    11    92    93   ar
    12    92    94   ar
    13    67    66    1
    14    93    95   ar
    15   104   102    1
    16    94    96   ar
    17    69    66    1
    18    69    70    1
    19   102   103    1
    20    95    97   ar
    21    66    65    1
    22    74    73    1
    23    71    70    1
    24    71    72    1
    25    96    97   ar
    26    56    54   ar
    27    73    72    2
    28    73    75    1
    29    76    77    1
    30    83    85   ar
    31    83    81   ar
    32    54    55   ar
    33    54    53    1
    34    51    50    2
    35    85    86   ar
    36    20    19    2
    37    80    77    1
    38    80    81    1
    39    77    78    1
    40    78    79    2
    41    81    82   ar
    42    50    49    1
    43    53    52    1
    44    86    84   ar
    45    21    18    1
    46    21    22    1
    47    19    18    1
    48    18    17    1
    49    49    52    1
    50    49    48    1
    51    82    84   ar
    52    15    14   ar
    53    16    14   ar
    54    57    58    1
    55    22    23    1
    56    14    13    1
    57    17    23    1
    58    61    58    1
    59    61    62    1
    60    58    59    1
    61    64    62    1
    62    13    10    1
    63    62    63    1
    64    12    11    2
    65    59    60    2
    66    11    10    1
    67    40    39    2
    68    43    42    1
    69    43    44    1
    70    10     9    1
    71    46    45    1
    72    42    41    1
    73    29    28    1
    74    41    38    1
    75    39    38    1
    76    38    37    1
    77    44    45    2
    78    45    47    1
    79    24    25    1
    80    28    25    1
    81    25    26    1
    82     7     6    1
    83    33    32    2
    84    37    32   am
    85    32    31    1
    86    26    27    2
    87     5     6    1
    88     5     2    1
    89     6     8    1
    90    35    34    1
    91     4     3    2
    92    34    31    1
    93    34    36    1
    94     3     2    1
    95    31    30    1
    96     2     1    1
