@<TRIPOS>MOLECULE
tmp/5qj5A00.pdb
 132 125 0 0 0
SMALL
GASTEIGER

@<TRIPOS>ATOM
      1  N        -12.8020  -16.3310    0.7620 N.3    15  TRP15      -0.1227
      2  CA       -12.3440  -15.8530   -0.5490 C.3    15  TRP15       0.1737
      3  C        -11.3370  -14.6940   -0.5110 C.2    15  TRP15       0.2595
      4  O        -10.3970  -14.6680   -1.3120 O.2    15  TRP15      -0.2718
      5  CB       -13.5690  -15.4380   -1.3710 C.3    15  TRP15       0.0564
      6  CG       -14.6440  -16.4880   -1.3570 C.ar   15  TRP15       0.0003
      7  CD1      -15.8820  -16.3970   -0.7790 C.ar   15  TRP15       0.0946
      8  CD2      -14.5510  -17.8060   -1.9120 C.ar   15  TRP15       0.0152
      9  NE1      -16.5710  -17.5790   -0.9560 N.ar   15  TRP15      -0.2442
     10  CE2      -15.7800  -18.4590   -1.6470 C.ar   15  TRP15       0.0810
     11  CE3      -13.5460  -18.5020   -2.6090 C.ar   15  TRP15       0.0012
     12  CZ2      -16.0380  -19.7700   -2.0650 C.ar   15  TRP15       0.0191
     13  CZ3      -13.7990  -19.8070   -3.0190 C.ar   15  TRP15       0.0001
     14  CH2      -15.0400  -20.4260   -2.7460 C.ar   15  TRP15       0.0015
     15  N        -11.5700  -13.7260    0.3780 N.am   16  VAL16      -0.1980
     16  CA       -10.6990  -12.5730    0.5670 C.3    16  VAL16       0.1595
     17  C        -10.0580  -12.6380    1.9520 C.2    16  VAL16       0.2287
     18  O        -10.7600  -12.8900    2.9380 O.2    16  VAL16      -0.2864
     19  CB       -11.5070  -11.2600    0.4990 C.3    16  VAL16       0.0276
     20  CG1      -10.5790  -10.0530    0.5430 C.3    16  VAL16       0.0022
     21  CG2      -12.3700  -11.2160   -0.7600 C.3    16  VAL16       0.0022
     22  N         -4.9110   -6.5150    0.9870 N.3    36  VAL36      -0.1231
     23  CA        -5.9060   -7.5170    0.6790 C.3    36  VAL36       0.1692
     24  C         -5.3540   -8.4720   -0.3280 C.2    36  VAL36       0.2592
     25  O         -4.6550   -8.0890   -1.2310 O.2    36  VAL36      -0.2718
     26  CB        -7.1740   -6.8380    0.1250 C.3    36  VAL36       0.0266
     27  CG1       -8.1820   -7.8400   -0.3460 C.3    36  VAL36       0.0020
     28  CG2       -7.7910   -6.0000    1.2300 C.3    36  VAL36       0.0020
     29  N         -5.5940   -9.7540   -0.0960 N.am   37  LYS37      -0.1966
     30  CA        -5.1820  -10.8290   -0.9800 C.3    37  LYS37       0.1728
     31  C         -6.3830  -11.7570   -1.1510 C.2    37  LYS37       0.2616
     32  O         -7.3100  -11.7080   -0.3440 O.2    37  LYS37      -0.2715
     33  CB        -4.0460  -11.6320   -0.3440 C.3    37  LYS37       0.0311
     34  CG        -2.6240  -11.1220   -0.5670 C.3    37  LYS37       0.0038
     35  CD        -1.6260  -12.2810   -0.4030 C.3    37  LYS37       0.0206
     36  CE        -0.1890  -11.9030   -0.7450 C.3    37  LYS37       0.1093
     37  NZ         0.4190  -10.9740    0.2600 N.3    37  LYS37      -0.1314
     38  N         -6.3760  -12.5990   -2.1790 N.am   38  ARG38      -0.1977
     39  CA        -7.3310  -13.7030   -2.2110 C.3    38  ARG38       0.1597
     40  C         -6.7440  -14.8950   -1.4540 C.2    38  ARG38       0.2287
     41  O         -5.5340  -14.9690   -1.2420 O.2    38  ARG38      -0.2864
     42  CB        -7.7890  -14.0570   -3.6360 C.3    38  ARG38       0.0334
     43  CG        -6.7720  -14.6600   -4.6020 C.3    38  ARG38       0.0492
     44  CD        -7.4720  -15.3490   -5.7790 C.3    38  ARG38       0.2205
     45  NE        -8.6930  -14.6290   -6.1490 N.pl3  38  ARG38      -0.0865
     46  CZ        -9.9510  -15.0550   -5.9870 C.cat  38  ARG38       0.5346
     47  NH1      -10.2420  -16.2700   -5.5100 N.pl3  38  ARG38       0.1354
     48  NH2      -10.9480  -14.2450   -6.3370 N.pl3  38  ARG38       0.1354
     49  N         -6.8720  -13.3530  -12.7400 N.3    48  GLY48      -0.1210
     50  CA        -8.0440  -13.2030  -13.5800 C.3    48  GLY48       0.1956
     51  C         -7.7510  -12.6230  -14.9530 C.2    48  GLY48       0.2611
     52  O         -6.6000  -12.3140  -15.2720 O.2    48  GLY48      -0.2717
     53  N         -8.8040  -12.4740  -15.7520 N.am   49  VAL49      -0.1979
     54  CA        -8.6870  -11.8410  -17.0500 C.3    49  VAL49       0.1595
     55  C         -9.8440  -10.8870  -17.1730 C.2    49  VAL49       0.2287
     56  O        -10.9280  -11.1200  -16.6040 O.2    49  VAL49      -0.2864
     57  CB        -8.7460  -12.8190  -18.2130 C.3    49  VAL49       0.0276
     58  CG1       -7.5480  -13.7440  -18.2060 C.3    49  VAL49       0.0022
     59  CG2      -10.0530  -13.5840  -18.2470 C.3    49  VAL49       0.0022
     60  N        -18.8220   -3.1570  -17.1200 N.3    80  GLU80      -0.1245
     61  CA       -17.4510   -3.6490  -17.1190 C.3    80  GLU80       0.1567
     62  C        -17.0980   -4.4170  -18.4110 C.2    80  GLU80       0.2260
     63  O        -17.9680   -4.9030  -19.1140 O.2    80  GLU80      -0.2867
     64  CB       -17.2400   -4.6420  -15.9640 C.3    80  GLU80       0.0388
     65  CG       -17.5250   -4.1300  -14.5380 C.3    80  GLU80       0.1160
     66  CD       -17.6910   -5.2800  -13.5460 C.2    80  GLU80       0.3649
     67  OE1      -16.8540   -6.2050  -13.4730 O.co2  80  GLU80      -0.2457
     68  OE2      -18.7270   -5.3470  -12.8630 O.co2  80  GLU80      -0.2457
     69  N        -15.1870  -10.5470  -17.7820 N.3    83  ALA83      -0.1231
     70  CA       -14.0620  -10.8190  -16.8550 C.3    83  ALA83       0.1694
     71  C        -14.3790  -11.9590  -15.9530 C.2    83  ALA83       0.2593
     72  O        -15.5320  -12.2270  -15.6820 O.2    83  ALA83      -0.2718
     73  CB       -13.6520   -9.6190  -15.9870 C.3    83  ALA83       0.0304
     74  N        -13.3110  -12.6250  -15.5050 N.am   84  GLY84      -0.1942
     75  CA       -13.4240  -13.7140  -14.5300 C.3    84  GLY84       0.2014
     76  C        -12.0880  -14.2260  -14.1010 C.2    84  GLY84       0.2638
     77  O        -11.0150  -13.8520  -14.6230 O.2    84  GLY84      -0.2714
     78  N        -12.1360  -15.1470  -13.1410 N.am   85  LEU85      -0.1977
     79  CA       -10.9280  -15.6490  -12.5850 C.3    85  LEU85       0.1596
     80  C        -10.3620  -16.7490  -13.5020 C.2    85  LEU85       0.2287
     81  O        -11.0460  -17.3420  -14.2730 O.2    85  LEU85      -0.2864
     82  CB       -11.1950  -16.1560  -11.1680 C.3    85  LEU85       0.0297
     83  CG       -11.6250  -15.0800  -10.1790 C.3    85  LEU85       0.0022
     84  CD1      -12.1010  -15.6860   -8.8610 C.3    85  LEU85       0.0001
     85  CD2      -10.4750  -14.1380   -9.8520 C.3    85  LEU85       0.0001
     86  N         -4.7780   -4.4170  -10.3930 N.3   119  MET119     -0.1245
     87  CA        -6.0830   -3.8590  -10.2540 C.3   119  MET119      0.1570
     88  C         -6.2290   -2.6570   -9.3160 C.2   119  MET119      0.2261
     89  O         -6.9140   -1.6730   -9.6560 O.2   119  MET119     -0.2867
     90  CB        -7.0480   -4.9320   -9.7430 C.3   119  MET119      0.0387
     91  CG        -7.5040   -5.9340  -10.7300 C.3   119  MET119      0.0595
     92  SD        -8.1520   -5.2190  -12.2380 S.3   119  MET119     -0.1393
     93  CE        -9.6430   -4.5370  -11.5380 C.3   119  MET119      0.0692
     94  N         -4.5810   -4.3900   -2.9870 N.3   124  SER124     -0.1202
     95  CA        -4.3950   -5.8200   -3.1790 C.3   124  SER124      0.2020
     96  C         -3.2330   -6.1930   -4.0830 C.2   124  SER124      0.2619
     97  O         -2.7260   -5.3880   -4.8630 O.2   124  SER124     -0.2717
     98  CB        -5.6830   -6.4630   -3.7050 C.3   124  SER124      0.2103
     99  OG        -5.9010   -6.1280   -5.0610 O.3   124  SER124     -0.2182
    100  N         -2.8690   -7.4630   -3.9970 N.am  125  ASN125     -0.1960
    101  CA        -1.9490   -8.0570   -4.9410 C.3   125  ASN125      0.1819
    102  C         -2.6870   -8.5250   -6.2130 C.2   125  ASN125      0.2621
    103  O         -2.0970   -9.2180   -7.0200 O.2   125  ASN125     -0.2715
    104  CB        -1.1660   -9.2140   -4.3100 C.3   125  ASN125      0.1195
    105  CG        -1.9740  -10.4850   -4.2090 C.2   125  ASN125      0.2630
    106  OD1       -3.1960  -10.4490   -4.2010 O.2   125  ASN125     -0.2716
    107  ND2       -1.2930  -11.6130   -4.0830 N.am  125  ASN125     -0.0877
    108  N         -3.9560   -8.1590   -6.3920 N.am  126  CYS126     -0.1968
    109  CA        -4.7350   -8.6670   -7.4940 C.3   126  CYS126      0.1712
    110  C         -4.2330   -8.1550   -8.8310 C.2   126  CYS126      0.2296
    111  O         -3.9060   -6.9750   -8.9930 O.2   126  CYS126     -0.2864
    112  CB        -6.2080   -8.3290   -7.3860 C.3   126  CYS126      0.0983
    113  SG        -7.1150   -9.1310   -8.7140 S.3   126  CYS126     -0.0798
    114  N         -4.4860   -9.0340  -13.3050 N.3   128  ILE128     -0.1245
    115  CA        -5.2230   -9.6320  -14.4220 C.3   128  ILE128      0.1561
    116  C         -4.4420   -9.5820  -15.6560 C.2   128  ILE128      0.2260
    117  O         -3.5110   -8.7800  -15.7460 O.2   128  ILE128     -0.2867
    118  CB        -6.6150   -8.9720  -14.6670 C.3   128  ILE128      0.0252
    119  CG1       -6.4960   -7.4780  -15.0440 C.3   128  ILE128      0.0019
    120  CG2       -7.4980   -9.1810  -13.4270 C.3   128  ILE128      0.0019
    121  CD1       -7.7410   -6.8780  -15.7050 C.3   128  ILE128      0.0001
    122  N        -11.4700    0.7760  -15.8000 N.3   183  ARG183     -0.1245
    123  CA       -10.6990    0.2770  -17.0220 C.3   183  ARG183      0.1563
    124  C        -11.5120    0.6000  -18.2450 C.2   183  ARG183      0.2260
    125  O        -10.9960    0.9900  -19.3080 O.2   183  ARG183     -0.2867
    126  CB       -10.3970   -1.1990  -16.9640 C.3   183  ARG183      0.0307
    127  CG        -9.3440   -1.5450  -15.9450 C.3   183  ARG183      0.0489
    128  CD        -9.6000   -2.9250  -15.3500 C.3   183  ARG183      0.2205
    129  NE       -10.8470   -3.0700  -14.5810 N.pl3 183  ARG183     -0.0865
    130  CZ       -11.4360   -4.2650  -14.3470 C.cat 183  ARG183      0.5346
    131  NH1      -12.5450   -4.3860  -13.6080 N.pl3 183  ARG183      0.1354
    132  NH2      -10.8640   -5.3750  -14.7460 N.pl3 183  ARG183      0.1354
@<TRIPOS>BOND
     1   125   124    2
     2    63    62    2
     3    62    61    1
     4    59    57    1
     5   124   123    1
     6    57    58    1
     7    57    54    1
     8    69    70    1
     9    55    54    1
    10    55    56    2
    11    60    61    1
    12    61    64    1
    13    54    53    1
    14   123   126    1
    15   123   122    1
    16   126   127    1
    17    70    73    1
    18    70    71    1
    19    64    65    1
    20    71    72    2
    21    71    74   am
    22   127   128    1
    23    53    51   am
    24   117   116    2
    25   121   119    1
    26   116   115    1
    27    74    75    1
    28   128   129    1
    29    52    51    2
    30   119   118    1
    31    51    50    1
    32   132   130    1
    33   118   115    1
    34   118   120    1
    35    77    76    2
    36   129   130    2
    37    65    66    1
    38    75    76    1
    39   115   114    1
    40   130   131    1
    41    81    80    2
    42    76    78   am
    43    50    49    1
    44    66    67   ar
    45    66    68   ar
    46    80    79    1
    47    78    79    1
    48    79    82    1
    49    92    93    1
    50    92    91    1
    51    82    83    1
    52    91    90    1
    53    86    87    1
    54    87    90    1
    55    87    88    1
    56    83    85    1
    57    83    84    1
    58    89    88    2
    59   111   110    2
    60   110   109    1
    61   113   112    1
    62   109   112    1
    63   109   108    1
    64   103   102    2
    65   108   102   am
    66    48    46    1
    67   102   101    1
    68    45    46    2
    69    45    44    1
    70    46    47    1
    71    44    43    1
    72    99    98    1
    73   101   104    1
    74   101   100    1
    75    97    96    2
    76    43    42    1
    77   104   105    1
    78   105   106    2
    79   105   107   am
    80    96   100   am
    81    96    95    1
    82    98    95    1
    83    42    39    1
    84    95    94    1
    85    13    14   ar
    86    13    11   ar
    87    14    12   ar
    88    11     8   ar
    89    39    38    1
    90    39    40    1
    91    38    31   am
    92    12    10   ar
    93     8    10   ar
    94     8     6   ar
    95    10     9   ar
    96    40    41    2
    97     5     6    1
    98     5     2    1
    99     6     7   ar
   100     4     3    2
   101    25    24    2
   102    31    30    1
   103    31    32    2
   104    30    33    1
   105    30    29    1
   106     9     7   ar
   107    21    19    1
   108    36    35    1
   109    36    37    1
   110    34    35    1
   111    34    33    1
   112     2     3    1
   113     2     1    1
   114     3    15   am
   115    27    26    1
   116    24    29   am
   117    24    23    1
   118    26    23    1
   119    26    28    1
   120    15    16    1
   121    19    20    1
   122    19    16    1
   123    16    17    1
   124    23    22    1
   125    17    18    2
