@<TRIPOS>MOLECULE
tmp/5qj6B00.pdb
 97 89 0 0 0
SMALL
GASTEIGER

@<TRIPOS>ATOM
      1  N         -4.8470   11.4280  -15.3160 N.3    51  ILE51      -0.1245
      2  CA        -4.2240   11.1860  -16.5950 C.3    51  ILE51       0.1561
      3  C         -3.5300   12.4940  -17.0320 C.2    51  ILE51       0.2260
      4  O         -4.2230   13.3540  -17.5060 O.2    51  ILE51      -0.2867
      5  CB        -5.2280   10.6960  -17.6130 C.3    51  ILE51       0.0252
      6  CG1       -5.8200    9.3600  -17.1580 C.3    51  ILE51       0.0019
      7  CG2       -4.5020   10.5120  -18.9540 C.3    51  ILE51       0.0019
      8  CD1       -6.9150    8.7930  -18.0630 C.3    51  ILE51       0.0001
      9  N         -1.0790   14.7020  -19.3050 N.3    53  VAL53      -0.1245
     10  CA        -0.4010   14.8380  -20.5850 C.3    53  VAL53       0.1561
     11  C          0.6150   15.9950  -20.5180 C.2    53  VAL53       0.2260
     12  O          0.2460   17.1590  -20.3060 O.2    53  VAL53      -0.2867
     13  CB        -1.3840   14.9360  -21.7990 C.3    53  VAL53       0.0252
     14  CG1       -2.2850   16.1660  -21.7740 C.3    53  VAL53       0.0019
     15  CG2       -0.6400   14.8630  -23.1260 C.3    53  VAL53       0.0019
     16  N          2.7150   18.3300  -22.3650 N.3    55  GLN55      -0.1245
     17  CA         2.6150   18.9290  -23.6990 C.3    55  GLN55       0.1566
     18  C          3.6830   19.9950  -23.8610 C.2    55  GLN55       0.2260
     19  O          3.5640   21.0770  -23.2880 O.2    55  GLN55      -0.2867
     20  CB         1.2370   19.5510  -23.8970 C.3    55  GLN55       0.0367
     21  CG         0.1140   18.5920  -24.3020 C.3    55  GLN55       0.0905
     22  CD        -1.2650   19.2450  -24.3140 C.2    55  GLN55       0.2608
     23  OE1       -1.5790   20.0860  -23.4700 O.2    55  GLN55      -0.2717
     24  NE2       -2.0890   18.8820  -25.2910 N.am   55  GLN55      -0.0878
     25  N          3.9900   14.5190  -27.2840 N.3    61  GLU61      -0.1245
     26  CA         3.1590   14.5450  -26.0460 C.3    61  GLU61       0.1567
     27  C          3.4460   13.3160  -25.2580 C.2    61  GLU61       0.2260
     28  O          3.4860   12.1920  -25.8560 O.2    61  GLU61      -0.2867
     29  CB         1.6760   14.4390  -26.3080 C.3    61  GLU61       0.0388
     30  CG         0.9700   15.6480  -26.7950 C.3    61  GLU61       0.1160
     31  CD        -0.5160   15.5720  -26.6270 C.2    61  GLU61       0.3649
     32  OE1       -1.0980   14.4750  -26.7080 O.co2  61  GLU61      -0.2457
     33  OE2       -1.1220   16.6270  -26.4930 O.co2  61  GLU61      -0.2457
     34  N          2.6260   11.0130  -21.5100 N.3    63  ILE63      -0.1245
     35  CA         1.7230   10.7410  -20.4430 C.3    63  ILE63       0.1561
     36  C          2.6630   10.5750  -19.2830 C.2    63  ILE63       0.2260
     37  O          3.7140    9.8970  -19.3630 O.2    63  ILE63      -0.2867
     38  CB         0.8680    9.4530  -20.7030 C.3    63  ILE63       0.0252
     39  CG1       -0.0070    9.5880  -21.9430 C.3    63  ILE63       0.0019
     40  CG2        0.1030    9.0250  -19.4370 C.3    63  ILE63       0.0019
     41  CD1       -1.0490   10.6600  -22.0140 C.3    63  ILE63       0.0001
     42  N         -8.8190   19.1860  -17.7230 N.3   110  ALA110     -0.1231
     43  CA        -9.5080   19.0950  -19.0010 C.3   110  ALA110      0.1694
     44  C        -10.9000   18.5130  -18.8520 C.2   110  ALA110      0.2591
     45  O        -11.8720   19.0480  -19.3730 O.2   110  ALA110     -0.2718
     46  CB        -8.6880   18.2690  -19.9860 C.3   110  ALA110      0.0304
     47  N        -11.0070   17.3820  -18.1630 N.am  111  GLU111     -0.1979
     48  CA       -12.3110   16.7660  -17.9340 C.3   111  GLU111      0.1602
     49  C        -12.2850   15.8670  -16.7030 C.2   111  GLU111      0.2287
     50  O        -11.2220   15.6230  -16.1310 O.2   111  GLU111     -0.2864
     51  CB       -12.7540   15.9920  -19.1750 C.3   111  GLU111      0.0415
     52  CG       -11.9090   14.7610  -19.4460 C.3   111  GLU111      0.1163
     53  CD       -11.8490   14.3960  -20.9070 C.2   111  GLU111      0.3649
     54  OE1      -10.7390   14.4880  -21.4740 O.co2 111  GLU111     -0.2457
     55  OE2      -12.9100   14.0490  -21.4670 O.co2 111  GLU111     -0.2457
     56  N         -8.5440   14.0380  -16.2450 N.3   131  THR131     -0.1203
     57  CA        -7.6540   14.2930  -17.3640 C.3   131  THR131      0.1994
     58  C         -7.1170   15.7100  -17.1770 C.2   131  THR131      0.2618
     59  O         -7.9070   16.6350  -17.0090 O.2   131  THR131     -0.2717
     60  CB        -8.4530   14.1880  -18.6700 C.3   131  THR131      0.1784
     61  OG1       -9.0060   12.8700  -18.7870 O.3   131  THR131     -0.2211
     62  CG2       -7.6160   14.4290  -19.8690 C.3   131  THR131      0.0376
     63  N         -5.7910   15.8750  -17.2330 N.am  132  VAL132     -0.1965
     64  CA        -5.1550   17.1570  -16.9640 C.3   132  VAL132      0.1727
     65  C         -4.1120   17.3510  -18.0150 C.2   132  VAL132      0.2616
     66  O         -3.3600   16.4220  -18.3560 O.2   132  VAL132     -0.2715
     67  CB        -4.4700   17.0550  -15.5980 C.3   132  VAL132      0.0290
     68  CG1       -3.5150   18.1980  -15.3300 C.3   132  VAL132      0.0023
     69  CG2       -5.4770   16.9320  -14.4540 C.3   132  VAL132      0.0023
     70  N         -4.0050   18.5730  -18.4980 N.am  133  THR133     -0.1951
     71  CA        -2.9100   18.8930  -19.4230 C.3   133  THR133      0.1897
     72  C         -1.8470   19.6520  -18.6750 C.2   133  THR133      0.2313
     73  O         -2.1390   20.4300  -17.7360 O.2   133  THR133     -0.2863
     74  CB        -3.4470   19.7210  -20.6180 C.3   133  THR133      0.1794
     75  OG1       -4.1390   20.8600  -20.1430 O.3   133  THR133     -0.2208
     76  CG2       -4.4700   18.9820  -21.4980 C.3   133  THR133      0.0378
     77  N          2.8630    9.4880  -25.5600 N.3   161  LYS161     -0.1245
     78  CA         1.4870    9.0360  -25.7700 C.3   161  LYS161      0.1561
     79  C          1.3730    8.1600  -27.0340 C.2   161  LYS161      0.2260
     80  O          0.7600    7.0940  -26.9950 O.2   161  LYS161     -0.2867
     81  CB         0.5380   10.2500  -25.8810 C.3   161  LYS161      0.0271
     82  CG        -0.9310    9.9140  -26.1340 C.3   161  LYS161      0.0035
     83  CD        -1.7710   11.1700  -26.3320 C.3   161  LYS161      0.0206
     84  CE        -3.1530   10.8410  -26.9000 C.3   161  LYS161      0.1093
     85  NZ        -3.8050   11.9810  -27.6030 N.3   161  LYS161     -0.1314
     86  N         -5.8570    2.2540  -21.0310 N.3   186  TYR186     -0.1241
     87  CA        -5.7170    3.5360  -21.7740 C.3   186  TYR186      0.1605
     88  C         -4.7480    3.3400  -22.9510 C.2   186  TYR186      0.2264
     89  O         -5.0470    3.6980  -24.0920 O.2   186  TYR186     -0.2867
     90  CB        -5.2090    4.6140  -20.7650 C.3   186  TYR186      0.0534
     91  CG        -5.1390    6.0340  -21.3150 C.ar  186  TYR186     -0.0201
     92  CD1       -6.2220    6.8990  -21.2340 C.ar  186  TYR186     -0.0009
     93  CD2       -3.9240    6.5190  -21.7990 C.ar  186  TYR186     -0.0009
     94  CE1       -6.1640    8.1570  -21.7690 C.ar  186  TYR186      0.0417
     95  CE2       -3.8600    7.8120  -22.2870 C.ar  186  TYR186      0.0417
     96  CZ        -4.9740    8.5770  -22.2950 C.ar  186  TYR186      0.1957
     97  OH        -4.8330    9.9050  -22.7810 O.3   186  TYR186     -0.2866
@<TRIPOS>BOND
     1    85    84    1
     2    25    26    1
     3    79    80    2
     4    79    78    1
     5    84    83    1
     6    30    31    1
     7    30    29    1
     8    32    31   ar
     9    31    33   ar
    10    83    82    1
    11    29    26    1
    12    82    81    1
    13    26    27    1
    14    81    78    1
    15    28    27    2
    16    78    77    1
    17    24    22   am
    18    22    21    1
    19    22    23    2
    20    21    20    1
    21    89    88    2
    22    20    17    1
    23    18    17    1
    24    18    19    2
    25    17    16    1
    26    15    13    1
    27    88    87    1
    28    97    96    1
    29    96    95   ar
    30    96    94   ar
    31    95    93   ar
    32    41    39    1
    33    39    38    1
    34    13    14    1
    35    13    10    1
    36    93    91   ar
    37    87    86    1
    38    87    90    1
    39    94    92   ar
    40    34    35    1
    41    76    74    1
    42    54    53   ar
    43    55    53   ar
    44    91    92   ar
    45    91    90    1
    46    53    52    1
    47    38    35    1
    48    38    40    1
    49    74    75    1
    50    74    71    1
    51    10    11    1
    52    10     9    1
    53    11    12    2
    54    35    36    1
    55    46    43    1
    56    62    60    1
    57    52    51    1
    58    71    72    1
    59    71    70    1
    60    45    44    2
    61    37    36    2
    62    51    48    1
    63    43    44    1
    64    43    42    1
    65     7     5    1
    66    44    47   am
    67    61    60    1
    68    72    73    2
    69    60    57    1
    70    70    65   am
    71    66    65    2
    72    47    48    1
    73     8     6    1
    74    65    64    1
    75    48    49    1
    76     5     6    1
    77     5     2    1
    78     4     3    2
    79    57    58    1
    80    57    56    1
    81    63    58   am
    82    63    64    1
    83    58    59    2
    84     3     2    1
    85    64    67    1
    86    49    50    2
    87     2     1    1
    88    67    68    1
    89    67    69    1
