@<TRIPOS>MOLECULE
tmp/5qjeD00.pdb
 88 84 0 0 0
SMALL
GASTEIGER

@<TRIPOS>ATOM
      1  N        -26.9530   10.0620  -69.1030 N.3    15  TRP15      -0.1227
      2  CA       -27.9670   10.3430  -68.0680 C.3    15  TRP15       0.1737
      3  C        -27.9390   11.7600  -67.4240 C.2    15  TRP15       0.2595
      4  O        -28.9650   12.1950  -66.8860 O.2    15  TRP15      -0.2718
      5  CB       -27.8560    9.2970  -66.9360 C.3    15  TRP15       0.0564
      6  CG       -27.6850    7.8520  -67.3880 C.ar   15  TRP15       0.0003
      7  CD1      -26.5250    7.1380  -67.4180 C.ar   15  TRP15       0.0946
      8  CD2      -28.7120    6.9620  -67.8410 C.ar   15  TRP15       0.0152
      9  NE1      -26.7580    5.8670  -67.8750 N.ar   15  TRP15      -0.2442
     10  CE2      -28.0920    5.7290  -68.1450 C.ar   15  TRP15       0.0810
     11  CE3      -30.0970    7.0930  -68.0440 C.ar   15  TRP15       0.0012
     12  CZ2      -28.8030    4.6270  -68.6380 C.ar   15  TRP15       0.0191
     13  CZ3      -30.8090    5.9930  -68.5360 C.ar   15  TRP15       0.0001
     14  CH2      -30.1550    4.7730  -68.8180 C.ar   15  TRP15       0.0015
     15  N        -26.7970   12.4580  -67.4680 N.am   16  VAL16      -0.1980
     16  CA       -26.5500   13.6730  -66.6720 C.3    16  VAL16       0.1595
     17  C        -25.6880   14.6630  -67.4620 C.2    16  VAL16       0.2287
     18  O        -24.7950   14.2390  -68.1680 O.2    16  VAL16      -0.2864
     19  CB       -25.7650   13.3390  -65.3650 C.3    16  VAL16       0.0276
     20  CG1      -25.5990   14.5770  -64.4900 C.3    16  VAL16       0.0022
     21  CG2      -26.4180   12.1920  -64.6070 C.3    16  VAL16       0.0022
     22  N        -30.6040   16.2720  -65.8240 N.3    38  ARG38      -0.1245
     23  CA       -30.6900   14.9020  -66.3680 C.3    38  ARG38       0.1563
     24  C        -31.1010   14.9480  -67.8370 C.2    38  ARG38       0.2260
     25  O        -31.6290   15.9550  -68.3060 O.2    38  ARG38      -0.2867
     26  CB       -31.7310   14.0460  -65.6300 C.3    38  ARG38       0.0307
     27  CG       -31.4030   13.7480  -64.1860 C.3    38  ARG38       0.0489
     28  CD       -32.6370   13.2570  -63.4420 C.3    38  ARG38       0.2205
     29  NE       -32.2900   12.8250  -62.0920 N.pl3  38  ARG38      -0.0865
     30  CZ       -31.7690   11.6410  -61.7630 C.cat  38  ARG38       0.5346
     31  NH1      -31.5160   10.7260  -62.6860 N.pl3  38  ARG38       0.1354
     32  NH2      -31.5010   11.3630  -60.4850 N.pl3  38  ARG38       0.1354
     33  N        -30.4980    0.5690  -50.3530 N.3    64  GLN64      -0.1245
     34  CA       -29.8520    0.1500  -51.5640 C.3    64  GLN64       0.1566
     35  C        -28.5480    0.9310  -51.6490 C.2    64  GLN64       0.2260
     36  O        -28.4050    2.0240  -51.0890 O.2    64  GLN64      -0.2867
     37  CB       -30.7220    0.4880  -52.7960 C.3    64  GLN64       0.0367
     38  CG       -30.9370    1.9530  -53.1450 C.3    64  GLN64       0.0905
     39  CD       -32.2080    2.1800  -53.9650 C.2    64  GLN64       0.2608
     40  OE1      -33.1940    2.8200  -53.5040 O.2    64  GLN64      -0.2717
     41  NE2      -32.2280    1.5970  -55.2000 N.am   64  GLN64      -0.0878
     42  N        -25.9310    3.2190  -53.4940 N.3    66  ARG66      -0.1245
     43  CA       -26.0190    4.3460  -54.3780 C.3    66  ARG66       0.1563
     44  C        -24.6010    4.6750  -54.8250 C.2    66  ARG66       0.2260
     45  O        -23.8820    5.2050  -54.0710 O.2    66  ARG66      -0.2867
     46  CB       -26.6620    5.5860  -53.6950 C.3    66  ARG66       0.0307
     47  CG       -28.1330    5.3190  -53.3840 C.3    66  ARG66       0.0489
     48  CD       -28.9310    5.1130  -54.6790 C.3    66  ARG66       0.2205
     49  NE       -30.3500    5.2930  -54.5220 N.pl3  66  ARG66      -0.0865
     50  CZ       -31.2220    5.2680  -55.5290 C.cat  66  ARG66       0.5346
     51  NH1      -30.7900    4.9580  -56.7570 N.pl3  66  ARG66       0.1354
     52  NH2      -32.5180    5.4760  -55.3030 N.pl3  66  ARG66       0.1354
     53  N        -23.3500    7.1220  -56.6030 N.3    68  PRO68      -0.2116
     54  CA       -22.8110    8.4200  -56.3580 C.3    68  PRO68       0.1372
     55  C        -22.3640    8.6410  -54.8680 C.2    68  PRO68       0.2244
     56  O        -21.4280    9.4080  -54.6100 O.2    68  PRO68      -0.2868
     57  CB       -23.9410    9.3630  -56.7690 C.3    68  PRO68       0.0268
     58  CG       -24.7710    8.5620  -57.7210 C.3    68  PRO68       0.0207
     59  CD       -24.7300    7.2000  -57.1040 C.3    68  PRO68       0.0892
     60  N        -37.8280    7.0250  -61.5460 N.3    80  LEU80      -0.1245
     61  CA       -38.1450    7.9990  -62.6300 C.3    80  LEU80       0.1561
     62  C        -39.5280    7.7400  -63.1980 C.2    80  LEU80       0.2260
     63  O        -40.0420    6.6210  -63.1550 O.2    80  LEU80      -0.2867
     64  CB       -37.0820    8.0360  -63.7260 C.3    80  LEU80       0.0270
     65  CG       -35.6970    8.3430  -63.1650 C.3    80  LEU80       0.0019
     66  CD1      -34.6310    8.0280  -64.2050 C.3    80  LEU80       0.0001
     67  CD2      -35.5490    9.7910  -62.6920 C.3    80  LEU80       0.0001
     68  N        -33.7200   -5.1140  -63.5530 N.3   146  ASP146     -0.1225
     69  CA       -32.3780   -5.6890  -63.6900 C.3   146  ASP146      0.1805
     70  C        -31.3520   -4.7620  -63.0370 C.2   146  ASP146      0.2598
     71  O        -31.4410   -3.5480  -63.1700 O.2   146  ASP146     -0.2718
     72  CB       -32.0430   -5.9420  -65.1700 C.3   146  ASP146      0.1424
     73  CG       -30.5680   -6.1880  -65.4070 C.2   146  ASP146      0.3668
     74  OD1      -29.8660   -5.2220  -65.7670 O.co2 146  ASP146     -0.2456
     75  OD2      -30.1130   -7.3310  -65.2100 O.co2 146  ASP146     -0.2456
     76  N        -30.4030   -5.3500  -62.3120 N.am  147  GLY147     -0.1942
     77  CA       -29.4220   -4.5780  -61.5340 C.3   147  GLY147      0.2014
     78  C        -29.9550   -3.7220  -60.3700 C.2   147  GLY147      0.2638
     79  O        -29.2120   -2.8740  -59.8660 O.2   147  GLY147     -0.2714
     80  N        -31.2150   -3.9390  -59.9510 N.am  148  GLU148     -0.1977
     81  CA       -31.9020   -3.1210  -58.9420 C.3   148  GLU148      0.1602
     82  C        -32.0200   -4.0540  -57.7390 C.2   148  GLU148      0.2287
     83  O        -32.7120   -5.0800  -57.8190 O.2   148  GLU148     -0.2864
     84  CB       -33.2850   -2.6650  -59.4490 C.3   148  GLU148      0.0415
     85  CG       -33.8740   -1.4480  -58.7380 C.3   148  GLU148      0.1163
     86  CD       -35.3310   -1.1210  -59.1300 C.2   148  GLU148      0.3649
     87  OE1      -36.0380   -1.9530  -59.7550 O.co2 148  GLU148     -0.2457
     88  OE2      -35.7920    0.0010  -58.8010 O.co2 148  GLU148     -0.2457
@<TRIPOS>BOND
     1     1     2    1
     2    14    12   ar
     3    14    13   ar
     4    12    10   ar
     5    13    11   ar
     6    25    24    2
     7    18    17    2
     8    10     9   ar
     9    10     8   ar
    10     2     3    1
    11     2     5    1
    12    11     8   ar
    13     9     7   ar
    14     8     6   ar
    15    24    23    1
    16    15     3   am
    17    15    16    1
    18    17    16    1
    19     3     4    2
    20     7     6   ar
    21     6     5    1
    22    16    19    1
    23    23    22    1
    24    23    26    1
    25    74    73   ar
    26    26    27    1
    27    73    75   ar
    28    73    72    1
    29    19    21    1
    30    19    20    1
    31    72    69    1
    32    66    65    1
    33    27    28    1
    34    64    65    1
    35    64    61    1
    36    69    68    1
    37    69    70    1
    38    28    29    1
    39    62    63    2
    40    62    61    1
    41    71    70    2
    42    65    67    1
    43    70    76   am
    44    31    30    1
    45    61    60    1
    46    76    77    1
    47    29    30    2
    48    30    32    1
    49    77    78    1
    50    78    80   am
    51    78    79    2
    52    80    81    1
    53    87    86   ar
    54    84    81    1
    55    84    85    1
    56    86    88   ar
    57    86    85    1
    58    81    82    1
    59    83    82    2
    60    58    59    1
    61    58    57    1
    62    59    53    1
    63    57    54    1
    64    51    50    1
    65    53    54    1
    66    54    55    1
    67    50    52    1
    68    50    49    2
    69    41    39   am
    70    55    56    2
    71    44    43    1
    72    44    45    2
    73    48    49    1
    74    48    47    1
    75    43    46    1
    76    43    42    1
    77    39    40    2
    78    39    38    1
    79    46    47    1
    80    38    37    1
    81    37    34    1
    82    35    34    1
    83    35    36    2
    84    34    33    1
