@<TRIPOS>MOLECULE
tmp/5qjfC01.pdb
 106 102 0 0 0
SMALL
GASTEIGER

@<TRIPOS>ATOM
      1  N        -39.2050   29.9750  -35.5250 N.3    53  LEU53      -0.1245
      2  CA       -39.4710   31.3190  -34.9240 C.3    53  LEU53       0.1561
      3  C        -40.4500   31.1820  -33.8330 C.2    53  LEU53       0.2260
      4  O        -41.5690   30.7670  -34.0830 O.2    53  LEU53      -0.2867
      5  CB       -40.0360   32.2380  -36.0130 C.3    53  LEU53       0.0270
      6  CG       -40.3550   33.6830  -35.5360 C.3    53  LEU53       0.0019
      7  CD1      -39.0370   34.2870  -35.0640 C.3    53  LEU53       0.0001
      8  CD2      -40.9180   34.4620  -36.6830 C.3    53  LEU53       0.0001
      9  N        -31.4350   35.8040  -43.3340 N.3   102  THR102     -0.1218
     10  CA       -32.6900   36.2450  -42.7820 C.3   102  THR102      0.1862
     11  C        -32.5930   37.4020  -41.7830 C.2   102  THR102      0.2287
     12  O        -33.6420   37.9350  -41.4130 O.2   102  THR102     -0.2866
     13  CB       -33.3780   35.0690  -42.0320 C.3   102  THR102      0.1770
     14  OG1      -32.7580   34.9070  -40.7460 O.3   102  THR102     -0.2211
     15  CG2      -33.3230   33.8170  -42.8750 C.3   102  THR102      0.0375
     16  N        -32.0660   36.8950  -38.5490 N.3   104  TYR104     -0.1241
     17  CA       -32.3770   36.3520  -37.2490 C.3   104  TYR104      0.1605
     18  C        -31.1470   35.8050  -36.5410 C.2   104  TYR104      0.2264
     19  O        -30.2310   35.2210  -37.1540 O.2   104  TYR104     -0.2867
     20  CB       -33.4470   35.2920  -37.3670 C.3   104  TYR104      0.0534
     21  CG       -34.8310   35.8070  -37.6730 C.ar  104  TYR104     -0.0201
     22  CD1      -35.5550   36.6180  -36.7500 C.ar  104  TYR104     -0.0009
     23  CD2      -35.4320   35.4830  -38.8550 C.ar  104  TYR104     -0.0009
     24  CE1      -36.8560   37.0580  -37.0630 C.ar  104  TYR104      0.0417
     25  CE2      -36.7020   35.9390  -39.1590 C.ar  104  TYR104      0.0417
     26  CZ       -37.3960   36.6920  -38.2830 C.ar  104  TYR104      0.1957
     27  OH       -38.6380   37.0640  -38.7250 O.3   104  TYR104     -0.2866
     28  N        -36.1580   41.9670  -33.2910 N.3   141  ALA141     -0.1231
     29  CA       -37.3110   42.8150  -33.6500 C.3   141  ALA141      0.1694
     30  C        -37.3070   43.2320  -35.1240 C.2   141  ALA141      0.2592
     31  O        -38.3220   43.0790  -35.8410 O.2   141  ALA141     -0.2718
     32  CB       -37.3680   44.0460  -32.7250 C.3   141  ALA141      0.0304
     33  N        -36.1600   43.7090  -35.5890 N.am  142  ARG142     -0.1966
     34  CA       -36.0250   44.2110  -36.9460 C.3   142  ARG142      0.1714
     35  C        -34.8350   43.5590  -37.6120 C.2   142  ARG142      0.2458
     36  O        -33.8610   44.2270  -37.9210 O.2   142  ARG142     -0.2730
     37  CB       -35.8230   45.7310  -36.9110 C.3   142  ARG142      0.0347
     38  CG       -37.1330   46.4130  -36.6180 C.3   142  ARG142      0.0492
     39  CD       -38.0150   46.5010  -37.8430 C.3   142  ARG142      0.2205
     40  NE       -37.3630   47.1000  -38.9980 N.pl3 142  ARG142     -0.0865
     41  CZ       -37.1820   46.4770  -40.1640 C.cat 142  ARG142      0.5346
     42  NH1      -37.5770   45.2120  -40.3450 N.pl3 142  ARG142      0.1354
     43  NH2      -36.5530   47.1460  -41.1460 N.pl3 142  ARG142      0.1354
     44  N        -34.9020   42.2400  -37.8440 N.am  143  PRO143     -0.2727
     45  CA       -33.7750   41.5260  -38.4370 C.3   143  PRO143      0.1402
     46  C        -33.6090   41.9030  -39.9040 C.2   143  PRO143      0.2269
     47  O        -34.6040   42.1360  -40.5960 O.2   143  PRO143     -0.2865
     48  CB       -34.1780   40.0780  -38.2930 C.3   143  PRO143      0.0296
     49  CG       -35.6270   40.1320  -38.4410 C.3   143  PRO143      0.0237
     50  CD       -36.0920   41.3700  -37.7610 C.3   143  PRO143      0.0939
     51  N        -31.4150   40.7270  -43.3620 N.3   145  PRO145     -0.2116
     52  CA       -30.3900   39.9040  -43.9730 C.3   145  PRO145      0.1372
     53  C        -29.1260   40.7400  -44.1750 C.2   145  PRO145      0.2244
     54  O        -29.2430   41.8910  -44.5550 O.2   145  PRO145     -0.2868
     55  CB       -30.9810   39.5230  -45.3290 C.3   145  PRO145      0.0268
     56  CG       -32.4760   39.7040  -45.2190 C.3   145  PRO145      0.0207
     57  CD       -32.7320   40.5950  -44.0230 C.3   145  PRO145      0.0892
     58  N        -35.1470   36.7730  -50.2590 N.3   154  GLU154     -0.1231
     59  CA       -36.3490   37.2550  -49.5890 C.3   154  GLU154      0.1699
     60  C        -36.7270   36.2110  -48.5350 C.2   154  GLU154      0.2592
     61  O        -36.6620   35.0170  -48.8160 O.2   154  GLU154     -0.2718
     62  CB       -37.5050   37.4330  -50.5780 C.3   154  GLU154      0.0402
     63  CG       -38.8480   37.7290  -49.9160 C.3   154  GLU154      0.1161
     64  CD       -40.0270   37.8640  -50.8750 C.2   154  GLU154      0.3649
     65  OE1      -39.8120   38.0400  -52.1000 O.co2 154  GLU154     -0.2457
     66  OE2      -41.1820   37.8060  -50.3750 O.co2 154  GLU154     -0.2457
     67  N        -37.2460   36.6730  -47.4310 N.am  155  VAL155     -0.1966
     68  CA       -37.5310   35.8580  -46.2530 C.3   155  VAL155      0.1727
     69  C        -39.0240   35.7130  -46.1960 C.2   155  VAL155      0.2616
     70  O        -39.7680   36.7000  -46.2970 O.2   155  VAL155     -0.2715
     71  CB       -36.9880   36.5070  -44.9590 C.3   155  VAL155      0.0290
     72  CG1      -37.3200   35.6770  -43.7010 C.3   155  VAL155      0.0023
     73  CG2      -35.5160   36.7560  -45.1050 C.3   155  VAL155      0.0023
     74  N        -39.4690   34.4660  -46.1030 N.am  156  ILE156     -0.1963
     75  CA       -40.8900   34.1350  -45.9060 C.3   156  ILE156      0.1727
     76  C        -40.9530   33.2480  -44.6540 C.2   156  ILE156      0.2617
     77  O        -40.3650   32.1800  -44.6850 O.2   156  ILE156     -0.2715
     78  CB       -41.4230   33.3880  -47.1210 C.3   156  ILE156      0.0290
     79  CG1      -41.2930   34.2570  -48.3960 C.3   156  ILE156      0.0022
     80  CG2      -42.9040   33.0190  -46.9470 C.3   156  ILE156      0.0023
     81  CD1      -41.5690   33.5000  -49.6780 C.3   156  ILE156      0.0001
     82  N        -41.6920   33.6660  -43.6260 N.am  157  SER157     -0.1936
     83  CA       -42.0400   32.8700  -42.4410 C.3   157  SER157      0.2055
     84  C        -43.4630   32.3250  -42.5190 C.2   157  SER157      0.2642
     85  O        -44.4390   33.0910  -42.6070 O.2   157  SER157     -0.2714
     86  CB       -41.9150   33.6690  -41.1610 C.3   157  SER157      0.2130
     87  OG       -40.5500   34.0720  -40.9870 O.3   157  SER157     -0.2179
     88  N        -43.5940   31.0000  -42.4370 N.am  158  LEU158     -0.1977
     89  CA       -44.9070   30.3810  -42.5110 C.3   158  LEU158      0.1596
     90  C        -45.2230   29.6330  -41.2210 C.2   158  LEU158      0.2287
     91  O        -44.3410   29.0750  -40.6460 O.2   158  LEU158     -0.2864
     92  CB       -44.8910   29.4410  -43.6930 C.3   158  LEU158      0.0297
     93  CG       -44.6540   30.0780  -45.0580 C.3   158  LEU158      0.0022
     94  CD1      -44.6030   29.0470  -46.1760 C.3   158  LEU158      0.0001
     95  CD2      -45.7560   31.1510  -45.3900 C.3   158  LEU158      0.0001
     96  N        -49.8880   26.3590  -46.7840 N.3   166  ARG166     -0.1245
     97  CA       -49.3190   27.6590  -47.1300 C.3   166  ARG166      0.1563
     98  C        -48.3030   27.5710  -48.2150 C.2   166  ARG166      0.2260
     99  O        -48.2790   28.4750  -49.0700 O.2   166  ARG166     -0.2867
    100  CB       -48.7780   28.3770  -45.9060 C.3   166  ARG166      0.0307
    101  CG       -49.8610   28.7200  -44.9140 C.3   166  ARG166      0.0489
    102  CD       -50.7470   29.8750  -45.4060 C.3   166  ARG166      0.2205
    103  NE       -49.9540   31.0830  -45.4500 N.pl3 166  ARG166     -0.0865
    104  CZ       -49.7070   31.8930  -44.4150 C.cat 166  ARG166      0.5346
    105  NH1      -50.1720   31.6620  -43.1990 N.pl3 166  ARG166      0.1354
    106  NH2      -48.9730   32.9630  -44.6120 N.pl3 166  ARG166      0.1354
@<TRIPOS>BOND
     1    65    64   ar
     2    64    66   ar
     3    64    63    1
     4    62    63    1
     5    62    59    1
     6    58    59    1
     7    81    79    1
     8    59    60    1
     9    99    98    2
    10    61    60    2
    11    60    67   am
    12    79    78    1
    13    98    97    1
    14    67    68    1
    15    97    96    1
    16    97   100    1
    17    78    80    1
    18    78    75    1
    19    70    69    2
    20    68    69    1
    21    68    71    1
    22    69    74   am
    23    94    93    1
    24    74    75    1
    25    75    76    1
    26   100   101    1
    27   103   102    1
    28   103   104    2
    29   102   101    1
    30    95    93    1
    31    55    56    1
    32    55    52    1
    33    56    57    1
    34    73    71    1
    35    93    92    1
    36    71    72    1
    37    77    76    2
    38    76    82   am
    39   106   104    1
    40    54    53    2
    41   104   105    1
    42    53    52    1
    43    57    51    1
    44    52    51    1
    45    92    89    1
    46    82    83    1
    47     9    10    1
    48    15    13    1
    49    10    13    1
    50    10    11    1
    51    85    84    2
    52    84    83    1
    53    84    88   am
    54    89    88    1
    55    89    90    1
    56    83    86    1
    57    13    14    1
    58    11    12    2
    59    90    91    2
    60    86    87    1
    61    43    41    1
    62    47    46    2
    63    42    41    1
    64    41    40    2
    65    46    45    1
    66    25    23   ar
    67    25    26   ar
    68    40    39    1
    69    23    21   ar
    70    27    26    1
    71    16    17    1
    72    49    48    1
    73    49    50    1
    74    45    48    1
    75    45    44    1
    76    26    24   ar
    77    36    35    2
    78    44    50    1
    79    44    35   am
    80    39    38    1
    81    21    20    1
    82    21    22   ar
    83    35    34    1
    84    20    17    1
    85    17    18    1
    86    19    18    2
    87    24    22   ar
    88    34    37    1
    89    34    33    1
    90    37    38    1
    91     8     6    1
    92     5     6    1
    93     5     2    1
    94    31    30    2
    95    33    30   am
    96     6     7    1
    97     1     2    1
    98    30    29    1
    99     2     3    1
   100     4     3    2
   101    29    28    1
   102    29    32    1
