@<TRIPOS>MOLECULE
tmp/5sunA01.pdb
 173 166 0 0 0
SMALL
GASTEIGER

@<TRIPOS>ATOM
      1  N         31.8830   -0.2680  -11.3470 N.3   107  ARG107     -0.1231
      2  CA        30.7550   -1.1790  -11.4540 C.3   107  ARG107      0.1694
      3  C         29.5000   -0.5370  -10.8890 C.2   107  ARG107      0.2592
      4  O         29.5520    0.2130   -9.9110 O.2   107  ARG107     -0.2718
      5  CB        31.0510   -2.5000  -10.7490 C.3   107  ARG107      0.0321
      6  CG        32.3590   -3.1010  -11.2220 C.3   107  ARG107      0.0489
      7  CD        32.9550   -4.0260  -10.2090 C.3   107  ARG107      0.2205
      8  NE        32.4120   -5.3700  -10.3400 N.pl3 107  ARG107     -0.0865
      9  CZ        33.0620   -6.3700  -10.9200 C.cat 107  ARG107      0.5346
     10  NH1       34.2740   -6.1600  -11.4210 N.pl3 107  ARG107      0.1354
     11  NH2       32.5030   -7.5700  -10.9900 N.pl3 107  ARG107      0.1354
     12  N         28.3720   -0.8540  -11.5130 N.am  108  GLU108     -0.1966
     13  CA        27.1120   -0.1800  -11.2360 C.3   108  GLU108      0.1733
     14  C         25.9890   -1.1900  -11.4000 C.2   108  GLU108      0.2616
     15  O         25.8850   -1.8330  -12.4480 O.2   108  GLU108     -0.2715
     16  CB        26.9290    1.0050  -12.1870 C.3   108  GLU108      0.0429
     17  CG        25.5760    1.6750  -12.1350 C.3   108  GLU108      0.1163
     18  CD        25.4850    2.8400  -13.1020 C.2   108  GLU108      0.3649
     19  OE1       24.6150    3.7130  -12.9070 O.co2 108  GLU108     -0.2457
     20  OE2       26.2880    2.8840  -14.0580 O.co2 108  GLU108     -0.2457
     21  N         25.1690   -1.3440  -10.3670 N.am  109  ALA109     -0.1977
     22  CA        24.0100   -2.2240  -10.4280 C.3   109  ALA109      0.1597
     23  C         22.8270   -1.4490  -11.0000 C.2   109  ALA109      0.2287
     24  O         22.4620   -0.3910  -10.4770 O.2   109  ALA109     -0.2864
     25  CB        23.6780   -2.7790   -9.0430 C.3   109  ALA109      0.0319
     26  N         19.1330   -0.5300  -11.4510 N.3   111  ILE111     -0.1245
     27  CA        18.0340   -0.5940  -10.4990 C.3   111  ILE111      0.1561
     28  C         16.7190   -0.5350  -11.2610 C.2   111  ILE111      0.2260
     29  O         16.5040    0.3720  -12.0740 O.2   111  ILE111     -0.2867
     30  CB        18.1310    0.5430   -9.4680 C.3   111  ILE111      0.0252
     31  CG1       19.2230    0.2290   -8.4450 C.3   111  ILE111      0.0019
     32  CG2       16.7910    0.7690   -8.7870 C.3   111  ILE111      0.0019
     33  CD1       19.2780    1.2040   -7.2920 C.3   111  ILE111      0.0001
     34  N         16.2120   -4.2860   -3.7620 N.3   117  ARG117     -0.1231
     35  CA        17.6350   -4.1410   -3.4790 C.3   117  ARG117      0.1694
     36  C         17.9320   -4.6080   -2.0550 C.2   117  ARG117      0.2591
     37  O         17.0990   -5.2220   -1.3730 O.2   117  ARG117     -0.2718
     38  CB        18.1090   -2.6880   -3.6610 C.3   117  ARG117      0.0321
     39  CG        17.5270   -1.9130   -4.8010 C.3   117  ARG117      0.0489
     40  CD        16.2940   -1.1730   -4.4650 C.3   117  ARG117      0.2205
     41  NE        15.7770   -0.6070   -5.5460 N.pl3 117  ARG117     -0.0865
     42  CZ        14.7040   -0.8960   -6.0020 C.cat 117  ARG117      0.5346
     43  NH1       14.3290   -0.3280   -6.9900 N.pl3 117  ARG117      0.1354
     44  NH2       14.0300   -1.7480   -5.4530 N.pl3 117  ARG117      0.1354
     45  N         19.1330   -4.2680   -1.5930 N.am  118  LEU118     -0.1980
     46  CA        19.5050   -4.5160   -0.2060 C.3   118  LEU118      0.1596
     47  C         18.7160   -3.6210    0.7390 C.2   118  LEU118      0.2287
     48  O         18.2080   -4.0800    1.7700 O.2   118  LEU118     -0.2864
     49  CB        21.0120   -4.3070   -0.0340 C.3   118  LEU118      0.0297
     50  CG        21.9690   -5.1790   -0.8600 C.3   118  LEU118      0.0022
     51  CD1       21.4930   -6.6310   -0.9370 C.3   118  LEU118      0.0001
     52  CD2       22.2170   -4.6140   -2.2550 C.3   118  LEU118      0.0001
     53  N         17.5520    2.8880   -1.4610 N.3   122  TRP122     -0.1241
     54  CA        18.3610    3.0670   -2.6690 C.3   122  TRP122      0.1605
     55  C         17.4340    3.2060   -3.8680 C.2   122  TRP122      0.2264
     56  O         16.8910    2.2110   -4.3630 O.2   122  TRP122     -0.2867
     57  CB        19.3250    1.9010   -2.8570 C.3   122  TRP122      0.0550
     58  CG        20.4120    1.8520   -1.8410 C.ar  122  TRP122      0.0003
     59  CD1       20.7160    2.8080   -0.9110 C.ar  122  TRP122      0.0946
     60  CD2       21.3520    0.7920   -1.6500 C.ar  122  TRP122      0.0152
     61  NE1       21.7850    2.4010   -0.1470 N.ar  122  TRP122     -0.2442
     62  CE2       22.1930    1.1650   -0.5780 C.ar  122  TRP122      0.0810
     63  CE3       21.5450   -0.4540   -2.2570 C.ar  122  TRP122      0.0012
     64  CZ2       23.2160    0.3430   -0.1120 C.ar  122  TRP122      0.0191
     65  CZ3       22.5690   -1.2630   -1.7990 C.ar  122  TRP122      0.0001
     66  CH2       23.3880   -0.8650   -0.7330 C.ar  122  TRP122      0.0015
     67  N         18.4910    5.7090   -6.5370 N.3   124  LYS124     -0.1231
     68  CA        19.4570    5.8430   -7.6090 C.3   124  LYS124      0.1678
     69  C         20.5730    4.8230   -7.4300 C.2   124  LYS124      0.2434
     70  O         20.9280    4.4730   -6.3020 O.2   124  LYS124     -0.2733
     71  CB        20.0630    7.2500   -7.6420 C.3   124  LYS124      0.0284
     72  CG        19.0560    8.3800   -7.7570 C.3   124  LYS124      0.0035
     73  CD        19.7590    9.7270   -7.8630 C.3   124  LYS124      0.0206
     74  CE        18.7630   10.8660   -8.0140 C.3   124  LYS124      0.1093
     75  NZ        19.4450   12.1790   -8.1960 N.3   124  LYS124     -0.1314
     76  N         21.1420    4.3080   -8.5140 N.am  125  PRO125     -0.2718
     77  CA        22.2920    3.4100   -8.3790 C.3   125  PRO125      0.1535
     78  C         23.5320    4.1980   -7.9920 C.2   125  PRO125      0.2598
     79  O         23.5740    5.4280   -8.0640 O.2   125  PRO125     -0.2715
     80  CB        22.4230    2.7930   -9.7740 C.3   125  PRO125      0.0310
     81  CG        21.8950    3.8520  -10.6840 C.3   125  PRO125      0.0237
     82  CD        20.7830    4.5390   -9.9260 C.3   125  PRO125      0.0939
     83  N         24.5540    3.4720   -7.5510 N.am  126  ILE126     -0.1978
     84  CA        25.8600    4.0660   -7.3180 C.3   126  ILE126      0.1596
     85  C         26.8940    3.3240   -8.1480 C.2   126  ILE126      0.2287
     86  O         26.6490    2.2420   -8.6820 O.2   126  ILE126     -0.2864
     87  CB        26.2680    4.0750   -5.8350 C.3   126  ILE126      0.0276
     88  CG1       26.5370    2.6560   -5.3360 C.3   126  ILE126      0.0022
     89  CG2       25.2310    4.7940   -5.0120 C.3   126  ILE126      0.0022
     90  CD1       27.4720    2.6220   -4.1510 C.3   126  ILE126      0.0001
     91  N         30.8610    2.1120   -7.9590 N.3   128  ILE128     -0.1245
     92  CA        32.0030    1.8350   -7.0960 C.3   128  ILE128      0.1561
     93  C         33.1990    1.5100   -7.9750 C.2   128  ILE128      0.2260
     94  O         33.1130    0.6430   -8.8520 O.2   128  ILE128     -0.2867
     95  CB        31.7070    0.6850   -6.1180 C.3   128  ILE128      0.0252
     96  CG1       30.3720    0.9180   -5.4040 C.3   128  ILE128      0.0019
     97  CG2       32.8370    0.5490   -5.1110 C.3   128  ILE128      0.0019
     98  CD1       29.9970   -0.1650   -4.4120 C.3   128  ILE128      0.0001
     99  N         37.4630    0.5990   -8.0300 N.3   130  HIS130     -0.1241
    100  CA        38.6620    0.1930   -7.3100 C.3   130  HIS130      0.1621
    101  C         39.8960    0.5020   -8.1530 C.2   130  HIS130      0.2264
    102  O         41.0280    0.3460   -7.6950 O.2   130  HIS130     -0.2867
    103  CB        38.6140   -1.2970   -6.9610 C.3   130  HIS130      0.0745
    104  CG        37.5430   -1.6570   -5.9770 C.ar  130  HIS130      0.0817
    105  ND1       36.2740   -2.0370   -6.3610 N.ar  130  HIS130     -0.2268
    106  CD2       37.5540   -1.7050   -4.6230 C.ar  130  HIS130      0.1154
    107  CE1       35.5500   -2.2990   -5.2870 C.ar  130  HIS130      0.1986
    108  NE2       36.3030   -2.1050   -4.2200 N.ar  130  HIS130     -0.2212
    109  N         36.4430    4.6500    5.9860 N.3   241  ILE241     -0.1245
    110  CA        35.5580    3.5790    5.5290 C.3   241  ILE241      0.1561
    111  C         34.4180    3.3330    6.5090 C.2   241  ILE241      0.2260
    112  O         33.3070    2.9680    6.1050 O.2   241  ILE241     -0.2867
    113  CB        36.3850    2.2980    5.2760 C.3   241  ILE241      0.0252
    114  CG1       35.5070    1.1640    4.7370 C.3   241  ILE241      0.0019
    115  CG2       37.1240    1.8790    6.5350 C.3   241  ILE241      0.0019
    116  CD1       35.0720    1.3640    3.3070 C.3   241  ILE241      0.0001
    117  N         30.4720    3.7020    5.0250 N.3   245  VAL245     -0.1245
    118  CA        29.5340    2.5820    4.9830 C.3   245  VAL245      0.1561
    119  C         28.2000    2.9820    5.6010 C.2   245  VAL245      0.2260
    120  O         27.1310    2.6620    5.0670 O.2   245  VAL245     -0.2867
    121  CB        30.1350    1.3480    5.6810 C.3   245  VAL245      0.0252
    122  CG1       29.0920    0.2430    5.8020 C.3   245  VAL245      0.0019
    123  CG2       31.3420    0.8460    4.9110 C.3   245  VAL245      0.0019
    124  N         26.4130    5.3920    3.2670 N.3   248  ALA248     -0.1231
    125  CA        25.9030    4.7710    2.0490 C.3   248  ALA248      0.1694
    126  C         24.5840    4.0430    2.2830 C.2   248  ALA248      0.2591
    127  O         23.7490    3.9770    1.3740 O.2   248  ALA248     -0.2718
    128  CB        26.9420    3.8080    1.4740 C.3   248  ALA248      0.0304
    129  N         24.3760    3.4890    3.4790 N.am  249  MET249     -0.1979
    130  CA        23.1390    2.7600    3.7460 C.3   249  MET249      0.1605
    131  C         21.9720    3.7090    3.9970 C.2   249  MET249      0.2287
    132  O         20.8420    3.4290    3.5830 O.2   249  MET249     -0.2864
    133  CB        23.3290    1.8180    4.9350 C.3   249  MET249      0.0413
    134  CG        24.5490    0.9170    4.8160 C.3   249  MET249      0.0598
    135  SD        24.4130   -0.3350    3.5260 S.3   249  MET249     -0.1393
    136  CE        23.6330   -1.6690    4.4300 C.3   249  MET249      0.0692
    137  N         21.3690    7.1520   -2.9880 N.3   253  GLY253     -0.1225
    138  CA        22.1650    6.7520   -4.1280 C.3   253  GLY253      0.1811
    139  C         22.6690    7.9450   -4.9100 C.2   253  GLY253      0.2280
    140  O         22.6110    9.0940   -4.4620 O.2   253  GLY253     -0.2866
    141  N         25.9450    8.5270   -6.2410 N.3   255  PHE255     -0.1241
    142  CA        27.2710    9.0350   -5.9270 C.3   255  PHE255      0.1605
    143  C         28.3210    8.0370   -6.3930 C.2   255  PHE255      0.2264
    144  O         28.0590    6.8350   -6.4950 O.2   255  PHE255     -0.2867
    145  CB        27.4350    9.3190   -4.4240 C.3   255  PHE255      0.0534
    146  CG        27.1900    8.1250   -3.5430 C.ar  255  PHE255     -0.0203
    147  CD1       28.2220    7.2520   -3.2300 C.ar  255  PHE255     -0.0042
    148  CD2       25.9330    7.8850   -3.0140 C.ar  255  PHE255     -0.0042
    149  CE1       28.0010    6.1560   -2.4180 C.ar  255  PHE255     -0.0003
    150  CE2       25.7040    6.7920   -2.1960 C.ar  255  PHE255     -0.0003
    151  CZ        26.7400    5.9250   -1.8990 C.ar  255  PHE255     -0.0000
    152  N         31.8720    6.1520   -5.6670 N.3   257  TRP257     -0.1241
    153  CA        32.5460    5.6610   -4.4660 C.3   257  TRP257      0.1605
    154  C         33.8840    5.0490   -4.8710 C.2   257  TRP257      0.2264
    155  O         33.9400    3.9040   -5.3280 O.2   257  TRP257     -0.2867
    156  CB        31.6690    4.6530   -3.7280 C.3   257  TRP257      0.0550
    157  CG        32.2210    4.1860   -2.4120 C.ar  257  TRP257      0.0003
    158  CD1       33.4240    4.5210   -1.8540 C.ar  257  TRP257      0.0946
    159  CD2       31.5870    3.2950   -1.4870 C.ar  257  TRP257      0.0152
    160  NE1       33.5760    3.8910   -0.6430 N.ar  257  TRP257     -0.2442
    161  CE2       32.4630    3.1320   -0.3950 C.ar  257  TRP257      0.0810
    162  CE3       30.3640    2.6170   -1.4780 C.ar  257  TRP257      0.0012
    163  CZ2       32.1540    2.3210    0.6950 C.ar  257  TRP257      0.0191
    164  CZ3       30.0590    1.8120   -0.3940 C.ar  257  TRP257      0.0001
    165  CH2       30.9500    1.6730    0.6780 C.ar  257  TRP257      0.0015
    166  N         24.5430   -6.2370  -13.3210 N.3   266  MET266     -0.1245
    167  CA        25.8020   -5.6410  -12.8880 C.3   266  MET266      0.1570
    168  C         26.6340   -5.2670  -14.1090 C.2   266  MET266      0.2261
    169  O         27.0000   -6.1410  -14.9030 O.2   266  MET266     -0.2867
    170  CB        26.5760   -6.6150  -11.9990 C.3   266  MET266      0.0387
    171  CG        26.1340   -6.6390  -10.5480 C.3   266  MET266      0.0595
    172  SD        26.6490   -5.1420   -9.6830 S.3   266  MET266     -0.1393
    173  CE        28.3340   -4.9880  -10.2780 C.3   266  MET266      0.0692
@<TRIPOS>BOND
     1   169   168    2
     2   168   167    1
     3    20    18   ar
     4   166   167    1
     5    18    19   ar
     6    18    17    1
     7   167   170    1
     8    15    14    2
     9    16    17    1
    10    16    13    1
    11    29    28    2
    12   170   171    1
    13    12    13    1
    14    12     3   am
    15     2     1    1
    16     2     3    1
    17     2     5    1
    18    26    27    1
    19    10     9    1
    20    14    13    1
    21    14    21   am
    22    28    27    1
    23     6     5    1
    24     6     7    1
    25    23    24    2
    26    23    22    1
    27    11     9    1
    28     9     8    2
    29     3     4    2
    30    81    82    1
    31    81    80    1
    32   171   172    1
    33    27    30    1
    34    22    21    1
    35    22    25    1
    36     8     7    1
    37   173   172    1
    38    82    76    1
    39    80    77    1
    40    30    32    1
    41    30    31    1
    42    94    93    2
    43    86    85    2
    44    76    77    1
    45    76    69   am
    46    31    33    1
    47    77    78    1
    48    75    74    1
    49   101   102    2
    50   101   100    1
    51    85    84    1
    52    79    78    2
    53    99   100    1
    54    74    73    1
    55    78    83   am
    56    93    92    1
    57    91    92    1
    58    73    72    1
    59    72    71    1
    60    71    68    1
    61    68    69    1
    62    68    67    1
    63    83    84    1
    64    69    70    2
    65    84    87    1
    66   100   103    1
    67    92    95    1
    68    43    42    1
    69   103   104    1
    70   144   143    2
    71   143   142    1
    72   105   104   ar
    73   105   107   ar
    74   141   142    1
    75    95    96    1
    76    95    97    1
    77    42    41    2
    78    42    44    1
    79   104   106   ar
    80   142   145    1
    81    87    88    1
    82    87    89    1
    83   152   153    1
    84    41    40    1
    85    96    98    1
    86    88    90    1
    87   155   154    2
    88   107   108   ar
    89   139   140    2
    90   139   138    1
    91   154   153    1
    92    39    40    1
    93    39    38    1
    94   106   108   ar
    95   153   156    1
    96   145   146    1
    97    56    55    2
    98   138   137    1
    99    55    54    1
   100    34    35    1
   101   156   157    1
   102    38    35    1
   103   146   147   ar
   104   146   148   ar
   105    35    36    1
   106   147   149   ar
   107   148   150   ar
   108    57    54    1
   109    57    58    1
   110    54    53    1
   111   149   151   ar
   112   157   158   ar
   113   157   159   ar
   114    63    65   ar
   115    63    60   ar
   116    52    50    1
   117   150   151   ar
   118    36    45   am
   119    36    37    2
   120   158   160   ar
   121    58    60   ar
   122    58    59   ar
   123    65    66   ar
   124    60    62   ar
   125    45    46    1
   126   159   162   ar
   127   159   161   ar
   128   162   164   ar
   129    51    50    1
   130    59    61   ar
   131    50    49    1
   132    66    64   ar
   133   160   161   ar
   134    62    61   ar
   135    62    64   ar
   136   161   163   ar
   137   164   165   ar
   138    46    49    1
   139    46    47    1
   140   165   163   ar
   141    47    48    2
   142   127   126    2
   143   128   125    1
   144   125   126    1
   145   125   124    1
   146   126   129   am
   147   116   114    1
   148   129   130    1
   149   135   136    1
   150   135   134    1
   151   132   131    2
   152   130   131    1
   153   130   133    1
   154   114   113    1
   155   134   133    1
   156   123   121    1
   157   118   117    1
   158   118   119    1
   159   118   121    1
   160   120   119    2
   161   113   110    1
   162   113   115    1
   163   110   109    1
   164   110   111    1
   165   121   122    1
   166   112   111    2
