@<TRIPOS>MOLECULE
tmp/5supA00.pdb
 212 202 0 0 0
SMALL
GASTEIGER

@<TRIPOS>ATOM
      1  N         53.6570   89.0400   92.3180 N.3     3  PHE3       -0.1241
      2  CA        54.3560   90.1380   92.9760 C.3     3  PHE3        0.1605
      3  C         53.6380   91.4700   92.8260 C.2     3  PHE3        0.2264
      4  O         53.9760   92.4210   93.5410 O.2     3  PHE3       -0.2867
      5  CB        55.7850   90.2540   92.4430 C.3     3  PHE3        0.0534
      6  CG        56.6540   89.0780   92.7830 C.ar    3  PHE3       -0.0203
      7  CD1       57.4790   89.1160   93.8950 C.ar    3  PHE3       -0.0042
      8  CD2       56.6530   87.9400   91.9940 C.ar    3  PHE3       -0.0042
      9  CE1       58.2830   88.0420   94.2180 C.ar    3  PHE3       -0.0003
     10  CE2       57.4540   86.8600   92.3150 C.ar    3  PHE3       -0.0003
     11  CZ        58.2710   86.9130   93.4270 C.ar    3  PHE3       -0.0000
     12  N         61.2280   85.8720   85.0220 N.3    20  GLY20      -0.1210
     13  CA        60.5110   84.6270   85.2070 C.3    20  GLY20       0.1956
     14  C         59.7950   84.4560   86.5270 C.2    20  GLY20       0.2612
     15  O         59.0690   83.4670   86.6890 O.2    20  GLY20      -0.2717
     16  N         59.9790   85.3610   87.4840 N.am   21  PHE21      -0.1962
     17  CA        59.2460   85.2720   88.7410 C.3    21  PHE21       0.1771
     18  C         57.7470   85.3890   88.4830 C.2    21  PHE21       0.2619
     19  O         57.3000   86.2810   87.7570 O.2    21  PHE21      -0.2715
     20  CB        59.7020   86.3700   89.7060 C.3    21  PHE21       0.0574
     21  CG        61.0730   86.1470   90.2990 C.ar   21  PHE21      -0.0200
     22  CD1       62.0100   85.3450   89.6660 C.ar   21  PHE21      -0.0042
     23  CD2       61.4200   86.7430   91.5030 C.ar   21  PHE21      -0.0042
     24  CE1       63.2620   85.1440   90.2160 C.ar   21  PHE21      -0.0003
     25  CE2       62.6730   86.5440   92.0600 C.ar   21  PHE21      -0.0003
     26  CZ        63.5940   85.7440   91.4140 C.ar   21  PHE21      -0.0000
     27  N         56.9650   84.4940   89.0910 N.am   22  GLU22      -0.1963
     28  CA        55.5140   84.6630   89.0830 C.3    22  GLU22       0.1733
     29  C         54.8410   84.3940   90.4180 C.2    22  GLU22       0.2616
     30  O         53.7180   84.8690   90.6180 O.2    22  GLU22      -0.2715
     31  CB        54.8790   83.7210   88.0510 C.3    22  GLU22       0.0429
     32  CG        55.6230   83.5550   86.7390 C.3    22  GLU22       0.1163
     33  CD        55.0160   82.4650   85.8690 C.2    22  GLU22       0.3649
     34  OE1       54.1690   81.6960   86.3710 O.co2  22  GLU22      -0.2457
     35  OE2       55.3740   82.3880   84.6780 O.co2  22  GLU22      -0.2457
     36  N         55.4650   83.6720   91.3450 N.am   23  HIS23      -0.1973
     37  CA        54.8520   83.4360   92.6450 C.3    23  HIS23       0.1656
     38  C         55.8880   83.7110   93.7280 C.2    23  HIS23       0.2291
     39  O         57.0000   83.1550   93.6730 O.2    23  HIS23      -0.2864
     40  CB        54.3280   81.9950   92.7340 C.3    23  HIS23       0.0771
     41  CG        53.0570   81.7750   91.9720 C.ar   23  HIS23       0.0820
     42  ND1       51.8340   81.5920   92.5800 N.ar   23  HIS23      -0.2267
     43  CD2       52.8270   81.7090   90.6390 C.ar   23  HIS23       0.1154
     44  CE1       50.9050   81.4250   91.6550 C.ar   23  HIS23       0.1986
     45  NE2       51.4810   81.4920   90.4690 N.ar   23  HIS23      -0.2212
     46  N         58.0090   83.4020   97.0760 N.3    25  SER25      -0.1217
     47  CA        58.2720   82.3530   98.0450 C.3    25  SER25       0.1889
     48  C         57.7520   82.7720   99.4180 C.2    25  SER25       0.2288
     49  O         57.3720   83.9250   99.6460 O.2    25  SER25      -0.2866
     50  CB        59.7650   82.0360   98.1070 C.3    25  SER25       0.2089
     51  OG        60.4780   83.0690   98.7600 O.3    25  SER25      -0.2183
     52  N         59.5550   85.5980  101.0790 N.3    28  GLN28      -0.1245
     53  CA        59.2910   86.9020  100.4820 C.3    28  GLN28       0.1566
     54  C         57.8950   87.3970  100.8360 C.2    28  GLN28       0.2260
     55  O         57.6900   88.6010  101.0210 O.2    28  GLN28      -0.2867
     56  CB        59.4720   86.8290   98.9650 C.3    28  GLN28       0.0367
     57  CG        60.8090   86.2430   98.5380 C.3    28  GLN28       0.0905
     58  CD        60.7740   85.6470   97.1450 C.2    28  GLN28       0.2608
     59  OE1       59.7210   85.2380   96.6590 O.2    28  GLN28      -0.2717
     60  NE2       61.9330   85.5840   96.4990 N.am   28  GLN28      -0.0878
     61  N         65.4800   78.8650  104.7400 N.3    46  LYS46      -0.1231
     62  CA        66.3410   77.7840  104.2930 C.3    46  LYS46       0.1693
     63  C         67.0680   78.1560  103.0090 C.2    46  LYS46       0.2593
     64  O         66.7210   79.1130  102.3100 O.2    46  LYS46      -0.2718
     65  CB        65.5500   76.5000  104.0620 C.3    46  LYS46       0.0285
     66  CG        64.4180   76.2740  105.0130 C.3    46  LYS46       0.0035
     67  CD        63.4900   75.2220  104.4650 C.3    46  LYS46       0.0206
     68  CE        64.1210   73.8540  104.6240 C.3    46  LYS46       0.1093
     69  NZ        63.1850   72.7360  104.3320 N.3    46  LYS46      -0.1314
     70  N         68.0840   77.3550  102.7000 N.am   47  SER47      -0.1938
     71  CA        68.9900   77.6650  101.6080 C.3    47  SER47       0.2055
     72  C         68.2340   77.7140  100.2880 C.2    47  SER47       0.2644
     73  O         67.4950   76.7880   99.9420 O.2    47  SER47      -0.2714
     74  CB        70.1040   76.6210  101.5400 C.3    47  SER47       0.2130
     75  OG        70.7330   76.4680  102.8000 O.3    47  SER47      -0.2179
     76  N         68.4110   78.8130   99.5580 N.am   48  GLY48      -0.1939
     77  CA        67.9570   78.9070   98.1880 C.3    48  GLY48       0.2014
     78  C         66.4890   79.1990   97.9910 C.2    48  GLY48       0.2639
     79  O         66.0020   79.0740   96.8640 O.2    48  GLY48      -0.2714
     80  N         65.7670   79.6110   99.0320 N.am   49  LEU49      -0.1963
     81  CA        64.3530   79.9270   98.8940 C.3    49  LEU49       0.1728
     82  C         64.1020   81.4190   98.7000 C.2    49  LEU49       0.2617
     83  O         62.9830   81.8870   98.9320 O.2    49  LEU49      -0.2715
     84  CB        63.5690   79.4030  100.0990 C.3    49  LEU49       0.0311
     85  CG        63.6390   77.8940  100.3440 C.3    49  LEU49       0.0022
     86  CD1       62.6110   77.4720  101.3790 C.3    49  LEU49       0.0001
     87  CD2       63.4210   77.1360   99.0420 C.3    49  LEU49       0.0001
     88  N         65.1140   82.1680   98.2670 N.am   50  GLY50      -0.1940
     89  CA        64.9110   83.5270   97.8050 C.3    50  GLY50       0.2014
     90  C         65.0060   84.6300   98.8410 C.2    50  GLY50       0.2639
     91  O         64.1090   85.4750   98.9200 O.2    50  GLY50      -0.2714
     92  N         66.0790   84.6500   99.6350 N.am   51  LYS51      -0.1963
     93  CA        66.2940   85.7710  100.5450 C.3    51  LYS51       0.1728
     94  C         66.8990   86.9860   99.8540 C.2    51  LYS51       0.2617
     95  O         66.7310   88.1060  100.3490 O.2    51  LYS51      -0.2715
     96  CB        67.1860   85.3630  101.7210 C.3    51  LYS51       0.0311
     97  CG        66.5940   84.2980  102.6250 C.3    51  LYS51       0.0038
     98  CD        67.5260   83.9980  103.7890 C.3    51  LYS51       0.0206
     99  CE        68.7200   83.1640  103.3580 C.3    51  LYS51       0.1093
    100  NZ        68.3050   81.9040  102.6830 N.3    51  LYS51      -0.1314
    101  N         67.5990   86.7970   98.7320 N.am   52  THR52      -0.1937
    102  CA        68.1890   87.9370   98.0350 C.3    52  THR52       0.2028
    103  C         67.1080   88.8620   97.4950 C.2    52  THR52       0.2642
    104  O         67.1690   90.0830   97.6840 O.2    52  THR52      -0.2714
    105  CB        69.0990   87.4600   96.9020 C.3    52  THR52       0.1808
    106  OG1       70.0630   86.5320   97.4130 O.3    52  THR52      -0.2208
    107  CG2       69.8220   88.6410   96.2680 C.3    52  THR52       0.0379
    108  N         66.0980   88.2950   96.8290 N.am   53  ALA53      -0.1977
    109  CA        65.0140   89.1020   96.2820 C.3    53  ALA53       0.1597
    110  C         64.2680   89.8700   97.3620 C.2    53  ALA53       0.2287
    111  O         63.6090   90.8680   97.0520 O.2    53  ALA53      -0.2864
    112  CB        64.0390   88.2190   95.5030 C.3    53  ALA53       0.0319
    113  N         77.6440   88.5770   92.6690 N.3    84  GLN84      -0.1245
    114  CA        76.3510   87.9710   92.3650 C.3    84  GLN84       0.1566
    115  C         75.2000   88.8580   92.8270 C.2    84  GLN84       0.2260
    116  O         74.2170   89.0380   92.0980 O.2    84  GLN84      -0.2867
    117  CB        76.2620   86.5910   93.0170 C.3    84  GLN84       0.0367
    118  CG        74.9220   85.8960   92.8500 C.3    84  GLN84       0.0905
    119  CD        74.8770   84.5530   93.5530 C.2    84  GLN84       0.2608
    120  OE1       75.5390   83.6010   93.1380 O.2    84  GLN84      -0.2717
    121  NE2       74.0980   84.4700   94.6260 N.am   84  GLN84      -0.0878
    122  N         72.1090   90.9070   90.7490 N.3    88  GLU88      -0.1245
    123  CA        70.6730   90.8480   90.9990 C.3    88  GLU88       0.1567
    124  C         70.0710   92.2440   91.0780 C.2    88  GLU88       0.2260
    125  O         68.9420   92.4650   90.6250 O.2    88  GLU88      -0.2867
    126  CB        70.3900   90.0560   92.2740 C.3    88  GLU88       0.0388
    127  CG        70.7400   88.5840   92.1560 C.3    88  GLU88       0.1160
    128  CD        70.0470   87.9200   90.9790 C.2    88  GLU88       0.3649
    129  OE1       68.7990   87.9460   90.9310 O.co2  88  GLU88      -0.2457
    130  OE2       70.7490   87.3800   90.0980 O.co2  88  GLU88      -0.2457
    131  N         69.5120   93.3430   87.5090 N.3    91  ARG91      -0.1245
    132  CA        68.4170   92.7260   86.7670 C.3    91  ARG91       0.1563
    133  C         67.0540   93.2540   87.1960 C.2    91  ARG91       0.2260
    134  O         66.1300   93.2950   86.3770 O.2    91  ARG91      -0.2867
    135  CB        68.4590   91.2030   86.9170 C.3    91  ARG91       0.0307
    136  CG        69.7430   90.5680   86.4030 C.3    91  ARG91       0.0489
    137  CD        69.7220   89.0500   86.5220 C.3    91  ARG91       0.2205
    138  NE        68.6750   88.5710   87.4200 N.pl3  91  ARG91      -0.0865
    139  CZ        67.6820   87.7700   87.0460 C.cat  91  ARG91       0.5346
    140  NH1       67.6010   87.3550   85.7880 N.pl3  91  ARG91       0.1354
    141  NH2       66.7720   87.3810   87.9300 N.pl3  91  ARG91       0.1354
    142  N         74.0870   90.4770  104.5120 N.3   154  ASP154     -0.1225
    143  CA        73.7620   89.1270  104.0840 C.3   154  ASP154      0.1805
    144  C         74.7820   88.1540  104.6630 C.2   154  ASP154      0.2597
    145  O         75.9530   88.4950  104.8490 O.2   154  ASP154     -0.2718
    146  CB        73.7370   89.0370  102.5570 C.3   154  ASP154      0.1424
    147  CG        73.0850   87.7640  102.0570 C.2   154  ASP154      0.3668
    148  OD1       73.2820   87.4210  100.8720 O.co2 154  ASP154     -0.2456
    149  OD2       72.3750   87.1070  102.8470 O.co2 154  ASP154     -0.2456
    150  N         74.3240   86.9320  104.9410 N.am  155  GLU155     -0.1979
    151  CA        75.1110   85.9470  105.6830 C.3   155  GLU155      0.1602
    152  C         75.6160   86.5510  106.9920 C.2   155  GLU155      0.2287
    153  O         76.7970   86.4660  107.3360 O.2   155  GLU155     -0.2864
    154  CB        76.2700   85.4120  104.8390 C.3   155  GLU155      0.0415
    155  CG        75.8870   85.0160  103.4200 C.3   155  GLU155      0.1163
    156  CD        75.1210   83.7070  103.3500 C.2   155  GLU155      0.3649
    157  OE1       74.9740   83.0350  104.3940 O.co2 155  GLU155     -0.2457
    158  OE2       74.6600   83.3520  102.2450 O.co2 155  GLU155     -0.2457
    159  N         75.9040   81.4330   99.8680 N.3   308  GLY308     -0.1225
    160  CA        75.3280   82.4330   98.9890 C.3   308  GLY308      0.1811
    161  C         75.3360   82.1630   97.4980 C.2   308  GLY308      0.2280
    162  O         74.3900   82.5450   96.8030 O.2   308  GLY308     -0.2866
    163  N         74.7480   81.0800   93.9360 N.3   310  ASP310     -0.1239
    164  CA        73.5410   80.5100   93.3400 C.3   310  ASP310      0.1674
    165  C         73.8110   80.1990   91.8710 C.2   310  ASP310      0.2266
    166  O         73.8560   81.1050   91.0320 O.2   310  ASP310     -0.2867
    167  CB        72.3570   81.4620   93.4890 C.3   310  ASP310      0.1410
    168  CG        71.1740   81.0590   92.6290 C.2   310  ASP310      0.3668
    169  OD1       70.9950   81.6560   91.5470 O.co2 310  ASP310     -0.2456
    170  OD2       70.4220   80.1480   93.0290 O.co2 310  ASP310     -0.2456
    171  N         72.1470   77.5010   89.1100 N.3   312  GLU312     -0.1245
    172  CA        70.9740   76.6340   89.0500 C.3   312  GLU312      0.1567
    173  C         71.2900   75.2300   88.5520 C.2   312  GLU312      0.2260
    174  O         70.5300   74.3010   88.8470 O.2   312  GLU312     -0.2867
    175  CB        69.9220   77.2330   88.1190 C.3   312  GLU312      0.0388
    176  CG        69.4590   78.6350   88.4520 C.3   312  GLU312      0.1160
    177  CD        68.4800   79.1670   87.4190 C.2   312  GLU312      0.3649
    178  OE1       68.3580   78.5480   86.3380 O.co2 312  GLU312     -0.2457
    179  OE2       67.8310   80.2000   87.6860 O.co2 312  GLU312     -0.2457
    180  N         74.2950   74.7470   98.1480 N.3   335  ARG335     -0.1245
    181  CA        74.5940   75.1840   96.7890 C.3   335  ARG335      0.1563
    182  C         73.9050   74.3210   95.7410 C.2   335  ARG335      0.2260
    183  O         73.8000   74.7380   94.5820 O.2   335  ARG335     -0.2867
    184  CB        76.1040   75.1880   96.5380 C.3   335  ARG335      0.0307
    185  CG        76.9110   76.1110   97.4450 C.3   335  ARG335      0.0489
    186  CD        76.2130   77.4400   97.6780 C.3   335  ARG335      0.2205
    187  NE        75.5280   77.4490   98.9680 N.pl3 335  ARG335     -0.0865
    188  CZ        74.5140   78.2480   99.2750 C.cat 335  ARG335      0.5346
    189  NH1       74.0490   79.1090   98.3800 N.pl3 335  ARG335      0.1354
    190  NH2       73.9590   78.1820  100.4780 N.pl3 335  ARG335      0.1354
    191  N         68.8590   74.3590   94.1490 N.3   338  ARG338     -0.1231
    192  CA        68.4370   75.7270   94.4210 C.3   338  ARG338      0.1694
    193  C         66.9360   75.8710   94.1990 C.2   338  ARG338      0.2592
    194  O         66.3690   75.2710   93.2830 O.2   338  ARG338     -0.2718
    195  CB        69.1800   76.6970   93.5010 C.3   338  ARG338      0.0321
    196  CG        70.7060   76.6350   93.5290 C.3   338  ARG338      0.0489
    197  CD        71.3320   77.6300   94.5090 C.3   338  ARG338      0.2205
    198  NE        71.1350   77.3680   95.9290 N.pl3 338  ARG338     -0.0865
    199  CZ        71.1710   78.3220   96.8560 C.cat 338  ARG338      0.5346
    200  NH1       71.3800   79.5830   96.4980 N.pl3 338  ARG338      0.1354
    201  NH2       71.0000   78.0220   98.1360 N.pl3 338  ARG338      0.1354
    202  N         66.2980   76.6760   95.0490 N.am  339  PHE339     -0.1976
    203  CA        64.8540   76.9220   94.9960 C.3   339  PHE339      0.1639
    204  C         64.0530   75.6220   95.0800 C.2   339  PHE339      0.2290
    205  O         63.1620   75.3590   94.2700 O.2   339  PHE339     -0.2864
    206  CB        64.4740   77.7260   93.7500 C.3   339  PHE339      0.0560
    207  CG        63.2280   78.5480   93.9230 C.ar  339  PHE339     -0.0200
    208  CD1       63.1920   79.5840   94.8430 C.ar  339  PHE339     -0.0042
    209  CD2       62.0950   78.2860   93.1720 C.ar  339  PHE339     -0.0042
    210  CE1       62.0510   80.3430   95.0110 C.ar  339  PHE339     -0.0003
    211  CE2       60.9490   79.0440   93.3340 C.ar  339  PHE339     -0.0003
    212  CZ        60.9270   80.0740   94.2550 C.ar  339  PHE339     -0.0000
@<TRIPOS>BOND
     1    35    33   ar
     2    12    13    1
     3    13    14    1
     4   140   139    1
     5    33    34   ar
     6    33    32    1
     7   178   177   ar
     8   134   133    2
     9   136   137    1
    10   136   135    1
    11   137   138    1
    12    14    15    2
    13    14    16   am
    14    32    31    1
    15   132   135    1
    16   132   133    1
    17   132   131    1
    18   139   138    2
    19   139   141    1
    20   177   179   ar
    21   177   176    1
    22    16    17    1
    23    19    18    2
    24    31    28    1
    25   175   176    1
    26   175   172    1
    27    18    17    1
    28    18    27   am
    29   173   174    2
    30   173   172    1
    31    17    20    1
    32   172   171    1
    33    28    27    1
    34    28    29    1
    35    22    24   ar
    36    22    21   ar
    37    20    21    1
    38   130   128   ar
    39    24    26   ar
    40    21    23   ar
    41    29    30    2
    42    29    36   am
    43    45    43   ar
    44    45    44   ar
    45   125   124    2
    46    43    41   ar
    47   122   123    1
    48   129   128   ar
    49   128   127    1
    50   123   124    1
    51   123   126    1
    52   166   165    2
    53    36    37    1
    54    26    25   ar
    55    23    25   ar
    56   169   168   ar
    57    44    42   ar
    58   165   164    1
    59    41    42   ar
    60    41    40    1
    61     8    10   ar
    62     8     6   ar
    63   116   115    2
    64   127   126    1
    65    10    11   ar
    66     1     2    1
    67   114   113    1
    68   114   115    1
    69   114   117    1
    70     5     6    1
    71     5     2    1
    72   168   170   ar
    73   168   167    1
    74    37    40    1
    75    37    38    1
    76     6     7   ar
    77     3     2    1
    78     3     4    2
    79   118   117    1
    80   118   119    1
    81   120   119    2
    82   209   211   ar
    83   209   207   ar
    84   194   193    2
    85   211   212   ar
    86   164   167    1
    87   164   163    1
    88    11     9   ar
    89   195   196    1
    90   195   192    1
    91   196   197    1
    92   119   121   am
    93    39    38    2
    94   206   207    1
    95   206   203    1
    96     7     9   ar
    97   207   208   ar
    98   191   192    1
    99   193   192    1
   100   193   202   am
   101   212   210   ar
   102   205   204    2
   103   197   198    1
   104   183   182    2
   105   208   210   ar
   106   203   202    1
   107   203   204    1
   108   112   109    1
   109   182   181    1
   110   198   199    2
   111   107   105    1
   112   109   108    1
   113   109   110    1
   114   200   199    1
   115    60    58   am
   116   184   181    1
   117   184   185    1
   118    59    58    2
   119   181   180    1
   120   162   161    2
   121   108   103   am
   122   199   201    1
   123    79    78    2
   124   105   106    1
   125   105   102    1
   126   111   110    2
   127    46    47    1
   128    58    57    1
   129   185   186    1
   130   103   104    2
   131   103   102    1
   132   161   160    1
   133   186   187    1
   134    89    88    1
   135    89    90    1
   136    78    77    1
   137    78    80   am
   138   102   101    1
   139    47    50    1
   140    47    48    1
   141    50    51    1
   142    77    76    1
   143    88    82   am
   144   189   188    1
   145    57    56    1
   146    82    81    1
   147    82    83    2
   148   101    94   am
   149    90    91    2
   150    90    92   am
   151    81    80    1
   152    81    84    1
   153    56    53    1
   154   187   188    2
   155   160   159    1
   156    87    85    1
   157   188   190    1
   158    48    49    2
   159    76    72   am
   160    92    93    1
   161    94    95    2
   162    94    93    1
   163    73    72    2
   164    84    85    1
   165    72    71    1
   166    85    86    1
   167    53    54    1
   168    53    52    1
   169    93    96    1
   170    54    55    2
   171   148   147   ar
   172    74    71    1
   173    74    75    1
   174    71    70    1
   175    96    97    1
   176   147   146    1
   177   147   149   ar
   178   158   156   ar
   179    64    63    2
   180   146   143    1
   181    97    98    1
   182   100    99    1
   183    70    63   am
   184    63    62    1
   185   156   155    1
   186   156   157   ar
   187    99    98    1
   188   155   154    1
   189    65    62    1
   190    65    66    1
   191   143   142    1
   192   143   144    1
   193    62    61    1
   194    69    68    1
   195    67    68    1
   196    67    66    1
   197   144   145    2
   198   144   150   am
   199   154   151    1
   200   150   151    1
   201   151   152    1
   202   152   153    2
