@<TRIPOS>MOLECULE
tmp/5suvB00.pdb
 86 84 0 0 0
SMALL
GASTEIGER

@<TRIPOS>ATOM
      1  N         18.4570  106.7380    1.8990 N.3    52  LYS52      -0.1231
      2  CA        17.4900  105.9040    2.5950 C.3    52  LYS52       0.1693
      3  C         16.1090  105.9830    1.9530 C.2    52  LYS52       0.2591
      4  O         15.4380  104.9600    1.7740 O.2    52  LYS52      -0.2718
      5  CB        17.4020  106.3230    4.0650 C.3    52  LYS52       0.0285
      6  CG        18.5860  105.9070    4.8550 C.3    52  LYS52       0.0035
      7  CD        18.4510  106.3700    6.2880 C.3    52  LYS52       0.0206
      8  CE        19.5390  105.7710    7.1640 C.3    52  LYS52       0.1093
      9  NZ        19.5220  106.3200    8.5450 N.3    52  LYS52      -0.1314
     10  N         15.6400  107.1990    1.6660 N.am   53  ARG53      -0.1980
     11  CA        14.3320  107.3550    1.0520 C.3    53  ARG53       0.1597
     12  C         14.3230  106.7420   -0.3410 C.2    53  ARG53       0.2287
     13  O         13.3500  106.0770   -0.7310 O.2    53  ARG53      -0.2864
     14  CB        13.9340  108.8420    1.0140 C.3    53  ARG53       0.0334
     15  CG        13.8660  109.6350    2.3680 C.3    53  ARG53       0.0492
     16  CD        13.2330  108.8570    3.4090 C.3    53  ARG53       0.2205
     17  NE        12.9960  109.5710    4.6760 N.pl3  53  ARG53      -0.0865
     18  CZ        13.9430  109.9440    5.5250 C.cat  53  ARG53       0.5346
     19  NH1       15.2280  109.7380    5.2390 N.pl3  53  ARG53       0.1354
     20  NH2       13.5940  110.5060    6.6830 N.pl3  53  ARG53       0.1354
     21  N          7.9860  108.4100   10.6680 N.3    81  HIS81      -0.1241
     22  CA         8.4970  107.6400   11.8030 C.3    81  HIS81       0.1621
     23  C          7.5020  107.7240   12.9390 C.2    81  HIS81       0.2264
     24  O          6.8560  108.7600   13.1390 O.2    81  HIS81      -0.2867
     25  CB         9.8580  108.1450   12.3040 C.3    81  HIS81       0.0745
     26  CG        10.9670  107.9560   11.3400 C.ar   81  HIS81       0.0817
     27  ND1       11.2650  108.8870   10.3500 N.ar   81  HIS81      -0.2268
     28  CD2       11.8450  106.9460   11.1560 C.ar   81  HIS81       0.1154
     29  CE1       12.2730  108.4670    9.6420 C.ar   81  HIS81       0.1986
     30  NE2       12.6560  107.2780   10.1060 N.ar   81  HIS81      -0.2212
     31  N          8.6700  106.0110   18.5640 N.3    84  LEU84      -0.1231
     32  CA         9.8760  105.3210   18.9890 C.3    84  LEU84       0.1693
     33  C         10.9720  105.3460   17.9450 C.2    84  LEU84       0.2593
     34  O         12.0710  104.8550   18.2120 O.2    84  LEU84      -0.2718
     35  CB         9.5480  103.8710   19.3700 C.3    84  LEU84       0.0284
     36  CG         8.5110  103.6790   20.4980 C.3    84  LEU84       0.0019
     37  CD1        8.3600  102.2020   20.8460 C.3    84  LEU84       0.0001
     38  CD2        8.8570  104.4810   21.7630 C.3    84  LEU84       0.0001
     39  N         10.7040  105.8950   16.7530 N.am   85  GLY85      -0.1942
     40  CA        11.6860  105.9790   15.6950 C.3    85  GLY85       0.2014
     41  C         11.5080  104.9650   14.5840 C.2    85  GLY85       0.2639
     42  O         12.3460  104.9170   13.6730 O.2    85  GLY85      -0.2714
     43  N         10.4590  104.1550   14.6400 N.am   86  LYS86      -0.1963
     44  CA        10.2920  103.0990   13.6610 C.3    86  LYS86       0.1713
     45  C          9.8790  103.7600   12.3490 C.2    86  LYS86       0.2458
     46  O          8.9880  104.6000   12.3660 O.2    86  LYS86      -0.2730
     47  CB         9.2160  102.1260   14.0960 C.3    86  LYS86       0.0311
     48  CG         9.0100  100.9300   13.1610 C.3    86  LYS86       0.0038
     49  CD         7.7560  100.0990   13.4900 C.3    86  LYS86       0.0206
     50  CE         6.4840  100.7370   13.0380 C.3    86  LYS86       0.1093
     51  NZ         5.2820   99.8630   13.3350 N.3    86  LYS86      -0.1314
     52  N         10.5000  103.3900   11.2370 N.am   87  PRO87      -0.2727
     53  CA        10.0690  103.9620    9.9500 C.3    87  PRO87       0.1402
     54  C          8.7680  103.3280    9.4880 C.2    87  PRO87       0.2269
     55  O          8.4640  102.1640    9.7640 O.2    87  PRO87      -0.2865
     56  CB        11.2520  103.6210    9.0230 C.3    87  PRO87       0.0296
     57  CG        11.7350  102.3340    9.5330 C.3    87  PRO87       0.0237
     58  CD        11.5820  102.4310   11.0500 C.3    87  PRO87       0.0939
     59  N         11.9530   98.4810    6.9870 N.3   110  SER110     -0.1202
     60  CA        13.1220   98.6470    7.8460 C.3   110  SER110      0.2020
     61  C         14.2750   99.1380    6.9910 C.2   110  SER110      0.2619
     62  O         14.3510   98.8330    5.7970 O.2   110  SER110     -0.2717
     63  CB        13.5280   97.3490    8.5660 C.3   110  SER110      0.2103
     64  OG        14.6210   97.5790    9.4700 O.3   110  SER110     -0.2182
     65  N         15.1720   99.8940    7.6070 N.am  111  MET111     -0.1965
     66  CA        16.3130  100.4650    6.9060 C.3   111  MET111      0.1736
     67  C         17.5560  100.3360    7.7720 C.2   111  MET111      0.2617
     68  O         17.4720  100.2660    8.9980 O.2   111  MET111     -0.2715
     69  CB        16.0850  101.9470    6.5430 C.3   111  MET111      0.0427
     70  CG        14.9610  102.1790    5.5270 C.3   111  MET111      0.0599
     71  SD        14.6730  103.9310    5.1380 S.3   111  MET111     -0.1393
     72  CE        14.1650  104.5850    6.7280 C.3   111  MET111      0.0692
     73  N         18.7070  100.2980    7.1090 N.am  112  SER112     -0.1936
     74  CA        19.9930  100.3380    7.7930 C.3   112  SER112      0.2055
     75  C         21.0500  100.8940    6.8430 C.2   112  SER112      0.2643
     76  O         20.9010  100.8600    5.6160 O.2   112  SER112     -0.2714
     77  CB        20.3790   98.9440    8.2850 C.3   112  SER112      0.2130
     78  OG        21.6990   98.9230    8.8160 O.3   112  SER112     -0.2179
     79  N         22.1310  101.4150    7.4110 N.am  113  ASP113     -0.1971
     80  CA        23.2260  101.8460    6.5560 C.3   113  ASP113      0.1709
     81  C         24.5450  101.5340    7.2350 C.2   113  ASP113      0.2293
     82  O         24.6130  101.4050    8.4610 O.2   113  ASP113     -0.2864
     83  CB        23.1420  103.3350    6.2020 C.3   113  ASP113      0.1436
     84  CG        23.0990  104.2290    7.4120 C.2   113  ASP113      0.3671
     85  OD1       23.5150  103.7990    8.5080 O.co2 113  ASP113     -0.2456
     86  OD2       22.6460  105.3800    7.2450 O.co2 113  ASP113     -0.2456
@<TRIPOS>BOND
     1    13    12    2
     2    12    11    1
     3    14    11    1
     4    14    15    1
     5    11    10    1
     6    10     3   am
     7     4     3    2
     8     1     2    1
     9     3     2    1
    10    15    16    1
    11     2     5    1
    12    16    17    1
    13     5     6    1
    14    17    18    2
    15     6     7    1
    16    71    70    1
    17    71    72    1
    18    19    18    1
    19    18    20    1
    20    70    69    1
    21    76    75    2
    22    62    61    2
    23    83    80    1
    24    83    84    1
    25     7     8    1
    26    69    66    1
    27    80    81    1
    28    80    79    1
    29    75    79   am
    30    75    74    1
    31    66    65    1
    32    66    67    1
    33    59    60    1
    34    61    65   am
    35    61    60    1
    36    73    67   am
    37    73    74    1
    38     8     9    1
    39    81    82    2
    40    86    84   ar
    41    84    85   ar
    42    67    68    2
    43    74    77    1
    44    60    63    1
    45    77    78    1
    46    63    64    1
    47    56    57    1
    48    56    53    1
    49    54    55    2
    50    54    53    1
    51    57    58    1
    52    29    30   ar
    53    29    27   ar
    54    53    52    1
    55    30    28   ar
    56    27    26   ar
    57    21    22    1
    58    58    52    1
    59    28    26   ar
    60    52    45   am
    61    26    25    1
    62    22    25    1
    63    22    23    1
    64    45    46    2
    65    45    44    1
    66    23    24    2
    67    50    51    1
    68    50    49    1
    69    48    49    1
    70    48    47    1
    71    44    47    1
    72    44    43    1
    73    42    41    2
    74    41    43   am
    75    41    40    1
    76    40    39    1
    77    39    33   am
    78    33    34    2
    79    33    32    1
    80    31    32    1
    81    32    35    1
    82    35    36    1
    83    36    37    1
    84    36    38    1
