@<TRIPOS>MOLECULE
tmp/5suvB01.pdb
 152 144 0 0 0
SMALL
GASTEIGER

@<TRIPOS>ATOM
      1  N          7.4190   91.0960   -1.3610 N.3     6  ILE6       -0.1245
      2  CA         8.5410   91.5740   -0.5740 C.3     6  ILE6        0.1561
      3  C          9.4500   92.3560   -1.4890 C.2     6  ILE6        0.2260
      4  O          9.4570   92.1480   -2.7100 O.2     6  ILE6       -0.2867
      5  CB         9.3180   90.4300    0.1040 C.3     6  ILE6        0.0252
      6  CG1        9.9010   89.4690   -0.9270 C.3     6  ILE6        0.0019
      7  CG2        8.3960   89.6700    1.0300 C.3     6  ILE6        0.0019
      8  CD1       10.7470   88.3370   -0.3260 C.3     6  ILE6        0.0001
      9  N         16.2280   96.7430   -1.3920 N.3     9  ASP9       -0.1225
     10  CA        17.0010   97.6190   -2.2430 C.3     9  ASP9        0.1805
     11  C         18.2890   97.9950   -1.5330 C.2     9  ASP9        0.2597
     12  O         18.2920   98.2690   -0.3350 O.2     9  ASP9       -0.2718
     13  CB        16.2140   98.8760   -2.6140 C.3     9  ASP9        0.1424
     14  CG        16.7390   99.5340   -3.8770 C.2     9  ASP9        0.3668
     15  OD1       16.9370   98.8180   -4.8790 O.co2   9  ASP9       -0.2456
     16  OD2       16.9510  100.7630   -3.8730 O.co2   9  ASP9       -0.2456
     17  N         19.3780   98.0230   -2.2840 N.am   10  ILE10      -0.1980
     18  CA        20.6670   98.4250   -1.7530 C.3    10  ILE10       0.1595
     19  C         21.1170   99.6080   -2.5990 C.2    10  ILE10       0.2287
     20  O         20.9950   99.5770   -3.8310 O.2    10  ILE10      -0.2864
     21  CB        21.6690   97.2520   -1.7730 C.3    10  ILE10       0.0276
     22  CG1       22.7590   97.4550   -0.7310 C.3    10  ILE10       0.0022
     23  CG2       22.2610   97.0650   -3.1450 C.3    10  ILE10       0.0022
     24  CD1       23.5910   96.2000   -0.5000 C.3    10  ILE10       0.0001
     25  N         26.2460  106.5420   -5.5420 N.3    15  ARG15      -0.1245
     26  CA        25.2440  106.6380   -6.5970 C.3    15  ARG15       0.1563
     27  C         24.3540  107.8730   -6.4150 C.2    15  ARG15       0.2260
     28  O         24.0880  108.6150   -7.3670 O.2    15  ARG15      -0.2867
     29  CB        24.4050  105.3590   -6.6240 C.3    15  ARG15       0.0307
     30  CG        23.3470  105.3630   -7.7310 C.3    15  ARG15       0.0489
     31  CD        22.7910  103.9640   -7.9440 C.3    15  ARG15       0.2205
     32  NE        21.4460  103.9830   -8.5110 N.pl3  15  ARG15      -0.0865
     33  CZ        20.4100  103.2880   -8.0470 C.cat  15  ARG15       0.5346
     34  NH1       20.5380  102.4880   -6.9950 N.pl3  15  ARG15       0.1354
     35  NH2       19.2340  103.3860   -8.6560 N.pl3  15  ARG15       0.1354
     36  N         23.8700  111.1930   -8.8380 N.3    19  LEU19      -0.1245
     37  CA        22.5610  111.6330   -9.3150 C.3    19  LEU19       0.1561
     38  C         22.2870  113.0660   -8.9080 C.2    19  LEU19       0.2260
     39  O         21.7940  113.8630   -9.7060 O.2    19  LEU19      -0.2867
     40  CB        21.4760  110.7240   -8.7690 C.3    19  LEU19       0.0270
     41  CG        21.4310  109.3230   -9.3670 C.3    19  LEU19       0.0019
     42  CD1       20.6260  108.4130   -8.4960 C.3    19  LEU19       0.0001
     43  CD2       20.8520  109.3590  -10.7750 C.3    19  LEU19       0.0001
     44  N         21.5040  116.0250  -11.6970 N.3    23  PHE23      -0.1241
     45  CA        20.2280  116.7200  -11.7830 C.3    23  PHE23       0.1605
     46  C         20.2010  118.0020  -10.9670 C.2    23  PHE23       0.2264
     47  O         19.1920  118.7150  -11.0000 O.2    23  PHE23      -0.2867
     48  CB        19.0880  115.7930  -11.3460 C.3    23  PHE23       0.0534
     49  CG        18.9140  114.5960  -12.2340 C.ar   23  PHE23      -0.0203
     50  CD1       18.3810  114.7310  -13.5040 C.ar   23  PHE23      -0.0042
     51  CD2       19.2820  113.3320  -11.8030 C.ar   23  PHE23      -0.0042
     52  CE1       18.2220  113.6290  -14.3260 C.ar   23  PHE23      -0.0003
     53  CE2       19.1280  112.2330  -12.6160 C.ar   23  PHE23      -0.0003
     54  CZ        18.5960  112.3790  -13.8810 C.ar   23  PHE23      -0.0000
     55  N         17.1610  117.6170   -7.7060 N.3    27  PHE27      -0.1241
     56  CA        17.0950  116.1680   -7.5720 C.3    27  PHE27       0.1605
     57  C         16.3000  115.7680   -6.3380 C.2    27  PHE27       0.2264
     58  O         15.4280  114.8880   -6.3980 O.2    27  PHE27      -0.2867
     59  CB        18.5030  115.5700   -7.5060 C.3    27  PHE27       0.0534
     60  CG        18.4930  114.1030   -7.2640 C.ar   27  PHE27      -0.0203
     61  CD1       17.9390  113.2400   -8.1860 C.ar   27  PHE27      -0.0042
     62  CD2       19.0020  113.5860   -6.0780 C.ar   27  PHE27      -0.0042
     63  CE1       17.9030  111.8780   -7.9390 C.ar   27  PHE27      -0.0003
     64  CE2       18.9700  112.2420   -5.8340 C.ar   27  PHE27      -0.0003
     65  CZ        18.4210  111.3850   -6.7590 C.ar   27  PHE27      -0.0000
     66  N         12.7080  115.6930   -6.8310 N.3    30  ARG30      -0.1231
     67  CA        12.1510  114.6340   -7.6650 C.3    30  ARG30       0.1694
     68  C         11.9870  113.3040   -6.9420 C.2    30  ARG30       0.2591
     69  O         11.1110  112.5230   -7.3230 O.2    30  ARG30      -0.2718
     70  CB        13.0130  114.4260   -8.9130 C.3    30  ARG30       0.0321
     71  CG        12.9120  115.5600   -9.8960 C.3    30  ARG30       0.0489
     72  CD        13.6560  115.2220  -11.1590 C.3    30  ARG30       0.2205
     73  NE        13.7020  116.3450  -12.0860 N.pl3  30  ARG30      -0.0865
     74  CZ        14.3900  116.3400  -13.2210 C.cat  30  ARG30       0.5346
     75  NH1       15.0930  115.2680  -13.5650 N.pl3  30  ARG30       0.1354
     76  NH2       14.3790  117.4050  -14.0110 N.pl3  30  ARG30       0.1354
     77  N         12.7510  113.0530   -5.8780 N.am   31  ILE31      -0.1980
     78  CA        12.7200  111.7780   -5.1690 C.3    31  ILE31       0.1595
     79  C         11.8860  111.8900   -3.9040 C.2    31  ILE31       0.2287
     80  O         11.2820  110.9100   -3.4730 O.2    31  ILE31      -0.2864
     81  CB        14.1500  111.3270   -4.8190 C.3    31  ILE31       0.0276
     82  CG1       14.9320  111.0830   -6.1100 C.3    31  ILE31       0.0022
     83  CG2       14.1450  110.0790   -3.9740 C.3    31  ILE31       0.0022
     84  CD1       14.3130  110.0780   -7.0150 C.3    31  ILE31       0.0001
     85  N         15.4000  106.9340   -1.1090 N.3    54  PHE54      -0.1241
     86  CA        15.4780  106.3050   -2.4200 C.3    54  PHE54       0.1605
     87  C         15.3430  104.7890   -2.2880 C.2    54  PHE54       0.2264
     88  O         14.5280  104.1590   -2.9800 O.2    54  PHE54      -0.2867
     89  CB        16.7960  106.6900   -3.0950 C.3    54  PHE54       0.0534
     90  CG        16.8840  106.3490   -4.5350 C.ar   54  PHE54      -0.0203
     91  CD1       16.4950  107.2600   -5.4890 C.ar   54  PHE54      -0.0042
     92  CD2       17.4390  105.1540   -4.9510 C.ar   54  PHE54      -0.0042
     93  CE1       16.6040  106.9750   -6.8380 C.ar   54  PHE54      -0.0003
     94  CE2       17.5450  104.8620   -6.2930 C.ar   54  PHE54      -0.0003
     95  CZ        17.1300  105.7830   -7.2400 C.ar   54  PHE54      -0.0000
     96  N         12.2310  102.3490   -3.7370 N.3    58  GLU58      -0.1245
     97  CA        12.4610  101.2540   -4.6690 C.3    58  GLU58       0.1567
     98  C         12.0400   99.9180   -4.0670 C.2    58  GLU58       0.2260
     99  O         11.4660   99.0800   -4.7710 O.2    58  GLU58      -0.2867
    100  CB        13.9370  101.2090   -5.0880 C.3    58  GLU58       0.0388
    101  CG        14.4580  102.5360   -5.6680 C.3    58  GLU58       0.1160
    102  CD        14.6380  102.5390   -7.1830 C.2    58  GLU58       0.3649
    103  OE1       13.6810  102.8870   -7.9110 O.co2  58  GLU58      -0.2457
    104  OE2       15.7560  102.2280   -7.6440 O.co2  58  GLU58      -0.2457
    105  N          8.3930   99.6610   -4.1560 N.3    61  ALA61      -0.1231
    106  CA         7.8950   99.4330   -5.5020 C.3    61  ALA61       0.1694
    107  C          8.0500   97.9790   -5.9150 C.2    61  ALA61       0.2591
    108  O          7.2030   97.4500   -6.6480 O.2    61  ALA61      -0.2718
    109  CB         8.6110  100.3730   -6.4540 C.3    61  ALA61       0.0304
    110  N          9.1060   97.3140   -5.4430 N.am   62  LYS62      -0.1980
    111  CA         9.2450   95.8810   -5.6570 C.3    62  LYS62       0.1596
    112  C          8.2290   95.0790   -4.8490 C.2    62  LYS62       0.2287
    113  O          7.6620   94.1030   -5.3580 O.2    62  LYS62      -0.2864
    114  CB        10.6650   95.4360   -5.3000 C.3    62  LYS62       0.0298
    115  CG        11.7310   96.0640   -6.1700 C.3    62  LYS62       0.0038
    116  CD        13.1150   95.7200   -5.6560 C.3    62  LYS62       0.0206
    117  CE        14.2020   96.5020   -6.3810 C.3    62  LYS62       0.1093
    118  NZ        15.5720   96.1720   -5.8770 N.3    62  LYS62      -0.1314
    119  N          4.9670   94.8680   -6.3840 N.3    65  GLY65      -0.1210
    120  CA         4.9530   94.0490   -7.5600 C.3    65  GLY65       0.1956
    121  C          5.0690   94.7730   -8.8710 C.2    65  GLY65       0.2613
    122  O          5.0470   94.1090   -9.9070 O.2    65  GLY65      -0.2717
    123  N          5.2160   96.0960   -8.8760 N.am   66  THR66      -0.1938
    124  CA         5.1160   96.8620  -10.1100 C.3    66  THR66       0.2028
    125  C          6.3800   97.6100  -10.5010 C.2    66  THR66       0.2643
    126  O          6.5120   98.0010  -11.6640 O.2    66  THR66      -0.2714
    127  CB         3.9860   97.8940  -10.0020 C.3    66  THR66       0.1808
    128  OG1        4.3200   98.8470   -8.9950 O.3    66  THR66      -0.2208
    129  CG2        2.6870   97.2090   -9.6210 C.3    66  THR66       0.0379
    130  N          7.2890   97.8400   -9.5870 N.am   67  GLY67      -0.1939
    131  CA         8.3300   98.8060   -9.8460 C.3    67  GLY67       0.2014
    132  C          7.7420  100.2050   -9.8210 C.2    67  GLY67       0.2638
    133  O          6.5660  100.4100   -9.5400 O.2    67  GLY67      -0.2714
    134  N          8.6080  101.1830  -10.0550 N.am   68  ILE68      -0.1977
    135  CA         8.1810  102.5890  -10.0460 C.3    68  ILE68       0.1596
    136  C          7.3970  102.8390  -11.3210 C.2    68  ILE68       0.2287
    137  O          7.9590  102.8800  -12.4340 O.2    68  ILE68      -0.2864
    138  CB         9.3780  103.5400   -9.8940 C.3    68  ILE68       0.0276
    139  CG1       10.0200  103.3600   -8.5170 C.3    68  ILE68       0.0022
    140  CG2        8.9840  105.0060  -10.1250 C.3    68  ILE68       0.0022
    141  CD1        9.1540  103.8980   -7.3950 C.3    68  ILE68       0.0001
    142  N          7.8790  107.9600   -6.6660 N.3    74  PHE74      -0.1241
    143  CA         8.6800  108.5760   -5.6120 C.3    74  PHE74       0.1605
    144  C          7.8750  109.6140   -4.8540 C.2    74  PHE74       0.2264
    145  O          7.9490  109.6880   -3.6260 O.2    74  PHE74      -0.2867
    146  CB         9.9110  109.2400   -6.2100 C.3    74  PHE74       0.0534
    147  CG        10.8980  108.2750   -6.8010 C.ar   74  PHE74      -0.0203
    148  CD1       11.3300  107.1820   -6.0870 C.ar   74  PHE74      -0.0042
    149  CD2       11.3640  108.4590   -8.0890 C.ar   74  PHE74      -0.0042
    150  CE1       12.2510  106.2870   -6.6430 C.ar   74  PHE74      -0.0003
    151  CE2       12.2650  107.5660   -8.6400 C.ar   74  PHE74      -0.0003
    152  CZ        12.6990  106.4900   -7.9040 C.ar   74  PHE74      -0.0000
@<TRIPOS>BOND
     1    52    54   ar
     2    52    50   ar
     3    76    74    1
     4    54    53   ar
     5    75    74    1
     6    50    49   ar
     7    74    73    2
     8    53    51   ar
     9   137   136    2
    10    49    51   ar
    11    49    48    1
    12    73    72    1
    13    45    44    1
    14    45    48    1
    15    45    46    1
    16   126   125    2
    17   136   135    1
    18    72    71    1
    19    47    46    2
    20    43    41    1
    21   125   124    1
    22   125   130   am
    23   140   138    1
    24   124   127    1
    25   124   123    1
    26   134   135    1
    27   134   132   am
    28   135   138    1
    29   127   129    1
    30   127   128    1
    31   122   121    2
    32    71    70    1
    33   138   139    1
    34   131   132    1
    35   131   130    1
    36   132   133    2
    37    39    38    2
    38    41    40    1
    39    41    42    1
    40    37    38    1
    41    37    36    1
    42    37    40    1
    43    70    67    1
    44   123   121   am
    45   121   120    1
    46    35    33    1
    47   151   149   ar
    48   151   152   ar
    49   139   141    1
    50    32    33    2
    51    32    31    1
    52    61    63   ar
    53    61    60   ar
    54   149   147   ar
    55    33    34    1
    56    31    30    1
    57    63    65   ar
    58   103   102   ar
    59   152   150   ar
    60    30    29    1
    61    55    56    1
    62    67    68    1
    63    67    66    1
    64   104   102   ar
    65    56    59    1
    66    56    57    1
    67   120   119    1
    68    59    60    1
    69    28    27    2
    70    69    68    2
    71    60    62   ar
    72    95    93   ar
    73    95    94   ar
    74   102   101    1
    75    84    82    1
    76    68    77   am
    77    93    91   ar
    78   147   146    1
    79   147   148   ar
    80    65    64   ar
    81   142   143    1
    82   108   107    2
    83   150   148   ar
    84    29    26    1
    85    26    27    1
    86    26    25    1
    87   109   106    1
    88    58    57    2
    89   117   118    1
    90   117   116    1
    91    94    92   ar
    92   146   143    1
    93   115   116    1
    94   115   114    1
    95    82    81    1
    96    62    64   ar
    97   107   106    1
    98   107   110   am
    99    77    78    1
   100   101   100    1
   101   111   110    1
   102   111   114    1
   103   111   112    1
   104   143   144    1
   105   106   105    1
   106    91    90   ar
   107   113   112    2
   108    78    81    1
   109    78    79    1
   110   100    97    1
   111    92    90   ar
   112    15    14   ar
   113   144   145    2
   114    81    83    1
   115    99    98    2
   116    97    98    1
   117    97    96    1
   118    90    89    1
   119    79    80    2
   120    14    16   ar
   121    14    13    1
   122    20    19    2
   123    23    21    1
   124    89    86    1
   125    88    87    2
   126     4     3    2
   127    13    10    1
   128    19    18    1
   129    86    87    1
   130    86    85    1
   131    17    18    1
   132    17    11   am
   133    10    11    1
   134    10     9    1
   135    21    18    1
   136    21    22    1
   137    11    12    2
   138     3     2    1
   139     1     2    1
   140     6     8    1
   141     6     5    1
   142    22    24    1
   143     2     5    1
   144     5     7    1
