@<TRIPOS>MOLECULE
tmp/5suwA00.pdb
 170 157 0 0 0
SMALL
GASTEIGER

@<TRIPOS>ATOM
      1  N         -1.3750   -3.5680  -25.1500 N.3     9  TYR9       -0.1241
      2  CA        -0.8630   -2.3160  -24.6150 C.3     9  TYR9        0.1605
      3  C         -0.7910   -1.2580  -25.7070 C.2     9  TYR9        0.2264
      4  O         -0.3280   -1.5300  -26.8180 O.2     9  TYR9       -0.2867
      5  CB         0.5220   -2.5160  -24.0150 C.3     9  TYR9        0.0534
      6  CG         0.5850   -3.6290  -23.0020 C.ar    9  TYR9       -0.0201
      7  CD1        0.8760   -4.9230  -23.3860 C.ar    9  TYR9       -0.0009
      8  CD2        0.3540   -3.3820  -21.6580 C.ar    9  TYR9       -0.0009
      9  CE1        0.9410   -5.9380  -22.4640 C.ar    9  TYR9        0.0417
     10  CE2        0.4210   -4.3890  -20.7250 C.ar    9  TYR9        0.0417
     11  CZ         0.7130   -5.6640  -21.1280 C.ar    9  TYR9        0.1957
     12  OH         0.7730   -6.6770  -20.1970 O.3     9  TYR9       -0.2866
     13  N          8.9810    1.2890  -23.9970 N.3    17  TYR17      -0.1241
     14  CA         8.9520    0.3120  -22.9250 C.3    17  TYR17       0.1605
     15  C         10.3760   -0.1880  -22.6860 C.2    17  TYR17       0.2264
     16  O         11.1300   -0.4090  -23.6400 O.2    17  TYR17      -0.2867
     17  CB         8.0210   -0.8430  -23.2960 C.3    17  TYR17       0.0534
     18  CG         6.5550   -0.4750  -23.3010 C.ar   17  TYR17      -0.0201
     19  CD1        5.9730    0.1500  -22.2090 C.ar   17  TYR17      -0.0009
     20  CD2        5.7460   -0.7700  -24.3970 C.ar   17  TYR17      -0.0009
     21  CE1        4.6240    0.4790  -22.2090 C.ar   17  TYR17       0.0417
     22  CE2        4.4040   -0.4460  -24.4080 C.ar   17  TYR17       0.0417
     23  CZ         3.8460    0.1830  -23.3130 C.ar   17  TYR17       0.1957
     24  OH         2.5060    0.5170  -23.3160 O.3    17  TYR17      -0.2866
     25  N         12.6900   -2.9510  -20.2730 N.3    19  PHE19      -0.1241
     26  CA        12.6350   -4.1050  -19.3910 C.3    19  PHE19       0.1605
     27  C         14.0390   -4.5240  -18.9890 C.2    19  PHE19       0.2264
     28  O         14.9200   -4.6860  -19.8390 O.2    19  PHE19      -0.2867
     29  CB        11.8960   -5.2530  -20.0610 C.3    19  PHE19       0.0534
     30  CG        10.5740   -4.8370  -20.6260 C.ar   19  PHE19      -0.0203
     31  CD1        9.5200   -4.4750  -19.7710 C.ar   19  PHE19      -0.0042
     32  CD2       10.3830   -4.7690  -22.0100 C.ar   19  PHE19      -0.0042
     33  CE1        8.2820   -4.0670  -20.2820 C.ar   19  PHE19      -0.0003
     34  CE2        9.1440   -4.3630  -22.5380 C.ar   19  PHE19      -0.0003
     35  CZ         8.0920   -4.0040  -21.6740 C.ar   19  PHE19      -0.0000
     36  N         13.8070   -8.7980  -16.5620 N.3    22  LEU22      -0.1245
     37  CA        12.4680   -9.3420  -16.6920 C.3    22  LEU22       0.1561
     38  C         12.5700  -10.8500  -16.8390 C.2    22  LEU22       0.2260
     39  O         13.1390  -11.3460  -17.8200 O.2    22  LEU22      -0.2867
     40  CB        11.7600   -8.7290  -17.8930 C.3    22  LEU22       0.0270
     41  CG        10.3550   -9.2300  -18.1730 C.3    22  LEU22       0.0019
     42  CD1        9.4390   -8.9280  -17.0090 C.3    22  LEU22       0.0001
     43  CD2        9.8630   -8.5600  -19.4350 C.3    22  LEU22       0.0001
     44  N         10.9200  -14.4330  -17.5570 N.3    24  ILE24      -0.1245
     45  CA         9.8510  -14.9360  -18.4070 C.3    24  ILE24       0.1561
     46  C          9.3050  -16.1920  -17.7300 C.2    24  ILE24       0.2260
     47  O          9.9320  -17.2560  -17.7440 O.2    24  ILE24      -0.2867
     48  CB        10.3640  -15.1970  -19.8240 C.3    24  ILE24       0.0252
     49  CG1       10.9510  -13.9050  -20.3720 C.3    24  ILE24       0.0019
     50  CG2        9.2520  -15.7140  -20.7460 C.3    24  ILE24       0.0019
     51  CD1        9.9530  -12.7740  -20.3650 C.3    24  ILE24       0.0001
     52  N          6.1260  -16.6110  -24.0570 N.3    28  LYS28      -0.1245
     53  CA         5.4310  -15.3960  -24.4360 C.3    28  LYS28       0.1561
     54  C          5.7790  -15.0390  -25.8680 C.2    28  LYS28       0.2260
     55  O          6.9010  -15.2790  -26.3220 O.2    28  LYS28      -0.2867
     56  CB         5.8080  -14.2280  -23.5190 C.3    28  LYS28       0.0271
     57  CG         5.3700  -14.4590  -22.1100 C.3    28  LYS28       0.0035
     58  CD         5.4620  -13.2350  -21.2440 C.3    28  LYS28       0.0206
     59  CE         4.9480  -13.5890  -19.8710 C.3    28  LYS28       0.1093
     60  NZ         4.5960  -12.3550  -19.1600 N.3    28  LYS28      -0.1314
     61  N          4.9970  -11.6080  -28.7620 N.3    30  PHE30      -0.1241
     62  CA         4.3660  -10.3100  -28.9490 C.3    30  PHE30       0.1605
     63  C          4.6450   -9.7630  -30.3430 C.2    30  PHE30       0.2264
     64  O          5.6110  -10.1370  -31.0130 O.2    30  PHE30      -0.2867
     65  CB         4.7770   -9.3030  -27.8560 C.3    30  PHE30       0.0534
     66  CG         6.2320   -8.8740  -27.8770 C.ar   30  PHE30      -0.0203
     67  CD1        7.1740   -9.5200  -27.0880 C.ar   30  PHE30      -0.0042
     68  CD2        6.6340   -7.7680  -28.6080 C.ar   30  PHE30      -0.0042
     69  CE1        8.5050   -9.0990  -27.0620 C.ar   30  PHE30      -0.0003
     70  CE2        7.9580   -7.3440  -28.5910 C.ar   30  PHE30      -0.0003
     71  CZ         8.8900   -8.0060  -27.8060 C.ar   30  PHE30      -0.0000
     72  N          9.6960  -14.8990  -26.6540 N.3    58  LEU58      -0.1245
     73  CA        10.5360  -14.8680  -25.4590 C.3    58  LEU58       0.1561
     74  C         10.5060  -16.2510  -24.8290 C.2    58  LEU58       0.2260
     75  O          9.4280  -16.7880  -24.5470 O.2    58  LEU58      -0.2867
     76  CB        10.0640  -13.8080  -24.4660 C.3    58  LEU58       0.0270
     77  CG         9.9560  -12.4320  -25.1280 C.3    58  LEU58       0.0019
     78  CD1        9.2540  -11.3790  -24.2440 C.3    58  LEU58       0.0001
     79  CD2       11.3490  -11.9700  -25.5670 C.3    58  LEU58       0.0001
     80  N         15.6480   -5.6020  -22.6980 N.3    66  PHE66      -0.1241
     81  CA        15.4560   -4.9850  -23.9960 C.3    66  PHE66       0.1605
     82  C         14.5120   -3.8060  -23.8520 C.2    66  PHE66       0.2264
     83  O         13.8250   -3.6480  -22.8370 O.2    66  PHE66      -0.2867
     84  CB        14.9340   -5.9920  -25.0350 C.3    66  PHE66       0.0534
     85  CG        13.5330   -6.4610  -24.7910 C.ar   66  PHE66      -0.0203
     86  CD1       13.2870   -7.5710  -24.0040 C.ar   66  PHE66      -0.0042
     87  CD2       12.4570   -5.8020  -25.3700 C.ar   66  PHE66      -0.0042
     88  CE1       11.9950   -8.0040  -23.7860 C.ar   66  PHE66      -0.0003
     89  CE2       11.1720   -6.2320  -25.1620 C.ar   66  PHE66      -0.0003
     90  CZ        10.9350   -7.3340  -24.3620 C.ar   66  PHE66      -0.0000
     91  N         11.6230   -1.4380  -26.3090 N.3    68  LEU68      -0.1245
     92  CA        10.7980   -1.3570  -27.5000 C.3    68  LEU68       0.1561
     93  C         10.3700    0.0910  -27.6400 C.2    68  LEU68       0.2260
     94  O          9.7780    0.6460  -26.7050 O.2    68  LEU68      -0.2867
     95  CB         9.5880   -2.2800  -27.3770 C.3    68  LEU68       0.0270
     96  CG         8.7740   -2.5170  -28.6290 C.3    68  LEU68       0.0019
     97  CD1        9.6160   -3.3270  -29.5870 C.3    68  LEU68       0.0001
     98  CD2        7.5180   -3.2680  -28.2320 C.3    68  LEU68       0.0001
     99  N          0.5480   -3.0360  -28.9620 N.3    78  VAL78      -0.1245
    100  CA         1.3590   -4.2330  -28.7970 C.3    78  VAL78       0.1561
    101  C          0.5020   -5.3120  -28.1490 C.2    78  VAL78       0.2260
    102  O         -0.0860   -5.0890  -27.0790 O.2    78  VAL78      -0.2867
    103  CB         2.6050   -3.9440  -27.9460 C.3    78  VAL78       0.0252
    104  CG1        3.5490   -5.1340  -27.9950 C.3    78  VAL78       0.0019
    105  CG2        3.2630   -2.6730  -28.4260 C.3    78  VAL78       0.0019
    106  N          0.4180   -9.1310  -26.5070 N.3    80  VAL80      -0.1245
    107  CA         1.2600  -10.1130  -25.8320 C.3    80  VAL80       0.1561
    108  C          0.4260  -11.3430  -25.5070 C.2    80  VAL80       0.2260
    109  O         -0.6760  -11.2280  -24.9550 O.2    80  VAL80      -0.2867
    110  CB         1.8780   -9.5450  -24.5440 C.3    80  VAL80       0.0252
    111  CG1        2.8690  -10.5740  -23.9340 C.3    80  VAL80       0.0019
    112  CG2        2.5460   -8.1970  -24.8240 C.3    80  VAL80       0.0019
    113  N          0.7500  -14.9400  -23.3980 N.3    82  THR82      -0.1218
    114  CA         1.4600  -15.8150  -22.4870 C.3    82  THR82       0.1862
    115  C          0.8120  -17.1830  -22.5740 C.2    82  THR82       0.2287
    116  O         -0.4100  -17.3000  -22.4410 O.2    82  THR82      -0.2866
    117  CB         1.4230  -15.2720  -21.0630 C.3    82  THR82       0.1770
    118  OG1        1.9530  -13.9370  -21.0590 O.3    82  THR82      -0.2211
    119  CG2        2.2620  -16.1640  -20.1440 C.3    82  THR82       0.0375
    120  N          7.5720  -11.2320  -11.7600 N.3   220  SER220     -0.1217
    121  CA         6.6980  -11.9070  -12.7200 C.3   220  SER220      0.1889
    122  C          5.5240  -12.5620  -12.0190 C.2   220  SER220      0.2288
    123  O          4.3970  -12.5580  -12.5360 O.2   220  SER220     -0.2866
    124  CB         7.4780  -12.9460  -13.5290 C.3   220  SER220      0.2089
    125  OG         8.1980  -12.2730  -14.5580 O.3   220  SER220     -0.2183
    126  N          3.1320   -9.8070  -11.5300 N.3   223  ILE223     -0.1245
    127  CA         2.4670   -9.4150  -12.7670 C.3   223  ILE223      0.1561
    128  C          1.3580  -10.4050  -13.0870 C.2   223  ILE223      0.2260
    129  O          0.2360  -10.0210  -13.4500 O.2   223  ILE223     -0.2867
    130  CB         3.4970   -9.2910  -13.9020 C.3   223  ILE223      0.0252
    131  CG1        4.2500   -7.9720  -13.7590 C.3   223  ILE223      0.0019
    132  CG2        2.8330   -9.3970  -15.2830 C.3   223  ILE223      0.0019
    133  CD1        5.6030   -7.9910  -14.4330 C.3   223  ILE223      0.0001
    134  N         -2.8120   -9.5520  -13.4270 N.3   227  LYS227     -0.1245
    135  CA        -3.6550   -9.8730  -14.5790 C.3   227  LYS227      0.1561
    136  C         -4.9510  -10.5620  -14.1710 C.2   227  LYS227      0.2260
    137  O         -5.9470  -10.4690  -14.8920 O.2   227  LYS227     -0.2867
    138  CB        -2.8880  -10.7350  -15.5830 C.3   227  LYS227      0.0271
    139  CG        -1.6540  -10.0460  -16.1640 C.3   227  LYS227      0.0035
    140  CD        -0.7330  -11.0450  -16.8340 C.3   227  LYS227      0.0206
    141  CE         0.1370  -10.3970  -17.9170 C.3   227  LYS227      0.1093
    142  NZ         1.0690  -11.4160  -18.5190 N.3   227  LYS227     -0.1314
    143  N         10.3920   -2.8990  -14.8120 N.3   256  MET256     -0.1245
    144  CA         9.3560   -2.5970  -15.7760 C.3   256  MET256      0.1570
    145  C          9.3580   -1.1450  -16.2020 C.2   256  MET256      0.2261
    146  O          8.6540   -0.8020  -17.1530 O.2   256  MET256     -0.2867
    147  CB         7.9760   -2.9490  -15.1930 C.3   256  MET256      0.0387
    148  CG         7.8320   -4.4090  -14.7990 C.3   256  MET256      0.0595
    149  SD         7.6990   -5.4870  -16.2440 S.3   256  MET256     -0.1393
    150  CE         6.0740   -5.0130  -16.8670 C.3   256  MET256      0.0692
    151  N          1.1690    0.0600  -13.9270 N.3   263  TYR263     -0.1241
    152  CA         1.0000   -1.1490  -14.7270 C.3   263  TYR263      0.1605
    153  C         -0.3700   -1.7700  -14.5010 C.2   263  TYR263      0.2264
    154  O         -1.0280   -2.2120  -15.4530 O.2   263  TYR263     -0.2867
    155  CB         2.0910   -2.1760  -14.4270 C.3   263  TYR263      0.0534
    156  CG         1.8830   -3.4470  -15.2100 C.ar  263  TYR263     -0.0201
    157  CD1        2.3000   -3.5370  -16.5320 C.ar  263  TYR263     -0.0009
    158  CD2        1.2580   -4.5480  -14.6420 C.ar  263  TYR263     -0.0009
    159  CE1        2.1030   -4.6840  -17.2710 C.ar  263  TYR263      0.0417
    160  CE2        1.0600   -5.7060  -15.3730 C.ar  263  TYR263      0.0417
    161  CZ         1.4840   -5.7640  -16.6910 C.ar  263  TYR263      0.1957
    162  OH         1.2920   -6.9010  -17.4400 O.3   263  TYR263     -0.2866
    163  N         -2.6810   -0.2150  -16.8020 N.3   266  MET266     -0.1245
    164  CA        -2.5250   -0.5880  -18.2090 C.3   266  MET266      0.1570
    165  C         -3.2750   -1.8760  -18.5270 C.2   266  MET266      0.2261
    166  O         -3.7230   -2.0660  -19.6620 O.2   266  MET266     -0.2867
    167  CB        -1.0420   -0.7370  -18.5790 C.3   266  MET266      0.0387
    168  CG        -0.2910    0.5750  -18.6750 C.3   266  MET266      0.0595
    169  SD         1.5040    0.4130  -18.5100 S.3   266  MET266     -0.1393
    170  CE         1.8720   -0.9900  -19.5680 C.3   266  MET266      0.0692
@<TRIPOS>BOND
     1    64    63    2
     2    63    62    1
     3    97    96    1
     4    99   100    1
     5    62    61    1
     6    62    65    1
     7   100   101    1
     8   100   103    1
     9    96    98    1
    10    96    95    1
    11    68    70   ar
    12    68    66   ar
    13    70    71   ar
    14   105   103    1
    15   101   102    2
    16   104   103    1
    17    66    65    1
    18    66    67   ar
    19    71    69   ar
    20    93    92    1
    21    93    94    2
    22    92    95    1
    23    92    91    1
    24    67    69   ar
    25     4     3    2
    26    72    73    1
    27   106   107    1
    28    55    54    2
    29    54    53    1
    30   107   108    1
    31   107   110    1
    32     3     2    1
    33    79    77    1
    34   108   109    2
    35    73    74    1
    36    73    76    1
    37    87    89   ar
    38    87    85   ar
    39    89    90   ar
    40     1     2    1
    41    77    76    1
    42    77    78    1
    43    84    85    1
    44    84    81    1
    45    74    75    2
    46   112   110    1
    47    85    86   ar
    48     2     5    1
    49   110   111    1
    50    53    52    1
    51    53    56    1
    52    22    20   ar
    53    22    23   ar
    54    20    18   ar
    55    90    88   ar
    56     5     6    1
    57    86    88   ar
    58    13    14    1
    59    81    82    1
    60    81    80    1
    61    82    83    2
    62    16    15    2
    63    56    57    1
    64   113   114    1
    65     7     6   ar
    66     7     9   ar
    67    24    23    1
    68    23    21   ar
    69    18    17    1
    70    18    19   ar
    71    17    14    1
    72     6     8   ar
    73    14    15    1
    74   115   114    1
    75   115   116    2
    76    34    32   ar
    77    34    35   ar
    78   114   117    1
    79     9    11   ar
    80    21    19   ar
    81    57    58    1
    82    32    30   ar
    83    35    33   ar
    84     8    10   ar
    85    58    59    1
    86    11    10   ar
    87    11    12    1
    88   117   118    1
    89   117   119    1
    90    50    48    1
    91    30    29    1
    92    30    31   ar
    93    49    51    1
    94    49    48    1
    95    33    31   ar
    96    25    26    1
    97    29    26    1
    98    59    60    1
    99    28    27    2
   100    48    45    1
   101   166   165    2
   102   170   169    1
   103    43    41    1
   104    26    27    1
   105   168   167    1
   106   168   169    1
   107   167   164    1
   108   165   164    1
   109   142   141    1
   110    45    46    1
   111    45    44    1
   112   164   163    1
   113    41    40    1
   114    41    42    1
   115   141   140    1
   116    40    37    1
   117    39    38    2
   118    47    46    2
   119   162   161    1
   120   159   161   ar
   121   159   157   ar
   122   146   145    2
   123   150   149    1
   124    38    37    1
   125   140   139    1
   126    37    36    1
   127   161   160   ar
   128   157   156   ar
   129   149   148    1
   130   145   144    1
   131   139   138    1
   132   144   147    1
   133   144   143    1
   134   138   135    1
   135   154   153    2
   136   160   158   ar
   137   132   130    1
   138   156   158   ar
   139   156   155    1
   140   147   148    1
   141   137   136    2
   142   152   153    1
   143   152   155    1
   144   152   151    1
   145   135   136    1
   146   135   134    1
   147   125   124    1
   148   133   131    1
   149   130   131    1
   150   130   127    1
   151   124   121    1
   152   129   128    2
   153   128   127    1
   154   127   126    1
   155   121   122    1
   156   121   120    1
   157   123   122    2
