@<TRIPOS>MOLECULE
tmp/5suxA00.pdb
 165 153 0 0 0
SMALL
GASTEIGER

@<TRIPOS>ATOM
      1  N         -2.9400   -9.6610  -23.7330 N.3     6  ASN6       -0.1240
      2  CA        -3.0480   -8.2500  -23.3920 C.3     6  ASN6        0.1653
      3  C         -2.6700   -7.4200  -24.6110 C.2     6  ASN6        0.2266
      4  O         -1.8870   -7.8580  -25.4590 O.2     6  ASN6       -0.2867
      5  CB        -2.1510   -7.8750  -22.2040 C.3     6  ASN6        0.1155
      6  CG        -2.6580   -8.4320  -20.8880 C.2     6  ASN6        0.2627
      7  OD1       -2.0940   -9.3800  -20.3440 O.2     6  ASN6       -0.2716
      8  ND2       -3.7270   -7.8400  -20.3690 N.am    6  ASN6       -0.0877
      9  N         -1.3740   -3.4190  -25.5070 N.3     8  TYR8       -0.1241
     10  CA        -0.8190   -2.1960  -24.9440 C.3     8  TYR8        0.1605
     11  C         -0.6840   -1.1410  -26.0330 C.2     8  TYR8        0.2264
     12  O         -0.4170   -1.4670  -27.1930 O.2     8  TYR8       -0.2867
     13  CB         0.5490   -2.4580  -24.3080 C.3     8  TYR8        0.0534
     14  CG         0.5500   -3.5710  -23.2890 C.ar    8  TYR8       -0.0201
     15  CD1        0.1990   -3.3260  -21.9680 C.ar    8  TYR8       -0.0009
     16  CD2        0.9080   -4.8650  -23.6440 C.ar    8  TYR8       -0.0009
     17  CE1        0.2010   -4.3390  -21.0290 C.ar    8  TYR8        0.0417
     18  CE2        0.9130   -5.8850  -22.7110 C.ar    8  TYR8        0.0417
     19  CZ         0.5600   -5.6170  -21.4050 C.ar    8  TYR8        0.1957
     20  OH         0.5640   -6.6300  -20.4710 O.3     8  TYR8       -0.2866
     21  N          8.9310    1.2580  -24.2620 N.3    16  TYR16      -0.1241
     22  CA         8.8880    0.3060  -23.1640 C.3    16  TYR16       0.1605
     23  C         10.2850   -0.2660  -22.9630 C.2    16  TYR16       0.2264
     24  O         10.9560   -0.6320  -23.9320 O.2    16  TYR16      -0.2867
     25  CB         7.8960   -0.8240  -23.4460 C.3    16  TYR16       0.0534
     26  CG         6.4420   -0.4070  -23.4350 C.ar   16  TYR16      -0.0201
     27  CD1        5.6890   -0.4140  -24.6020 C.ar   16  TYR16      -0.0009
     28  CD2        5.8180   -0.0180  -22.2570 C.ar   16  TYR16      -0.0009
     29  CE1        4.3580   -0.0440  -24.5950 C.ar   16  TYR16       0.0417
     30  CE2        4.4860    0.3580  -22.2430 C.ar   16  TYR16       0.0417
     31  CZ         3.7620    0.3440  -23.4160 C.ar   16  TYR16       0.1957
     32  OH         2.4360    0.7160  -23.4120 O.3    16  TYR16      -0.2866
     33  N         12.5710   -2.9830  -20.5140 N.3    18  PHE18      -0.1241
     34  CA        12.5180   -4.0960  -19.5790 C.3    18  PHE18       0.1605
     35  C         13.9310   -4.5050  -19.1950 C.2    18  PHE18       0.2264
     36  O         14.8020   -4.6370  -20.0600 O.2    18  PHE18      -0.2867
     37  CB        11.7460   -5.2690  -20.1830 C.3    18  PHE18       0.0534
     38  CG        10.3670   -4.8960  -20.6430 C.ar   18  PHE18      -0.0203
     39  CD1        9.3560   -4.6730  -19.7230 C.ar   18  PHE18      -0.0042
     40  CD2       10.0870   -4.7400  -21.9910 C.ar   18  PHE18      -0.0042
     41  CE1        8.0870   -4.3160  -20.1380 C.ar   18  PHE18      -0.0003
     42  CE2        8.8190   -4.3830  -22.4120 C.ar   18  PHE18      -0.0003
     43  CZ         7.8180   -4.1700  -21.4840 C.ar   18  PHE18      -0.0000
     44  N         13.6860   -8.9190  -16.8020 N.3    21  LEU21      -0.1245
     45  CA        12.3170   -9.4160  -16.8860 C.3    21  LEU21       0.1561
     46  C         12.3520  -10.9330  -17.0010 C.2    21  LEU21       0.2260
     47  O         12.7610  -11.4760  -18.0330 O.2    21  LEU21      -0.2867
     48  CB        11.5840   -8.8020  -18.0740 C.3    21  LEU21       0.0270
     49  CG        10.1330   -9.2720  -18.2190 C.3    21  LEU21       0.0019
     50  CD1        9.2950   -8.8140  -17.0310 C.3    21  LEU21       0.0001
     51  CD2        9.5260   -8.7910  -19.5260 C.3    21  LEU21       0.0001
     52  N          8.0950  -16.1600  -17.2810 N.3    24  ASN24      -0.1240
     53  CA         7.5520  -17.2850  -16.5270 C.3    24  ASN24       0.1653
     54  C          6.8250  -18.2930  -17.4030 C.2    24  ASN24       0.2266
     55  O          6.6100  -19.4300  -16.9680 O.2    24  ASN24      -0.2867
     56  CB         6.6050  -16.7800  -15.4370 C.3    24  ASN24       0.1155
     57  CG         5.3700  -16.1080  -16.0050 C.2    24  ASN24       0.2627
     58  OD1        5.4460  -15.3780  -16.9930 O.2    24  ASN24      -0.2716
     59  ND2        4.2230  -16.3540  -15.3820 N.am   24  ASN24      -0.0877
     60  N          6.0820  -16.5740  -24.3350 N.3    27  LYS27      -0.1245
     61  CA         5.3750  -15.3790  -24.7610 C.3    27  LYS27       0.1561
     62  C          5.7220  -15.0650  -26.2060 C.2    27  LYS27       0.2260
     63  O          6.7850  -15.4420  -26.7070 O.2    27  LYS27      -0.2867
     64  CB         5.7220  -14.1670  -23.8850 C.3    27  LYS27       0.0271
     65  CG         5.2930  -14.2870  -22.4350 C.3    27  LYS27       0.0035
     66  CD         5.7010  -13.0540  -21.6480 C.3    27  LYS27       0.0206
     67  CE         5.8050  -13.3550  -20.1630 C.3    27  LYS27       0.1093
     68  NZ         4.4690  -13.5820  -19.5460 N.3    27  LYS27      -0.1314
     69  N          4.9150  -11.5370  -29.0230 N.3    29  PHE29      -0.1241
     70  CA         4.2820  -10.2420  -29.2070 C.3    29  PHE29       0.1605
     71  C          4.5730   -9.7020  -30.6000 C.2    29  PHE29       0.2264
     72  O          5.5090  -10.1320  -31.2790 O.2    29  PHE29      -0.2867
     73  CB         4.7120   -9.2330  -28.1240 C.3    29  PHE29       0.0534
     74  CG         6.1660   -8.8450  -28.1680 C.ar   29  PHE29      -0.0203
     75  CD1        7.0970   -9.5080  -27.3850 C.ar   29  PHE29      -0.0042
     76  CD2        6.5940   -7.7880  -28.9570 C.ar   29  PHE29      -0.0042
     77  CE1        8.4310   -9.1390  -27.4050 C.ar   29  PHE29      -0.0003
     78  CE2        7.9250   -7.4170  -28.9850 C.ar   29  PHE29      -0.0003
     79  CZ         8.8450   -8.0900  -28.2050 C.ar   29  PHE29      -0.0000
     80  N          9.6060  -15.0230  -27.0040 N.3    57  LEU57      -0.1245
     81  CA        10.3910  -14.9330  -25.7790 C.3    57  LEU57       0.1561
     82  C         10.3920  -16.2870  -25.0830 C.2    57  LEU57       0.2260
     83  O          9.3270  -16.8330  -24.7740 O.2    57  LEU57      -0.2867
     84  CB         9.8410  -13.8500  -24.8460 C.3    57  LEU57       0.0270
     85  CG         9.7910  -12.4340  -25.4260 C.3    57  LEU57       0.0019
     86  CD1        9.2140  -11.4580  -24.4100 C.3    57  LEU57       0.0001
     87  CD2       11.1710  -11.9840  -25.8870 C.3    57  LEU57       0.0001
     88  N         15.5420   -5.6150  -22.8740 N.3    65  PHE65      -0.1241
     89  CA        15.3200   -5.0330  -24.1890 C.3    65  PHE65       0.1605
     90  C         14.3860   -3.8390  -24.0730 C.2    65  PHE65       0.2264
     91  O         13.6830   -3.6680  -23.0730 O.2    65  PHE65      -0.2867
     92  CB        14.7560   -6.0680  -25.1750 C.3    65  PHE65       0.0534
     93  CG        13.3390   -6.4870  -24.8860 C.ar   65  PHE65      -0.0203
     94  CD1       13.0720   -7.5300  -24.0160 C.ar   65  PHE65      -0.0042
     95  CD2       12.2730   -5.8490  -25.5020 C.ar   65  PHE65      -0.0042
     96  CE1       11.7690   -7.9200  -23.7540 C.ar   65  PHE65      -0.0003
     97  CE2       10.9700   -6.2350  -25.2490 C.ar   65  PHE65      -0.0003
     98  CZ        10.7170   -7.2720  -24.3730 C.ar   65  PHE65      -0.0000
     99  N         11.5740   -1.3520  -26.6050 N.3    67  LEU67      -0.1245
    100  CA        10.7550   -1.2890  -27.8110 C.3    67  LEU67       0.1561
    101  C         10.2590    0.1390  -27.9700 C.2    67  LEU67       0.2260
    102  O          9.6060    0.6720  -27.0670 O.2    67  LEU67      -0.2867
    103  CB         9.5810   -2.2690  -27.7340 C.3    67  LEU67       0.0270
    104  CG         8.6990   -2.4120  -28.9760 C.3    67  LEU67       0.0019
    105  CD1        9.4990   -2.9590  -30.1480 C.3    67  LEU67       0.0001
    106  CD2        7.5030   -3.3030  -28.6790 C.3    67  LEU67       0.0001
    107  N          0.4570   -2.9920  -29.2270 N.3    77  VAL77      -0.1245
    108  CA         1.3210   -4.1520  -29.0390 C.3    77  VAL77       0.1561
    109  C          0.4950   -5.2480  -28.3820 C.2    77  VAL77       0.2260
    110  O         -0.0540   -5.0520  -27.2910 O.2    77  VAL77      -0.2867
    111  CB         2.5540   -3.8060  -28.1890 C.3    77  VAL77       0.0252
    112  CG1        3.5320   -4.9710  -28.1790 C.3    77  VAL77       0.0019
    113  CG2        3.2200   -2.5410  -28.7080 C.3    77  VAL77       0.0019
    114  N          0.3670   -9.0000  -26.7170 N.3    79  VAL79      -0.1245
    115  CA         1.2180   -9.9620  -26.0250 C.3    79  VAL79       0.1561
    116  C          0.3780  -11.1780  -25.6640 C.2    79  VAL79       0.2260
    117  O         -0.6730  -11.0440  -25.0260 O.2    79  VAL79      -0.2867
    118  CB         1.8650   -9.3550  -24.7660 C.3    79  VAL79       0.0252
    119  CG1        2.8040  -10.3620  -24.1140 C.3    79  VAL79       0.0019
    120  CG2        2.6080   -8.0730  -25.1100 C.3    79  VAL79       0.0019
    121  N          2.9480   -9.8970  -11.5810 N.3   222  ILE222     -0.1245
    122  CA         2.2980   -9.5190  -12.8310 C.3   222  ILE222      0.1561
    123  C          1.1650  -10.4840  -13.1570 C.2   222  ILE222      0.2260
    124  O          0.0840  -10.0690  -13.5940 O.2   222  ILE222     -0.2867
    125  CB         3.3380   -9.4430  -13.9630 C.3   222  ILE222      0.0252
    126  CG1        4.2320   -8.2160  -13.7690 C.3   222  ILE222      0.0019
    127  CG2        2.6590   -9.4210  -15.3280 C.3   222  ILE222      0.0019
    128  CD1        5.4090   -8.1590  -14.7140 C.3   222  ILE222      0.0001
    129  N         -2.8550   -9.6090  -13.5190 N.3   226  LYS226     -0.1245
    130  CA        -3.6020   -9.9860  -14.7140 C.3   226  LYS226      0.1561
    131  C         -4.9350  -10.6420  -14.3730 C.2   226  LYS226      0.2260
    132  O         -5.8740  -10.5870  -15.1750 O.2   226  LYS226     -0.2867
    133  CB        -2.7610  -10.9190  -15.5860 C.3   226  LYS226      0.0271
    134  CG        -1.6740  -10.2150  -16.3860 C.3   226  LYS226      0.0035
    135  CD        -0.7700  -11.2190  -17.0900 C.3   226  LYS226      0.0206
    136  CE         0.1400  -10.5430  -18.1070 C.3   226  LYS226      0.1093
    137  NZ         1.0610  -11.5170  -18.7630 N.3   226  LYS226     -0.1314
    138  N         10.2230   -2.9650  -14.9070 N.3   255  MET255     -0.1245
    139  CA         9.2010   -2.6460  -15.8920 C.3   255  MET255      0.1570
    140  C          9.2250   -1.1990  -16.3650 C.2   255  MET255      0.2261
    141  O          8.5380   -0.8810  -17.3430 O.2   255  MET255     -0.2867
    142  CB         7.8100   -2.9610  -15.3210 C.3   255  MET255      0.0387
    143  CG         7.6260   -4.4090  -14.8990 C.3   255  MET255      0.0595
    144  SD         7.5000   -5.5180  -16.3130 S.3   255  MET255     -0.1393
    145  CE         5.8780   -5.0800  -16.9370 C.3   255  MET255      0.0692
    146  N          1.0830    0.0270  -14.1480 N.3   262  TYR262     -0.1241
    147  CA         0.9160   -1.1850  -14.9440 C.3   262  TYR262      0.1605
    148  C         -0.4570   -1.8030  -14.7200 C.2   262  TYR262      0.2264
    149  O         -1.0770   -2.3120  -15.6620 O.2   262  TYR262     -0.2867
    150  CB         2.0090   -2.2020  -14.6210 C.3   262  TYR262      0.0534
    151  CG         1.8840   -3.4520  -15.4570 C.ar  262  TYR262     -0.0201
    152  CD1        1.4550   -4.6500  -14.9000 C.ar  262  TYR262     -0.0009
    153  CD2        2.1640   -3.4240  -16.8160 C.ar  262  TYR262     -0.0009
    154  CE1        1.3270   -5.7890  -15.6710 C.ar  262  TYR262      0.0417
    155  CE2        2.0390   -4.5550  -17.5940 C.ar  262  TYR262      0.0417
    156  CZ         1.6210   -5.7340  -17.0180 C.ar  262  TYR262      0.1957
    157  OH         1.4970   -6.8620  -17.7960 O.3   262  TYR262     -0.2866
    158  N         -2.6960   -0.1340  -16.9300 N.3   265  MET265     -0.1245
    159  CA        -2.4470   -0.5420  -18.3100 C.3   265  MET265      0.1570
    160  C         -3.1660   -1.8400  -18.6470 C.2   265  MET265      0.2261
    161  O         -3.5500   -2.0560  -19.8020 O.2   265  MET265     -0.2867
    162  CB        -0.9460   -0.6950  -18.5550 C.3   265  MET265      0.0387
    163  CG        -0.1770    0.6130  -18.6110 C.3   265  MET265      0.0595
    164  SD         1.6090    0.3570  -18.6260 S.3   265  MET265     -0.1393
    165  CE         1.7530   -0.9930  -19.7950 C.3   265  MET265      0.0692
@<TRIPOS>BOND
     1    72    71    2
     2    71    70    1
     3   105   104    1
     4   107   108    1
     5    70    69    1
     6    70    73    1
     7   108   109    1
     8   108   111    1
     9    78    76   ar
    10    78    79   ar
    11   104   106    1
    12   104   103    1
    13    76    74   ar
    14   113   111    1
    15   109   110    2
    16    79    77   ar
    17   111   112    1
    18    74    73    1
    19    74    75   ar
    20   101   100    1
    21   101   102    2
    22   100   103    1
    23   100    99    1
    24    77    75   ar
    25    12    11    2
    26    80    81    1
    27   114   115    1
    28    63    62    2
    29    62    61    1
    30    11    10    1
    31   115   116    1
    32   115   118    1
    33    87    85    1
    34    81    82    1
    35    81    84    1
    36   116   117    2
    37     9    10    1
    38    95    97   ar
    39    95    93   ar
    40     4     3    2
    41    85    84    1
    42    85    86    1
    43    97    98   ar
    44    92    93    1
    45    92    89    1
    46   120   118    1
    47    82    83    2
    48    10    13    1
    49    93    94   ar
    50   118   119    1
    51    61    60    1
    52    61    64    1
    53     3     2    1
    54    27    29   ar
    55    27    26   ar
    56    29    31   ar
    57    98    96   ar
    58    13    14    1
    59    21    22    1
    60    89    90    1
    61    89    88    1
    62    90    91    2
    63    94    96   ar
    64    24    23    2
    65    64    65    1
    66     1     2    1
    67    16    14   ar
    68    16    18   ar
    69    25    26    1
    70    25    22    1
    71    26    28   ar
    72    31    32    1
    73    31    30   ar
    74     2     5    1
    75    14    15   ar
    76    22    23    1
    77    18    19   ar
    78    65    66    1
    79    42    40   ar
    80    42    43   ar
    81    28    30   ar
    82     5     6    1
    83    40    38   ar
    84    15    17   ar
    85    66    67    1
    86    43    41   ar
    87    19    17   ar
    88    19    20    1
    89     6     8   am
    90     6     7    2
    91    38    37    1
    92    38    39   ar
    93    33    34    1
    94    37    34    1
    95    67    68    1
    96    41    39   ar
    97    36    35    2
    98   161   160    2
    99   165   164    1
   100    34    35    1
   101    51    49    1
   102   137   136    1
   103   160   159    1
   104   164   163    1
   105   163   162    1
   106   162   159    1
   107   159   158    1
   108    49    48    1
   109    49    50    1
   110   136   135    1
   111    48    45    1
   112    47    46    2
   113   157   156    1
   114   155   156   ar
   115   155   153   ar
   116    54    55    2
   117    54    53    1
   118   141   140    2
   119    52    53    1
   120   135   134    1
   121   156   154   ar
   122    46    45    1
   123    58    57    2
   124   145   144    1
   125    45    44    1
   126   153   151   ar
   127    53    56    1
   128   134   133    1
   129   140   139    1
   130   144   143    1
   131    57    56    1
   132    57    59   am
   133   139   142    1
   134   139   138    1
   135   154   152   ar
   136   149   148    2
   137   133   130    1
   138   151   152   ar
   139   151   150    1
   140   127   125    1
   141   142   143    1
   142   132   131    2
   143   147   148    1
   144   147   150    1
   145   147   146    1
   146   130   131    1
   147   130   129    1
   148   128   126    1
   149   125   126    1
   150   125   122    1
   151   124   123    2
   152   123   122    1
   153   122   121    1
