@<TRIPOS>MOLECULE
tmp/5svfB01.pdb
 156 150 0 0 0
SMALL
GASTEIGER

@<TRIPOS>ATOM
      1  N         34.5950   15.7960   49.2850 N.3   106  ARG106     -0.1231
      2  CA        33.4640   16.6930   49.4130 C.3   106  ARG106      0.1694
      3  C         32.1960   15.9390   49.0900 C.2   106  ARG106      0.2592
      4  O         32.1830   15.0720   48.2080 O.2   106  ARG106     -0.2718
      5  CB        33.6000   17.9010   48.4830 C.3   106  ARG106      0.0321
      6  CG        34.6550   18.8500   48.9530 C.3   106  ARG106      0.0489
      7  CD        34.4050   20.2490   48.5070 C.3   106  ARG106      0.2205
      8  NE        35.2390   21.1410   49.2920 N.pl3 106  ARG106     -0.0865
      9  CZ        36.5050   21.4130   49.0110 C.cat 106  ARG106      0.5346
     10  NH1       37.0900   20.8620   47.9490 N.pl3 106  ARG106      0.1354
     11  NH2       37.1830   22.2440   49.7920 N.pl3 106  ARG106      0.1354
     12  N         31.1270   16.2950   49.8000 N.am  107  GLU107     -0.1966
     13  CA        29.8550   15.6140   49.6160 C.3   107  GLU107      0.1733
     14  C         28.7140   16.5730   49.9170 C.2   107  GLU107      0.2616
     15  O         28.7010   17.2230   50.9660 O.2   107  GLU107     -0.2715
     16  CB        29.7620   14.3660   50.5030 C.3   107  GLU107      0.0429
     17  CG        28.4160   13.6520   50.3990 C.3   107  GLU107      0.1163
     18  CD        28.3250   12.3910   51.2640 C.2   107  GLU107      0.3649
     19  OE1       27.2950   11.6870   51.1580 O.co2 107  GLU107     -0.2457
     20  OE2       29.2770   12.1030   52.0320 O.co2 107  GLU107     -0.2457
     21  N         27.7600   16.6500   48.9990 N.am  108  ALA108     -0.1977
     22  CA        26.6010   17.5050   49.1770 C.3   108  ALA108      0.1597
     23  C         25.5040   16.7670   49.9350 C.2   108  ALA108      0.2287
     24  O         25.3480   15.5530   49.8220 O.2   108  ALA108     -0.2864
     25  CB        26.0710   17.9790   47.8270 C.3   108  ALA108      0.0319
     26  N         21.5940   16.1870   50.2780 N.3   110  ILE110     -0.1245
     27  CA        20.4660   16.1950   49.3500 C.3   110  ILE110      0.1561
     28  C         19.1570   16.1330   50.1370 C.2   110  ILE110      0.2260
     29  O         19.0110   15.3180   51.0620 O.2   110  ILE110     -0.2867
     30  CB        20.5690   15.0130   48.3650 C.3   110  ILE110      0.0252
     31  CG1       21.6470   15.2600   47.3070 C.3   110  ILE110      0.0019
     32  CG2       19.2470   14.7350   47.6800 C.3   110  ILE110      0.0019
     33  CD1       21.9020   14.0150   46.4550 C.3   110  ILE110      0.0001
     34  N         18.1060   19.7890   42.5860 N.3   116  ARG116     -0.1231
     35  CA        19.5000   19.4860   42.2880 C.3   116  ARG116      0.1694
     36  C         19.8690   20.0370   40.9160 C.2   116  ARG116      0.2591
     37  O         19.0310   20.1120   40.0180 O.2   116  ARG116     -0.2718
     38  CB        19.7680   17.9770   42.3030 C.3   116  ARG116      0.0321
     39  CG        20.1500   17.4110   43.6500 C.3   116  ARG116      0.0489
     40  CD        18.9130   17.0780   44.4540 C.3   116  ARG116      0.2205
     41  NE        18.0580   16.1490   43.7310 N.pl3 116  ARG116     -0.0865
     42  CZ        16.7380   16.1000   43.8770 C.cat 116  ARG116      0.5346
     43  NH1       16.0160   15.2220   43.1800 N.pl3 116  ARG116      0.1354
     44  NH2       16.1350   16.9470   44.7070 N.pl3 116  ARG116      0.1354
     45  N         21.1430   20.4030   40.7610 N.am  117  LEU117     -0.1980
     46  CA        21.6120   20.9380   39.4860 C.3   117  LEU117      0.1596
     47  C         21.4350   19.9230   38.3640 C.2   117  LEU117      0.2287
     48  O         21.0690   20.2870   37.2440 O.2   117  LEU117     -0.2864
     49  CB        23.0770   21.3660   39.5980 C.3   117  LEU117      0.0297
     50  CG        23.7620   21.8790   38.3230 C.3   117  LEU117      0.0022
     51  CD1       23.1290   23.1700   37.8240 C.3   117  LEU117      0.0001
     52  CD2       25.2260   22.0910   38.6030 C.3   117  LEU117      0.0001
     53  N         20.3240   13.2560   39.9550 N.3   121  TRP121     -0.1241
     54  CA        21.1870   12.9980   41.1000 C.3   121  TRP121      0.1605
     55  C         20.3270   12.9440   42.3600 C.2   121  TRP121      0.2264
     56  O         20.0580   13.9640   43.0010 O.2   121  TRP121     -0.2867
     57  CB        22.2560   14.0750   41.2080 C.3   121  TRP121      0.0550
     58  CG        23.3480   13.9820   40.1850 C.ar  121  TRP121      0.0003
     59  CD1       23.4960   13.0240   39.2300 C.ar  121  TRP121      0.0946
     60  CD2       24.4510   14.8850   40.0220 C.ar  121  TRP121      0.0152
     61  NE1       24.6180   13.2690   38.4860 N.ar  121  TRP121     -0.2442
     62  CE2       25.2270   14.4030   38.9550 C.ar  121  TRP121      0.0810
     63  CE3       24.8630   16.0460   40.6850 C.ar  121  TRP121      0.0012
     64  CZ2       26.3920   15.0500   38.5180 C.ar  121  TRP121      0.0191
     65  CZ3       26.0240   16.6880   40.2560 C.ar  121  TRP121      0.0001
     66  CH2       26.7730   16.1810   39.1880 C.ar  121  TRP121      0.0015
     67  N         21.2150   10.5310   44.8400 N.3   123  LYS123     -0.1231
     68  CA        22.1600   10.1510   45.8750 C.3   123  LYS123      0.1678
     69  C         23.3950   11.0370   45.7780 C.2   123  LYS123      0.2434
     70  O         23.7810   11.4250   44.6700 O.2   123  LYS123     -0.2733
     71  CB        22.5620    8.6760   45.7340 C.3   123  LYS123      0.0284
     72  CG        21.4250    7.6880   46.0070 C.3   123  LYS123      0.0035
     73  CD        21.8380    6.2050   45.8370 C.3   123  LYS123      0.0206
     74  CE        20.6680    5.2340   46.1460 C.3   123  LYS123      0.1093
     75  NZ        20.9920    3.7700   45.9780 N.3   123  LYS123     -0.1314
     76  N         24.0120   11.4040   46.8980 N.am  124  PRO124     -0.2718
     77  CA        25.2060   12.2590   46.8280 C.3   124  PRO124      0.1535
     78  C         26.3160   11.6220   46.0040 C.2   124  PRO124      0.2598
     79  O         26.4210   10.3970   45.8910 O.2   124  PRO124     -0.2715
     80  CB        25.6200   12.4130   48.2960 C.3   124  PRO124      0.0310
     81  CG        24.3520   12.1580   49.0740 C.3   124  PRO124      0.0237
     82  CD        23.5810   11.1560   48.2860 C.3   124  PRO124      0.0939
     83  N         27.1190   12.4840   45.3790 N.am  125  ILE125     -0.1978
     84  CA        28.3740   12.1040   44.7390 C.3   125  ILE125      0.1596
     85  C         29.4820   12.6700   45.6020 C.2   125  ILE125      0.2287
     86  O         29.4020   13.8190   46.0520 O.2   125  ILE125     -0.2864
     87  CB        28.4910   12.6290   43.2970 C.3   125  ILE125      0.0276
     88  CG1       27.3430   12.1050   42.4380 C.3   125  ILE125      0.0022
     89  CG2       29.8350   12.2460   42.6760 C.3   125  ILE125      0.0022
     90  CD1       27.3380   12.6830   41.0570 C.3   125  ILE125      0.0001
     91  N         33.3530   13.6590   45.8380 N.3   127  ILE127     -0.1245
     92  CA        34.4680   14.0490   44.9830 C.3   127  ILE127      0.1561
     93  C         35.7260   14.0760   45.8330 C.2   127  ILE127      0.2260
     94  O         35.8100   14.8370   46.8040 O.2   127  ILE127     -0.2867
     95  CB        34.2370   15.4260   44.3450 C.3   127  ILE127      0.0252
     96  CG1       33.0050   15.4100   43.4540 C.3   127  ILE127      0.0019
     97  CG2       35.4860   15.8580   43.5550 C.3   127  ILE127      0.0019
     98  CD1       33.2870   14.9360   42.0480 C.3   127  ILE127      0.0001
     99  N         34.2810    9.7000   43.3940 N.3   259  TRP259     -0.1241
    100  CA        34.9970   10.2080   42.2270 C.3   259  TRP259      0.1605
    101  C         36.3320   10.7630   42.7260 C.2   259  TRP259      0.2264
    102  O         36.3860   11.8610   43.2920 O.2   259  TRP259     -0.2867
    103  CB        34.1520   11.2580   41.5140 C.3   259  TRP259      0.0550
    104  CG        34.7090   11.8480   40.2650 C.ar  259  TRP259      0.0003
    105  CD1       35.9520   11.6580   39.7320 C.ar  259  TRP259      0.0946
    106  CD2       34.0220   12.7440   39.3790 C.ar  259  TRP259      0.0152
    107  NE1       36.0820   12.3810   38.5690 N.ar  259  TRP259     -0.2442
    108  CE2       34.9140   13.0620   38.3350 C.ar  259  TRP259      0.0810
    109  CE3       32.7360   13.3150   39.3740 C.ar  259  TRP259      0.0012
    110  CZ2       34.5650   13.9300   37.2930 C.ar  259  TRP259      0.0191
    111  CZ3       32.3870   14.1670   38.3320 C.ar  259  TRP259      0.0001
    112  CH2       33.3000   14.4630   37.3040 C.ar  259  TRP259      0.0015
    113  N         34.2660   22.8560   41.6490 N.3   263  SER263     -0.1217
    114  CA        33.4510   22.0850   42.5970 C.3   263  SER263      0.1889
    115  C         32.8810   22.9420   43.7540 C.2   263  SER263      0.2288
    116  O         31.6620   22.9910   43.9510 O.2   263  SER263     -0.2866
    117  CB        34.2670   20.9290   43.1670 C.3   263  SER263      0.2089
    118  OG        33.6060   20.3400   44.2780 O.3   263  SER263     -0.2183
    119  N         31.1920   25.8140   41.8370 N.3   266  VAL266     -0.1231
    120  CA        29.8730   25.4540   41.3240 C.3   266  VAL266      0.1692
    121  C         28.8410   25.5260   42.4440 C.2   266  VAL266      0.2591
    122  O         27.7230   26.0230   42.2490 O.2   266  VAL266     -0.2718
    123  CB        29.9120   24.0620   40.6640 C.3   266  VAL266      0.0266
    124  CG1       28.5150   23.6440   40.1940 C.3   266  VAL266      0.0020
    125  CG2       30.9190   24.0440   39.5150 C.3   266  VAL266      0.0020
    126  N         29.2130   25.0690   43.6470 N.am  267  ALA267     -0.1980
    127  CA        28.2980   25.1540   44.7820 C.3   267  ALA267      0.1597
    128  C         27.9700   26.5990   45.1060 C.2   267  ALA267      0.2287
    129  O         26.8130   26.9380   45.3650 O.2   267  ALA267     -0.2864
    130  CB        28.9020   24.4400   45.9890 C.3   267  ALA267      0.0319
    131  N         25.6610   27.8120   42.2740 N.3   270  TYR270     -0.1241
    132  CA        24.3580   27.2010   42.4760 C.3   270  TYR270      0.1605
    133  C         23.6880   27.6950   43.7560 C.2   270  TYR270      0.2264
    134  O         22.4680   27.5750   43.8820 O.2   270  TYR270     -0.2867
    135  CB        24.5070   25.6770   42.4970 C.3   270  TYR270      0.0534
    136  CG        23.1880   24.9520   42.3860 C.ar  270  TYR270     -0.0201
    137  CD1       22.5420   24.8600   41.1700 C.ar  270  TYR270     -0.0009
    138  CD2       22.5790   24.3820   43.5030 C.ar  270  TYR270     -0.0009
    139  CE1       21.3480   24.2150   41.0480 C.ar  270  TYR270      0.0417
    140  CE2       21.3720   23.7300   43.3930 C.ar  270  TYR270      0.0417
    141  CZ        20.7620   23.6540   42.1540 C.ar  270  TYR270      0.1957
    142  OH        19.5650   23.0190   42.0020 O.3   270  TYR270     -0.2866
    143  N         24.5980   26.5790   47.0670 N.3   272  SER272     -0.1217
    144  CA        24.4270   25.4670   48.0000 C.3   272  SER272      0.1889
    145  C         25.6760   25.1640   48.8450 C.2   272  SER272      0.2288
    146  O         25.8100   24.0460   49.3610 O.2   272  SER272     -0.2866
    147  CB        23.9970   24.2100   47.2420 C.3   272  SER272      0.2089
    148  OG        24.9530   23.8880   46.2500 O.3   272  SER272     -0.2183
    149  N         27.1590   21.6840   51.7270 N.3   276  MET276     -0.1245
    150  CA        28.3500   21.0240   51.2250 C.3   276  MET276      0.1570
    151  C         29.2160   20.6520   52.4180 C.2   276  MET276      0.2261
    152  O         29.6090   21.5170   53.2070 O.2   276  MET276     -0.2867
    153  CB        29.1010   21.9410   50.2590 C.3   276  MET276      0.0387
    154  CG        30.3350   21.3190   49.6490 C.3   276  MET276      0.0595
    155  SD        29.9720   20.2210   48.2970 S.3   276  MET276     -0.1393
    156  CE        30.3150   21.3010   46.9300 C.3   276  MET276      0.0692
@<TRIPOS>BOND
     1    48    47    2
     2   110   112   ar
     3   110   108   ar
     4   112   111   ar
     5    51    50    1
     6    50    52    1
     7    50    49    1
     8   111   109   ar
     9   108   107   ar
    10   108   106   ar
    11    47    46    1
    12    61    62   ar
    13    61    59   ar
    14    64    62   ar
    15    64    66   ar
    16   107   105   ar
    17    62    60   ar
    18    66    65   ar
    19    59    58   ar
    20   109   106   ar
    21   106   104   ar
    22    46    49    1
    23    46    45    1
    24   125   123    1
    25   105   104   ar
    26    53    54    1
    27    37    36    2
    28    60    58   ar
    29    60    63   ar
    30    58    57    1
    31   124   123    1
    32    65    63   ar
    33   104   103    1
    34   123   120    1
    35    45    36   am
    36    36    35    1
    37   139   137   ar
    38   139   141   ar
    39    90    88    1
    40    54    57    1
    41    54    55    1
    42   137   136   ar
    43   120   119    1
    44   120   121    1
    45   103   100    1
    46   113   114    1
    47   142   141    1
    48    98    96    1
    49   141   140   ar
    50   100   101    1
    51   100    99    1
    52   122   121    2
    53   131   132    1
    54    35    38    1
    55    35    34    1
    56    38    39    1
    57    55    56    2
    58   136   135    1
    59   136   138   ar
    60    88    87    1
    61   121   126   am
    62   132   135    1
    63   132   133    1
    64   114   117    1
    65   114   115    1
    66    89    87    1
    67   101   102    2
    68   117   118    1
    69    43    42    1
    70    87    84    1
    71   140   138   ar
    72    96    95    1
    73    97    95    1
    74   126   127    1
    75    39    40    1
    76    41    42    2
    77    41    40    1
    78   115   116    2
    79   133   134    2
    80    42    44    1
    81    95    92    1
    82    70    69    2
    83    84    83    1
    84    84    85    1
    85   127   128    1
    86   127   130    1
    87    67    68    1
    88    92    93    1
    89    92    91    1
    90   128   129    2
    91    83    78   am
    92    85    86    2
    93    71    68    1
    94    71    72    1
    95    69    68    1
    96    69    76   am
    97    93    94    2
    98    73    72    1
    99    73    74    1
   100    79    78    2
   101    75    74    1
   102    78    77    1
   103   148   147    1
   104    33    31    1
   105    77    76    1
   106    77    80    1
   107    76    82    1
   108   156   155    1
   109   143   144    1
   110   147   144    1
   111    31    30    1
   112    32    30    1
   113    25    22    1
   114    10     9    1
   115   144   145    1
   116     4     3    2
   117    82    81    1
   118    80    81    1
   119   155   154    1
   120    30    27    1
   121     5     6    1
   122     5     2    1
   123     7     6    1
   124     7     8    1
   125   145   146    2
   126    21    22    1
   127    21    14   am
   128     9     8    2
   129     9    11    1
   130     3     2    1
   131     3    12   am
   132    22    23    1
   133     1     2    1
   134    27    28    1
   135    27    26    1
   136    13    12    1
   137    13    14    1
   138    13    16    1
   139   154   153    1
   140    24    23    2
   141    14    15    2
   142    28    29    2
   143   153   150    1
   144    17    16    1
   145    17    18    1
   146    19    18   ar
   147   150   149    1
   148   150   151    1
   149    18    20   ar
   150   151   152    2
