@<TRIPOS>MOLECULE
tmp/5svkA00.pdb
 79 75 0 0 0
SMALL
GASTEIGER

@<TRIPOS>ATOM
      1  N        202.4330  169.9510  201.5300 N.3   122  PRO122     -0.2116
      2  CA       202.5040  171.1250  200.6500 C.3   122  PRO122      0.1372
      3  C        202.1270  170.7790  199.2190 C.2   122  PRO122      0.2244
      4  O        202.4990  169.7270  198.6940 O.2   122  PRO122     -0.2868
      5  CB       203.9730  171.5540  200.7500 C.3   122  PRO122      0.0268
      6  CG       204.6930  170.2890  201.0600 C.3   122  PRO122      0.0207
      7  CD       203.7760  169.5630  202.0030 C.3   122  PRO122      0.0892
      8  N        199.0820  171.0970  188.3440 N.3   150  GLU150     -0.1245
      9  CA       200.0260  171.8160  187.5020 C.3   150  GLU150      0.1567
     10  C        201.2900  170.9860  187.2880 C.2   150  GLU150      0.2260
     11  O        201.6450  170.1410  188.1130 O.2   150  GLU150     -0.2867
     12  CB       200.3530  173.1540  188.1660 C.3   150  GLU150      0.0388
     13  CG       201.5200  173.9370  187.6210 C.3   150  GLU150      0.1160
     14  CD       201.8970  175.0840  188.5500 C.2   150  GLU150      0.3649
     15  OE1      201.0570  175.9850  188.7650 O.co2 150  GLU150     -0.2457
     16  OE2      203.0300  175.0770  189.0770 O.co2 150  GLU150     -0.2457
     17  N        217.4050  179.0570  196.9780 N.3   268  VAL268     -0.1231
     18  CA       216.1120  178.4480  197.2540 C.3   268  VAL268      0.1692
     19  C        214.9480  179.2770  196.7020 C.2   268  VAL268      0.2593
     20  O        213.9000  178.7170  196.3660 O.2   268  VAL268     -0.2718
     21  CB       215.9540  178.1920  198.7640 C.3   268  VAL268      0.0266
     22  CG1      216.1000  179.4840  199.5480 C.3   268  VAL268      0.0020
     23  CG2      214.6260  177.5160  199.0560 C.3   268  VAL268      0.0020
     24  N        215.1040  180.5960  196.5850 N.am  269  SER269     -0.1939
     25  CA       214.0080  181.4640  196.1500 C.3   269  SER269      0.2040
     26  C        214.5610  182.6300  195.3400 C.2   269  SER269      0.2485
     27  O        214.8940  183.6910  195.8860 O.2   269  SER269     -0.2729
     28  CB       213.2020  181.9730  197.3440 C.3   269  SER269      0.2129
     29  OG       212.2420  182.9380  196.9510 O.3   269  SER269     -0.2179
     30  N        214.6410  182.4770  194.0170 N.am  270  PRO270     -0.2715
     31  CA       215.4330  183.4060  193.2030 C.3   270  PRO270      0.1536
     32  C        214.7040  184.6190  192.6370 C.2   270  PRO270      0.2599
     33  O        215.3810  185.5420  192.1640 O.2   270  PRO270     -0.2715
     34  CB       215.9140  182.4990  192.0630 C.3   270  PRO270      0.0310
     35  CG       214.7570  181.5620  191.8610 C.3   270  PRO270      0.0237
     36  CD       214.1640  181.3220  193.2360 C.3   270  PRO270      0.0939
     37  N        213.3760  184.6670  192.6470 N.am  271  GLY271     -0.1955
     38  CA       212.6450  185.7400  191.9810 C.3   271  GLY271      0.1869
     39  C        211.3520  186.1150  192.6520 C.2   271  GLY271      0.2309
     40  O        211.2960  186.2860  193.8770 O.2   271  GLY271     -0.2863
     41  N        207.0290  185.2750  191.9840 N.3   273  ASN273     -0.1240
     42  CA       205.9130  184.7180  191.2310 C.3   273  ASN273      0.1653
     43  C        204.7190  184.5190  192.1580 C.2   273  ASN273      0.2266
     44  O        204.8430  184.5430  193.3850 O.2   273  ASN273     -0.2867
     45  CB       206.2910  183.3970  190.5620 C.3   273  ASN273      0.1155
     46  CG       206.5800  182.3080  191.5650 C.2   273  ASN273      0.2627
     47  OD1      205.6790  181.8290  192.2490 O.2   273  ASN273     -0.2716
     48  ND2      207.8410  181.9100  191.6630 N.am  273  ASN273     -0.0877
     49  N        200.2880  182.8340  192.0710 N.3   275  ARG275     -0.1245
     50  CA       199.2820  182.0450  191.3720 C.3   275  ARG275      0.1563
     51  C        197.9040  182.6840  191.5040 C.2   275  ARG275      0.2260
     52  O        197.5500  183.2110  192.5630 O.2   275  ARG275     -0.2867
     53  CB       199.2500  180.6050  191.9080 C.3   275  ARG275      0.0307
     54  CG       200.2020  179.6620  191.1810 C.3   275  ARG275      0.0489
     55  CD       200.2740  178.3020  191.8580 C.3   275  ARG275      0.2205
     56  NE       201.4900  178.1800  192.6560 N.pl3 275  ARG275     -0.0865
     57  CZ       202.5360  177.4340  192.3190 C.cat 275  ARG275      0.5346
     58  NH1      202.5200  176.7280  191.1950 N.pl3 275  ARG275      0.1354
     59  NH2      203.5960  177.3910  193.1080 N.pl3 275  ARG275      0.1354
     60  N        200.3220  180.3820  186.9680 N.3   293  LYS293     -0.1245
     61  CA       201.4860  180.7560  187.7560 C.3   293  LYS293      0.1561
     62  C        202.2120  181.8500  186.9860 C.2   293  LYS293      0.2260
     63  O        202.8270  181.5870  185.9470 O.2   293  LYS293     -0.2867
     64  CB       202.3970  179.5600  188.0250 C.3   293  LYS293      0.0271
     65  CG       203.6900  179.9520  188.7220 C.3   293  LYS293      0.0035
     66  CD       204.3950  178.7680  189.3490 C.3   293  LYS293      0.0206
     67  CE       205.7100  179.2010  189.9750 C.3   293  LYS293      0.1093
     68  NZ       206.3050  178.1340  190.8150 N.3   293  LYS293     -0.1314
     69  N        205.0000  184.8090  186.5910 N.3   295  PHE295     -0.1241
     70  CA       206.2760  185.4170  186.9260 C.3   295  PHE295      0.1605
     71  C        206.2920  186.7950  186.2910 C.2   295  PHE295      0.2264
     72  O        205.9420  186.9390  185.1110 O.2   295  PHE295     -0.2867
     73  CB       207.4560  184.6070  186.3810 C.3   295  PHE295      0.0534
     74  CG       207.4480  183.1620  186.7650 C.ar  295  PHE295     -0.0203
     75  CD1      206.5050  182.2920  186.2370 C.ar  295  PHE295     -0.0042
     76  CD2      208.4180  182.6570  187.6150 C.ar  295  PHE295     -0.0042
     77  CE1      206.5030  180.9510  186.5870 C.ar  295  PHE295     -0.0003
     78  CE2      208.4250  181.3170  187.9620 C.ar  295  PHE295     -0.0003
     79  CZ       207.4640  180.4630  187.4470 C.ar  295  PHE295     -0.0000
@<TRIPOS>BOND
     1    72    71    2
     2    63    62    2
     3    75    77   ar
     4    75    74   ar
     5    71    70    1
     6    73    74    1
     7    73    70    1
     8    77    79   ar
     9    69    70    1
    10    74    76   ar
    11    60    61    1
    12    62    61    1
    13    10     9    1
    14    10    11    2
    15    79    78   ar
    16     9    12    1
    17     9     8    1
    18    76    78   ar
    19    13    12    1
    20    13    14    1
    21    61    64    1
    22    64    65    1
    23    14    15   ar
    24    14    16   ar
    25    65    66    1
    26    66    67    1
    27    67    68    1
    28    45    42    1
    29    45    46    1
    30    54    55    1
    31    54    53    1
    32    58    57    1
    33    42    41    1
    34    42    43    1
    35    50    51    1
    36    50    53    1
    37    50    49    1
    38    51    52    2
    39    46    48   am
    40    46    47    2
    41    55    56    1
    42    35    34    1
    43    35    36    1
    44    38    37    1
    45    38    39    1
    46    34    31    1
    47    43    44    2
    48    33    32    2
    49    57    56    2
    50    57    59    1
    51    32    37   am
    52    32    31    1
    53    39    40    2
    54    31    30    1
    55    36    30    1
    56    30    26   am
    57    26    27    2
    58    26    25    1
    59    25    24    1
    60    25    28    1
    61    20    19    2
    62    24    19   am
    63    19    18    1
    64    29    28    1
    65    17    18    1
    66    18    21    1
    67     4     3    2
    68    21    23    1
    69    21    22    1
    70     3     2    1
    71     2     5    1
    72     2     1    1
    73     5     6    1
    74     6     7    1
    75     1     7    1
