@<TRIPOS>MOLECULE
tmp/5svnB02.pdb
 108 105 0 0 0
SMALL
GASTEIGER

@<TRIPOS>ATOM
      1  N         -0.1680   32.2790  -16.0660 N.3   124  LYS124     -0.1245
      2  CA         0.2250   31.6440  -14.8000 C.3   124  LYS124      0.1561
      3  C          0.9400   30.3140  -15.0950 C.2   124  LYS124      0.2260
      4  O          0.6570   29.7160  -16.1370 O.2   124  LYS124     -0.2867
      5  CB        -1.0040   31.3560  -13.9200 C.3   124  LYS124      0.0271
      6  CG        -1.7850   32.5890  -13.4830 C.3   124  LYS124      0.0035
      7  CD        -3.1600   32.2330  -12.8780 C.3   124  LYS124      0.0206
      8  CE        -4.1470   31.5840  -13.8400 C.3   124  LYS124      0.1093
      9  NZ        -4.5810   32.5110  -14.9200 N.3   124  LYS124     -0.1314
     10  N         -6.7880   23.6680   -8.9180 N.3   203  PRO203     -0.2116
     11  CA        -7.5860   22.5040   -9.3200 C.3   203  PRO203      0.1372
     12  C         -6.6900   21.4490   -9.9810 C.2   203  PRO203      0.2244
     13  O         -5.6030   21.7680  -10.4920 O.2   203  PRO203     -0.2868
     14  CB        -8.5910   23.0850  -10.3180 C.3   203  PRO203      0.0268
     15  CG        -7.9290   24.2750  -10.8800 C.3   203  PRO203      0.0207
     16  CD        -7.0340   24.8280   -9.8050 C.3   203  PRO203      0.0892
     17  N         -6.4320   18.3020  -12.8790 N.3   205  TYR205     -0.1241
     18  CA        -6.9680   17.6610  -14.0690 C.3   205  TYR205      0.1605
     19  C         -6.1320   16.4210  -14.3500 C.2   205  TYR205      0.2264
     20  O         -4.9060   16.4780  -14.2750 O.2   205  TYR205     -0.2867
     21  CB        -6.9410   18.6110  -15.2640 C.3   205  TYR205      0.0534
     22  CG        -7.9140   19.7580  -15.1630 C.ar  205  TYR205     -0.0201
     23  CD1       -7.5430   20.9610  -14.5700 C.ar  205  TYR205     -0.0009
     24  CD2       -9.1910   19.6650  -15.7060 C.ar  205  TYR205     -0.0009
     25  CE1       -8.4420   22.0200  -14.4620 C.ar  205  TYR205      0.0417
     26  CE2      -10.0980   20.7170  -15.6080 C.ar  205  TYR205      0.0417
     27  CZ        -9.7220   21.8900  -14.9780 C.ar  205  TYR205      0.1957
     28  OH       -10.6080   22.9360  -14.8930 O.3   205  TYR205     -0.2866
     29  N        -11.1160   21.9640   -7.5030 N.3   242  TRP242     -0.1241
     30  CA       -11.8310   20.7980   -8.0170 C.3   242  TRP242      0.1605
     31  C        -10.9200   19.7940   -8.7100 C.2   242  TRP242      0.2264
     32  O         -9.7950   20.1270   -9.0670 O.2   242  TRP242     -0.2867
     33  CB       -12.9350   21.2550   -8.9860 C.3   242  TRP242      0.0550
     34  CG       -12.4340   22.0750  -10.1430 C.ar  242  TRP242      0.0003
     35  CD1      -12.0910   21.6200  -11.3820 C.ar  242  TRP242      0.0946
     36  CD2      -12.2300   23.4950  -10.1660 C.ar  242  TRP242      0.0152
     37  NE1      -11.6930   22.6680  -12.1780 N.ar  242  TRP242     -0.2442
     38  CE2      -11.7800   23.8320  -11.4620 C.ar  242  TRP242      0.0810
     39  CE3      -12.4100   24.5240   -9.2230 C.ar  242  TRP242      0.0012
     40  CZ2      -11.4700   25.1450  -11.8290 C.ar  242  TRP242      0.0191
     41  CZ3      -12.1030   25.8250   -9.5870 C.ar  242  TRP242      0.0001
     42  CH2      -11.6260   26.1240  -10.8720 C.ar  242  TRP242      0.0015
     43  N        -10.3660   14.2360  -17.8250 N.3   246  ARG246     -0.1245
     44  CA       -10.6030   14.6450  -19.2140 C.3   246  ARG246      0.1563
     45  C         -9.9290   13.6760  -20.1640 C.2   246  ARG246      0.2260
     46  O         -8.9130   13.0890  -19.8180 O.2   246  ARG246     -0.2867
     47  CB       -10.0610   16.0670  -19.4900 C.3   246  ARG246      0.0307
     48  CG       -10.7430   17.1980  -18.7320 C.3   246  ARG246      0.0489
     49  CD       -12.0120   17.6360  -19.4100 C.3   246  ARG246      0.2205
     50  NE       -12.5520   18.8560  -18.8170 N.pl3 246  ARG246     -0.0865
     51  CZ       -12.9190   19.9270  -19.5090 C.cat 246  ARG246      0.5346
     52  NH1      -12.8140   19.9410  -20.8310 N.pl3 246  ARG246      0.1354
     53  NH2      -13.4050   20.9890  -18.8850 N.pl3 246  ARG246      0.1354
     54  N         -8.0540   17.4720  -23.3150 N.3   251  MET251     -0.1245
     55  CA        -7.1490   18.0730  -22.3340 C.3   251  MET251      0.1570
     56  C         -6.0360   18.9470  -22.9440 C.2   251  MET251      0.2261
     57  O         -5.8650   20.0910  -22.5260 O.2   251  MET251     -0.2867
     58  CB        -6.5540   17.0040  -21.4030 C.3   251  MET251      0.0387
     59  CG        -5.8240   17.5920  -20.2150 C.3   251  MET251      0.0595
     60  SD        -6.8460   18.7010  -19.2050 S.3   251  MET251     -0.1393
     61  CE        -5.5530   19.4350  -18.1760 C.3   251  MET251      0.0692
     62  N         -7.5630   22.0640  -24.2520 N.3   254  GLN254     -0.1231
     63  CA        -7.9900   22.8520  -23.0820 C.3   254  GLN254      0.1698
     64  C         -6.7840   23.5730  -22.4800 C.2   254  GLN254      0.2592
     65  O         -6.8820   24.7600  -22.1690 O.2   254  GLN254     -0.2718
     66  CB        -8.6290   21.9620  -22.0050 C.3   254  GLN254      0.0381
     67  CG        -9.9960   21.4060  -22.3850 C.3   254  GLN254      0.0905
     68  CD       -11.0770   22.4480  -22.5480 C.2   254  GLN254      0.2608
     69  OE1      -10.9970   23.5700  -22.0320 O.2   254  GLN254     -0.2717
     70  NE2      -12.1280   22.0920  -23.2690 N.am  254  GLN254     -0.0878
     71  N         -5.6400   22.8620  -22.3460 N.am  255  VAL255     -0.1980
     72  CA        -4.3910   23.4250  -21.8020 C.3   255  VAL255      0.1595
     73  C         -3.8650   24.6000  -22.6420 C.2   255  VAL255      0.2287
     74  O         -3.5150   25.6490  -22.0880 O.2   255  VAL255     -0.2864
     75  CB        -3.3200   22.3240  -21.5970 C.3   255  VAL255      0.0276
     76  CG1       -1.9250   22.9220  -21.3590 C.3   255  VAL255      0.0022
     77  CG2       -3.7140   21.4230  -20.4370 C.3   255  VAL255      0.0022
     78  N         -5.9260   27.6710  -22.2230 N.3   258  SER258     -0.1202
     79  CA        -6.0330   28.0960  -20.8300 C.3   258  SER258      0.2020
     80  C         -5.1000   29.2740  -20.5260 C.2   258  SER258      0.2619
     81  O         -4.2700   29.6580  -21.3630 O.2   258  SER258     -0.2717
     82  CB        -5.7260   26.9270  -19.8970 C.3   258  SER258      0.2103
     83  OG        -4.3290   26.7370  -19.7260 O.3   258  SER258     -0.2182
     84  N         -5.2300   29.8290  -19.3080 N.am  259  SER259     -0.1937
     85  CA        -4.3830   30.9190  -18.8240 C.3   259  SER259      0.2055
     86  C         -3.4270   30.3800  -17.7450 C.2   259  SER259      0.2644
     87  O         -2.7150   31.1530  -17.1090 O.2   259  SER259     -0.2714
     88  CB        -5.2290   32.0920  -18.3210 C.3   259  SER259      0.2130
     89  OG        -6.0300   31.7520  -17.2020 O.3   259  SER259     -0.2179
     90  N         -3.3860   29.0470  -17.6130 N.am  260  GLY260     -0.1939
     91  CA        -2.5470   28.3310  -16.6560 C.3   260  GLY260      0.2014
     92  C         -3.1570   28.2260  -15.2760 C.2   260  GLY260      0.2639
     93  O         -4.3780   28.3190  -15.1290 O.2   260  GLY260     -0.2714
     94  N         -2.3120   27.9930  -14.2750 N.am  261  GLY261     -0.1939
     95  CA        -2.7130   27.9280  -12.8660 C.3   261  GLY261      0.2014
     96  C         -3.4240   26.6700  -12.4140 C.2   261  GLY261      0.2638
     97  O         -4.3990   26.7410  -11.6630 O.2   261  GLY261     -0.2714
     98  N         -2.9310   25.5080  -12.8440 N.am  262  PHE262     -0.1973
     99  CA        -3.5180   24.2210  -12.4560 C.3   262  PHE262      0.1639
    100  C         -2.4720   23.1200  -12.4540 C.2   262  PHE262      0.2290
    101  O         -1.3760   23.2980  -12.9970 O.2   262  PHE262     -0.2864
    102  CB        -4.7110   23.8440  -13.3770 C.3   262  PHE262      0.0560
    103  CG        -4.3930   23.8250  -14.8560 C.ar  262  PHE262     -0.0200
    104  CD1       -4.5530   24.9690  -15.6330 C.ar  262  PHE262     -0.0042
    105  CD2       -3.9420   22.6600  -15.4760 C.ar  262  PHE262     -0.0042
    106  CE1       -4.2280   24.9590  -16.9950 C.ar  262  PHE262     -0.0003
    107  CE2       -3.6460   22.6450  -16.8440 C.ar  262  PHE262     -0.0003
    108  CZ        -3.7940   23.7910  -17.5940 C.ar  262  PHE262     -0.0000
@<TRIPOS>BOND
     1    62    63    1
     2    54    55    1
     3    70    68   am
     4    63    64    1
     5    63    66    1
     6    56    57    2
     7    56    55    1
     8    73    74    2
     9    73    72    1
    10    68    67    1
    11    68    69    2
    12    64    71   am
    13    64    65    2
    14    67    66    1
    15    71    72    1
    16    55    58    1
    17    78    79    1
    18    72    75    1
    19    75    76    1
    20    75    77    1
    21    58    59    1
    22    81    80    2
    23    52    51    1
    24    79    80    1
    25    79    82    1
    26    80    84   am
    27    59    60    1
    28    45    46    2
    29    45    44    1
    30    82    83    1
    31    51    53    1
    32    51    50    2
    33    47    44    1
    34    47    48    1
    35    49    50    1
    36    49    48    1
    37    84    85    1
    38    44    43    1
    39    60    61    1
    40    85    88    1
    41    85    86    1
    42    88    89    1
    43    86    90   am
    44    86    87    2
    45    90    91    1
    46   108   106   ar
    47   108   107   ar
    48   106   104   ar
    49   107   105   ar
    50    91    92    1
    51     4     3    2
    52     1     2    1
    53    24    26   ar
    54    24    22   ar
    55   104   103   ar
    56    26    27   ar
    57   105   103   ar
    58    92    93    2
    59    92    94   am
    60    21    22    1
    61    21    18    1
    62    22    23   ar
    63     3     2    1
    64    27    28    1
    65    27    25   ar
    66     9     8    1
    67   103   102    1
    68     2     5    1
    69    23    25   ar
    70    19    20    2
    71    19    18    1
    72    94    95    1
    73    18    17    1
    74     5     6    1
    75     8     7    1
    76     6     7    1
    77   102    99    1
    78   101   100    2
    79    95    96    1
    80    98    99    1
    81    98    96   am
    82    99   100    1
    83    96    97    2
    84    37    38   ar
    85    37    35   ar
    86    40    38   ar
    87    40    42   ar
    88    38    36   ar
    89    35    34   ar
    90    15    14    1
    91    15    16    1
    92    42    41   ar
    93    13    12    2
    94    14    11    1
    95    36    34   ar
    96    36    39   ar
    97    34    33    1
    98    12    11    1
    99    16    10    1
   100    41    39   ar
   101    11    10    1
   102    32    31    2
   103    33    30    1
   104    31    30    1
   105    30    29    1
