@<TRIPOS>MOLECULE
tmp/5svqA02.pdb
 92 86 0 0 0
SMALL
GASTEIGER

@<TRIPOS>ATOM
      1  N         22.2930  -15.8060  -22.8140 N.3    91  GLU91      -0.1245
      2  CA        22.6450  -16.3600  -24.1170 C.3    91  GLU91       0.1567
      3  C         24.0650  -16.9200  -24.1080 C.2    91  GLU91       0.2260
      4  O         25.0150  -16.2310  -23.7240 O.2    91  GLU91      -0.2867
      5  CB        22.4990  -15.2940  -25.2020 C.3    91  GLU91       0.0388
      6  CG        21.1030  -14.6900  -25.3720 C.3    91  GLU91       0.1160
      7  CD        20.1240  -15.6050  -26.0950 C.2    91  GLU91       0.3649
      8  OE1       20.4670  -16.1180  -27.1930 O.co2  91  GLU91      -0.2457
      9  OE2       18.9960  -15.7960  -25.5810 O.co2  91  GLU91      -0.2457
     10  N         26.0180  -17.4820  -26.5770 N.3    93  LYS93      -0.1245
     11  CA        26.8870  -16.7340  -27.4820 C.3    93  LYS93       0.1561
     12  C         27.6940  -15.6670  -26.7560 C.2    93  LYS93       0.2260
     13  O         28.7350  -15.2330  -27.2640 O.2    93  LYS93      -0.2867
     14  CB        26.0560  -16.0840  -28.5920 C.3    93  LYS93       0.0271
     15  CG        25.0710  -15.0200  -28.1280 C.3    93  LYS93       0.0035
     16  CD        24.7930  -14.1560  -29.4380 C.3    93  LYS93       0.0206
     17  CE        24.1560  -15.1800  -30.4160 C.3    93  LYS93       0.1093
     18  NZ        22.9500  -15.7460  -29.6670 N.3    93  LYS93      -0.1314
     19  N         14.8540  -17.2620  -24.4100 N.3   138  ASP138     -0.1239
     20  CA        13.9820  -17.5580  -25.5400 C.3   138  ASP138      0.1674
     21  C         14.1850  -18.9650  -26.0950 C.2   138  ASP138      0.2266
     22  O         13.8070  -19.2270  -27.2430 O.2   138  ASP138     -0.2867
     23  CB        14.2010  -16.5350  -26.6580 C.3   138  ASP138      0.1410
     24  CG        15.6720  -16.2720  -26.9330 C.2   138  ASP138      0.3668
     25  OD1       16.2700  -15.4020  -26.2630 O.co2 138  ASP138     -0.2456
     26  OD2       16.2190  -16.9200  -27.8530 O.co2 138  ASP138     -0.2456
     27  N          3.6140  -16.0720  -42.2320 N.3   218  VAL218     -0.1245
     28  CA         3.0160  -14.9510  -42.9460 C.3   218  VAL218      0.1561
     29  C          2.2120  -15.5040  -44.1110 C.2   218  VAL218      0.2260
     30  O          2.7840  -16.0510  -45.0640 O.2   218  VAL218     -0.2867
     31  CB         4.0670  -13.9540  -43.4450 C.3   218  VAL218      0.0252
     32  CG1        3.3890  -12.7920  -44.1590 C.3   218  VAL218      0.0019
     33  CG2        4.9230  -13.4680  -42.2880 C.3   218  VAL218      0.0019
     34  N          6.2340  -16.1050  -46.3230 N.3   246  ASP246     -0.1239
     35  CA         7.5770  -16.3010  -45.7830 C.3   246  ASP246      0.1674
     36  C          8.2530  -17.5340  -46.3710 C.2   246  ASP246      0.2266
     37  O          9.4710  -17.5310  -46.5860 O.2   246  ASP246     -0.2867
     38  CB         7.5260  -16.3950  -44.2580 C.3   246  ASP246      0.1410
     39  CG         6.6190  -17.5020  -43.7750 C.2   246  ASP246      0.3668
     40  OD1        5.6370  -17.8080  -44.4810 O.co2 246  ASP246     -0.2456
     41  OD2        6.8840  -18.0660  -42.6930 O.co2 246  ASP246     -0.2456
     42  N         12.7990  -19.8350  -40.6600 N.3   248  PRO248     -0.2102
     43  CA        11.4140  -19.4960  -41.0030 C.3   248  PRO248      0.1504
     44  C         10.6150  -19.0590  -39.7820 C.2   248  PRO248      0.2576
     45  O         11.1580  -19.0100  -38.6800 O.2   248  PRO248     -0.2718
     46  CB        10.8600  -20.8060  -41.5700 C.3   248  PRO248      0.0282
     47  CG        11.6790  -21.8620  -40.9130 C.3   248  PRO248      0.0208
     48  CD        13.0570  -21.2800  -40.7790 C.3   248  PRO248      0.0893
     49  N          9.3480  -18.7230  -39.9910 N.am  249  GLY249     -0.1943
     50  CA         8.4690  -18.3070  -38.9150 C.3   249  GLY249      0.2014
     51  C          8.2900  -16.8030  -38.8630 C.2   249  GLY249      0.2639
     52  O          8.7890  -16.0470  -39.7040 O.2   249  GLY249     -0.2714
     53  N          7.5880  -16.3630  -37.8180 N.am  250  TYR250     -0.1959
     54  CA         7.3120  -14.9380  -37.6290 C.3   250  TYR250      0.1771
     55  C          7.0690  -14.6640  -36.1540 C.2   250  TYR250      0.2619
     56  O          6.1710  -15.2660  -35.5570 O.2   250  TYR250     -0.2715
     57  CB         6.1040  -14.4990  -38.4580 C.3   250  TYR250      0.0574
     58  CG         5.6580  -13.0870  -38.1440 C.ar  250  TYR250     -0.0198
     59  CD1        6.1950  -11.9990  -38.8210 C.ar  250  TYR250     -0.0009
     60  CD2        4.7050  -12.8410  -37.1640 C.ar  250  TYR250     -0.0009
     61  CE1        5.7950  -10.7060  -38.5310 C.ar  250  TYR250      0.0417
     62  CE2        4.2990  -11.5510  -36.8660 C.ar  250  TYR250      0.0417
     63  CZ         4.8460  -10.4870  -37.5520 C.ar  250  TYR250      0.1957
     64  OH         4.4380   -9.2040  -37.2530 O.3   250  TYR250     -0.2866
     65  N          7.8460  -13.7430  -35.5750 N.am  251  ASN251     -0.1972
     66  CA         7.6790  -13.3400  -34.1820 C.3   251  ASN251      0.1688
     67  C          8.1290  -11.8940  -33.9980 C.2   251  ASN251      0.2292
     68  O          8.9340  -11.3740  -34.7750 O.2   251  ASN251     -0.2864
     69  CB         8.4800  -14.2500  -33.2450 C.3   251  ASN251      0.1181
     70  CG         9.9830  -14.1510  -33.4780 C.2   251  ASN251      0.2629
     71  OD1       10.6000  -13.1210  -33.1940 O.2   251  ASN251     -0.2716
     72  ND2       10.5760  -15.2190  -34.0020 N.am  251  ASN251     -0.0877
     73  N          8.5660   -8.6400  -30.6490 N.3   253  ARG253     -0.1245
     74  CA         8.6440   -8.3810  -29.2210 C.3   253  ARG253      0.1563
     75  C          7.8960   -7.1000  -28.8760 C.2   253  ARG253      0.2260
     76  O          7.9290   -6.1250  -29.6340 O.2   253  ARG253     -0.2867
     77  CB        10.1020   -8.2880  -28.7730 C.3   253  ARG253      0.0307
     78  CG        10.7960   -9.6470  -28.7230 C.3   253  ARG253      0.0489
     79  CD        12.2550   -9.5200  -28.3080 C.3   253  ARG253      0.2205
     80  NE        12.8840  -10.8160  -28.0590 N.pl3 253  ARG253     -0.0865
     81  CZ        13.5090  -11.5370  -28.9860 C.cat 253  ARG253      0.5346
     82  NH1       14.0500  -12.7070  -28.6710 N.pl3 253  ARG253      0.1354
     83  NH2       13.6000  -11.0870  -30.2280 N.pl3 253  ARG253      0.1354
     84  N          7.5400  -12.0290  -26.1730 N.3   271  LYS271     -0.1245
     85  CA         7.9130  -12.4490  -27.5190 C.3   271  LYS271      0.1561
     86  C          6.7280  -13.1900  -28.1280 C.2   271  LYS271      0.2260
     87  O          6.3570  -14.2700  -27.6540 O.2   271  LYS271     -0.2867
     88  CB         9.1550  -13.3370  -27.4840 C.3   271  LYS271      0.0271
     89  CG         9.7750  -13.6160  -28.8440 C.3   271  LYS271      0.0035
     90  CD        10.9500  -14.5780  -28.7110 C.3   271  LYS271      0.0206
     91  CE        11.6870  -14.7640  -30.0260 C.3   271  LYS271      0.1093
     92  NZ        12.8170  -15.7320  -29.9010 N.3   271  LYS271     -0.1314
@<TRIPOS>BOND
     1    37    36    2
     2    36    35    1
     3    34    35    1
     4    35    38    1
     5    30    29    2
     6    40    39   ar
     7    38    39    1
     8    32    31    1
     9    29    28    1
    10    39    41   ar
    11    31    28    1
    12    31    33    1
    13    28    27    1
    14    46    43    1
    15    46    47    1
    16    43    42    1
    17    43    44    1
    18    47    48    1
    19    48    42    1
    20    49    44   am
    21    49    50    1
    22    44    45    2
    23    52    51    2
    24    50    51    1
    25    51    53   am
    26    59    61   ar
    27    59    58   ar
    28    61    63   ar
    29    57    58    1
    30    57    54    1
    31    58    60   ar
    32    53    54    1
    33    54    55    1
    34    63    64    1
    35    63    62   ar
    36    60    62   ar
    37    55    65   am
    38    55    56    2
    39    65    66    1
    40    68    67    2
    41    66    67    1
    42    66    69    1
    43    72    70   am
    44    70    69    1
    45    70    71    2
    46    73    74    1
    47    17    18    1
    48    17    16    1
    49    83    81    1
    50    91    92    1
    51    91    90    1
    52    76    75    2
    53    16    15    1
    54    74    75    1
    55    74    77    1
    56    81    82    1
    57    81    80    2
    58    89    90    1
    59    89    88    1
    60    77    78    1
    61    78    79    1
    62    14    15    1
    63    14    11    1
    64    79    80    1
    65    86    87    2
    66    86    85    1
    67    26    24   ar
    68    85    88    1
    69    85    84    1
    70    11    12    1
    71    11    10    1
    72    13    12    2
    73    22    21    2
    74     8     7   ar
    75    24    23    1
    76    24    25   ar
    77    23    20    1
    78     7     9   ar
    79     7     6    1
    80    21    20    1
    81    20    19    1
    82     6     5    1
    83     5     2    1
    84     2     3    1
    85     2     1    1
    86     3     4    2
