@<TRIPOS>MOLECULE
tmp/5svrA01.pdb
 88 81 0 0 0
SMALL
GASTEIGER

@<TRIPOS>ATOM
      1  N         21.6390  -16.5250  -23.2670 N.3    91  GLU91      -0.1245
      2  CA        21.9840  -17.0790  -24.5700 C.3    91  GLU91       0.1567
      3  C         23.3580  -17.7380  -24.5140 C.2    91  GLU91       0.2260
      4  O         24.3350  -17.1250  -24.0710 O.2    91  GLU91      -0.2867
      5  CB        21.9620  -15.9840  -25.6340 C.3    91  GLU91       0.0388
      6  CG        20.5720  -15.3640  -25.8740 C.3    91  GLU91       0.1160
      7  CD        19.6270  -16.2520  -26.7050 C.2    91  GLU91       0.3649
      8  OE1       20.0530  -17.2950  -27.2600 O.co2  91  GLU91      -0.2457
      9  OE2       18.4380  -15.8900  -26.8060 O.co2  91  GLU91      -0.2457
     10  N         25.3840  -18.3880  -26.8850 N.3    93  LYS93      -0.1245
     11  CA        26.3360  -17.6780  -27.7320 C.3    93  LYS93       0.1561
     12  C         27.1710  -16.6650  -26.9580 C.2    93  LYS93       0.2260
     13  O         28.2490  -16.2810  -27.4240 O.2    93  LYS93      -0.2867
     14  CB        25.5940  -16.9780  -28.8730 C.3    93  LYS93       0.0271
     15  CG        24.5470  -15.9650  -28.4230 C.3    93  LYS93       0.0035
     16  CD        23.7100  -15.5340  -29.5880 C.3    93  LYS93       0.0206
     17  CE        22.8420  -14.3490  -29.2020 C.3    93  LYS93       0.1093
     18  NZ        21.9810  -13.8620  -30.3090 N.3    93  LYS93      -0.1314
     19  N         14.0710  -17.9690  -24.5560 N.3   138  ASP138     -0.1239
     20  CA        13.2780  -18.2660  -25.7380 C.3   138  ASP138      0.1674
     21  C         13.4770  -19.6930  -26.2380 C.2   138  ASP138      0.2266
     22  O         13.1440  -19.9880  -27.3920 O.2   138  ASP138     -0.2867
     23  CB        13.6150  -17.2670  -26.8480 C.3   138  ASP138      0.1410
     24  CG        15.1140  -17.0420  -26.9950 C.2   138  ASP138      0.3668
     25  OD1       15.6630  -16.1680  -26.2870 O.co2 138  ASP138     -0.2456
     26  OD2       15.7450  -17.7420  -27.8150 O.co2 138  ASP138     -0.2456
     27  N         17.1320  -24.0870  -48.8970 N.3   251  LYS251     -0.1231
     28  CA        18.3420  -23.3080  -48.6580 C.3   251  LYS251      0.1693
     29  C         18.2300  -22.5280  -47.3560 C.2   251  LYS251      0.2593
     30  O         19.1700  -22.5000  -46.5530 O.2   251  LYS251     -0.2718
     31  CB        18.6020  -22.3640  -49.8320 C.3   251  LYS251      0.0285
     32  CG        19.8020  -21.4700  -49.6610 C.3   251  LYS251      0.0035
     33  CD        21.1230  -22.2520  -49.5880 C.3   251  LYS251      0.0206
     34  CE        22.3110  -21.3140  -49.3750 C.3   251  LYS251      0.1093
     35  NZ        21.8860  -19.9900  -48.7950 N.3   251  LYS251     -0.1314
     36  N         17.0800  -21.8930  -47.1310 N.am  252  SER252     -0.1938
     37  CA        16.7510  -21.2760  -45.8530 C.3   252  SER252      0.2055
     38  C         17.8650  -20.3760  -45.3330 C.2   252  SER252      0.2644
     39  O         17.9910  -19.2230  -45.7590 O.2   252  SER252     -0.2714
     40  CB        16.4250  -22.3550  -44.8170 C.3   252  SER252      0.2130
     41  OG        16.1540  -21.8780  -43.5960 O.3   252  SER252     -0.2179
     42  N         18.6780  -20.8990  -44.4160 N.am  253  SER253     -0.1935
     43  CA        19.6310  -20.1480  -43.6060 C.3   253  SER253      0.2055
     44  C         18.9220  -19.2720  -42.5810 C.2   253  SER253      0.2643
     45  O         19.5890  -18.5480  -41.8310 O.2   253  SER253     -0.2714
     46  CB        20.5810  -19.2830  -44.4510 C.3   253  SER253      0.2130
     47  OG        19.8770  -18.3150  -45.2090 O.3   253  SER253     -0.2179
     48  N         17.5920  -19.3180  -42.5210 N.am  254  VAL254     -0.1963
     49  CA        16.7960  -18.5190  -41.5980 C.3   254  VAL254      0.1727
     50  C         15.6560  -19.3900  -41.0910 C.2   254  VAL254      0.2616
     51  O         15.1060  -20.2060  -41.8390 O.2   254  VAL254     -0.2715
     52  CB        16.2510  -17.2400  -42.2680 C.3   254  VAL254      0.0290
     53  CG1       15.3910  -17.5980  -43.4720 C.3   254  VAL254      0.0023
     54  CG2       15.4580  -16.4140  -41.2690 C.3   254  VAL254      0.0023
     55  N         15.2980  -19.2150  -39.8280 N.am  255  SER255     -0.1950
     56  CA        14.2180  -20.0060  -39.2550 C.3   255  SER255      0.1924
     57  C         12.8830  -19.5460  -39.8290 C.2   255  SER255      0.2314
     58  O         12.5950  -18.3430  -39.8270 O.2   255  SER255     -0.2863
     59  CB        14.2110  -19.8810  -37.7320 C.3   255  SER255      0.2116
     60  OG        13.8550  -18.6170  -37.2870 O.3   255  SER255     -0.2180
     61  N          7.3890  -14.0170  -35.7710 N.3   259  ASN259     -0.1240
     62  CA         7.2150  -13.6230  -34.3800 C.3   259  ASN259      0.1653
     63  C          7.7940  -12.2330  -34.1570 C.2   259  ASN259      0.2266
     64  O          8.6700  -11.7770  -34.8960 O.2   259  ASN259     -0.2867
     65  CB         7.8790  -14.6300  -33.4340 C.3   259  ASN259      0.1155
     66  CG         9.3860  -14.6920  -33.6160 C.2   259  ASN259      0.2627
     67  OD1       10.1040  -13.7420  -33.2990 O.2   259  ASN259     -0.2716
     68  ND2        9.8730  -15.8180  -34.1260 N.am  259  ASN259     -0.0877
     69  N          8.3930   -9.1030  -30.7150 N.3   261  ARG261     -0.1245
     70  CA         8.4540   -8.8710  -29.2800 C.3   261  ARG261      0.1563
     71  C          7.7950   -7.5420  -28.9400 C.2   261  ARG261      0.2260
     72  O          7.9510   -6.5530  -29.6630 O.2   261  ARG261     -0.2867
     73  CB         9.9010   -8.8790  -28.7790 C.3   261  ARG261      0.0307
     74  CG        10.5250  -10.2640  -28.7110 C.3   261  ARG261      0.0489
     75  CD        11.9680  -10.2000  -28.2410 C.3   261  ARG261      0.2205
     76  NE        12.5160  -11.5270  -27.9740 N.pl3 261  ARG261     -0.0865
     77  CZ        13.1380  -12.2780  -28.8780 C.cat 261  ARG261      0.5346
     78  NH1       13.6020  -13.4740  -28.5430 N.pl3 261  ARG261      0.1354
     79  NH2       13.2980  -11.8330  -30.1160 N.pl3 261  ARG261      0.1354
     80  N          7.1310  -12.5020  -26.3550 N.3   279  LYS279     -0.1245
     81  CA         7.4620  -12.9570  -27.6980 C.3   279  LYS279      0.1561
     82  C          6.2260  -13.6220  -28.2910 C.2   279  LYS279      0.2260
     83  O          5.7680  -14.6510  -27.7810 O.2   279  LYS279     -0.2867
     84  CB         8.6480  -13.9210  -27.6690 C.3   279  LYS279      0.0271
     85  CG         9.2300  -14.2460  -29.0360 C.3   279  LYS279      0.0035
     86  CD        10.3470  -15.2740  -28.9200 C.3   279  LYS279      0.0206
     87  CE        11.0430  -15.5030  -30.2510 C.3   279  LYS279      0.1093
     88  NZ        12.1120  -16.5340  -30.1380 N.3   279  LYS279     -0.1314
@<TRIPOS>BOND
     1    31    32    1
     2    31    28    1
     3    32    33    1
     4    33    34    1
     5    34    35    1
     6    27    28    1
     7    28    29    1
     8    29    36   am
     9    29    30    2
    10    36    37    1
    11    37    38    1
    12    37    40    1
    13    39    38    2
    14    38    42   am
    15    47    46    1
    16    40    41    1
    17    46    43    1
    18    42    43    1
    19    43    44    1
    20    53    52    1
    21    44    48   am
    22    44    45    2
    23    48    49    1
    24    52    49    1
    25    52    54    1
    26    51    50    2
    27    49    50    1
    28    50    55   am
    29    57    58    2
    30    57    56    1
    31    55    56    1
    32    56    59    1
    33    59    60    1
    34    61    62    1
    35    64    63    2
    36    62    63    1
    37    62    65    1
    38    68    66   am
    39    66    65    1
    40    66    67    2
    41    69    70    1
    42    18    17    1
    43    87    88    1
    44    87    86    1
    45    79    77    1
    46    72    71    2
    47    16    17    1
    48    16    15    1
    49    70    71    1
    50    70    73    1
    51    85    86    1
    52    85    84    1
    53    77    78    1
    54    77    76    2
    55    14    15    1
    56    14    11    1
    57    73    74    1
    58    74    75    1
    59    82    83    2
    60    82    81    1
    61    75    76    1
    62    26    24   ar
    63    11    12    1
    64    11    10    1
    65    81    84    1
    66    81    80    1
    67    13    12    2
    68    22    21    2
    69     8     7   ar
    70    24    23    1
    71    24    25   ar
    72    23    20    1
    73     9     7   ar
    74     7     6    1
    75    21    20    1
    76     6     5    1
    77    20    19    1
    78     5     2    1
    79     2     3    1
    80     2     1    1
    81     3     4    2
