@<TRIPOS>MOLECULE
tmp/5svvC00.pdb
 180 164 0 0 0
SMALL
GASTEIGER

@<TRIPOS>ATOM
      1  N        -37.8280   -8.2080   -9.6240 N.3    18  ILE18      -0.1245
      2  CA       -36.5580   -7.5530   -9.4290 C.3    18  ILE18       0.1561
      3  C        -35.9310   -8.0060   -8.1200 C.2    18  ILE18       0.2260
      4  O        -36.6260   -8.1050   -7.1100 O.2    18  ILE18      -0.2867
      5  CB       -36.7490   -6.0130   -9.3470 C.3    18  ILE18       0.0252
      6  CG1      -37.4970   -5.4850  -10.5770 C.3    18  ILE18       0.0019
      7  CG2      -35.3950   -5.3050   -9.1260 C.3    18  ILE18       0.0019
      8  CD1      -38.2630   -4.1500  -10.3260 C.3    18  ILE18       0.0001
      9  N        -32.6840   -6.6800   -5.6570 N.3    20  THR20      -0.1218
     10  CA       -31.5750   -5.7800   -5.3920 C.3    20  THR20       0.1862
     11  C        -30.7090   -6.2860   -4.2290 C.2    20  THR20       0.2287
     12  O        -31.1880   -7.0070   -3.3290 O.2    20  THR20      -0.2866
     13  CB       -32.0470   -4.3360   -5.0390 C.3    20  THR20       0.1770
     14  OG1      -32.8130   -4.3730   -3.8340 O.3    20  THR20      -0.2211
     15  CG2      -32.8970   -3.7070   -6.1670 C.3    20  THR20       0.0375
     16  N        -29.1550    0.1520   -3.2060 N.3    27  GLN27      -0.1245
     17  CA       -29.9520   -0.9630   -3.7560 C.3    27  GLN27       0.1566
     18  C        -29.7610   -1.2390   -5.2430 C.2    27  GLN27       0.2260
     19  O        -30.7120   -1.1360   -6.0030 O.2    27  GLN27      -0.2867
     20  CB       -31.4570   -0.7060   -3.5420 C.3    27  GLN27       0.0367
     21  CG       -31.8850   -0.4930   -2.1030 C.3    27  GLN27       0.0905
     22  CD       -31.8280   -1.7370   -1.2530 C.2    27  GLN27       0.2608
     23  OE1      -31.7640   -2.8650   -1.7500 O.2    27  GLN27      -0.2717
     24  NE2      -31.8670   -1.5370    0.0600 N.am   27  GLN27      -0.0878
     25  N        -29.8570    1.6040   -9.6890 N.3    51  ASN51      -0.1225
     26  CA       -31.0350    1.7130   -8.8580 C.3    51  ASN51       0.1785
     27  C        -32.2710    1.7220   -9.7620 C.2    51  ASN51       0.2597
     28  O        -32.2170    2.2250  -10.8760 O.2    51  ASN51      -0.2718
     29  CB       -30.9580    2.9640   -8.0000 C.3    51  ASN51       0.1169
     30  CG       -32.1150    3.0840   -7.0330 C.2    51  ASN51       0.2627
     31  OD1      -33.2410    3.4340   -7.4110 O.2    51  ASN51      -0.2716
     32  ND2      -31.8520    2.7710   -5.7740 N.am   51  ASN51      -0.0877
     33  N        -33.3770    1.1320   -9.3000 N.am   52  CYS52      -0.1956
     34  CA       -34.5900    1.0450  -10.1100 C.3    52  CYS52       0.1843
     35  C        -35.2230    2.3880  -10.4850 C.2    52  CYS52       0.2625
     36  O        -36.0910    2.4320  -11.3630 O.2    52  CYS52      -0.2714
     37  CB       -35.6440    0.2080   -9.3840 C.3    52  CYS52       0.0997
     38  SG       -35.0960   -1.4770   -9.1630 S.3    52  CYS52      -0.0797
     39  N        -34.8120    3.4710   -9.8250 N.am   53  ARG53      -0.1977
     40  CA       -35.4800    4.7630  -10.0050 C.3    53  ARG53       0.1597
     41  C        -35.4010    5.3050  -11.4460 C.2    53  ARG53       0.2287
     42  O        -36.1450    6.2310  -11.8090 O.2    53  ARG53      -0.2864
     43  CB       -34.9050    5.8030   -9.0120 C.3    53  ARG53       0.0334
     44  CG       -33.4580    6.2420   -9.3310 C.3    53  ARG53       0.0492
     45  CD       -33.0610    7.4400   -8.4330 C.3    53  ARG53       0.2205
     46  NE       -33.0230    7.0460   -7.0170 N.pl3  53  ARG53      -0.0865
     47  CZ       -32.0040    6.3960   -6.4480 C.cat  53  ARG53       0.5346
     48  NH1      -30.9290    6.1090   -7.1580 N.pl3  53  ARG53       0.1354
     49  NH2      -32.0440    6.0620   -5.1520 N.pl3  53  ARG53       0.1354
     50  N        -36.6170    4.1140  -13.8980 N.3    55  LEU55      -0.1231
     51  CA       -37.9410    3.8630  -14.5040 C.3    55  LEU55       0.1693
     52  C        -38.8920    5.0520  -14.3400 C.2    55  LEU55       0.2591
     53  O        -39.9100    5.1500  -15.0350 O.2    55  LEU55      -0.2718
     54  CB       -38.6280    2.6110  -13.8940 C.3    55  LEU55       0.0284
     55  CG       -37.9790    1.2420  -14.2240 C.3    55  LEU55       0.0019
     56  CD1      -38.6560    0.1270  -13.4180 C.3    55  LEU55       0.0001
     57  CD2      -38.0810    0.9660  -15.7400 C.3    55  LEU55       0.0001
     58  N        -38.5840    5.9170  -13.3820 N.am   56  GLN56      -0.1979
     59  CA       -39.3840    7.1180  -13.1490 C.3    56  GLN56       0.1601
     60  C        -38.9820    8.2810  -14.0770 C.2    56  GLN56       0.2287
     61  O        -39.6330    9.3450  -14.1060 O.2    56  GLN56      -0.2864
     62  CB       -39.2610    7.5620  -11.6960 C.3    56  GLN56       0.0394
     63  CG       -39.8420    6.5950  -10.6970 C.3    56  GLN56       0.0908
     64  CD       -39.1450    6.7240   -9.3430 C.2    56  GLN56       0.2608
     65  OE1      -38.7130    7.8150   -8.9550 O.2    56  GLN56      -0.2717
     66  NE2      -38.9790    5.6050   -8.6530 N.am   56  GLN56      -0.0878
     67  N        -36.3010   12.1510  -12.4250 N.3    65  ARG65      -0.1245
     68  CA       -37.6660   11.6830  -12.2900 C.3    65  ARG65       0.1563
     69  C        -38.6230   12.6960  -12.9190 C.2    65  ARG65       0.2260
     70  O        -38.4750   13.9040  -12.7220 O.2    65  ARG65      -0.2867
     71  CB       -37.9860   11.4450  -10.8060 C.3    65  ARG65       0.0307
     72  CG       -39.4520   11.4950  -10.4520 C.3    65  ARG65       0.0489
     73  CD       -39.7620   10.8890   -9.0620 C.3    65  ARG65       0.2205
     74  NE       -38.9460   11.3850   -7.9470 N.pl3  65  ARG65      -0.0865
     75  CZ       -39.1540   12.5280   -7.2900 C.cat  65  ARG65       0.5346
     76  NH1      -40.1610   13.3420   -7.6280 N.pl3  65  ARG65       0.1354
     77  NH2      -38.3590   12.8460   -6.2710 N.pl3  65  ARG65       0.1354
     78  N        -43.1630    8.0780   -4.0430 N.3    74  VAL74      -0.1245
     79  CA       -41.7250    7.8340   -4.0910 C.3    74  VAL74       0.1561
     80  C        -41.1240    7.9520   -2.6920 C.2    74  VAL74       0.2260
     81  O        -40.2750    7.1520   -2.2910 O.2    74  VAL74      -0.2867
     82  CB       -41.0260    8.7850   -5.0720 C.3    74  VAL74       0.0252
     83  CG1      -39.5160    8.6970   -4.9620 C.3    74  VAL74       0.0019
     84  CG2      -41.4780    8.4130   -6.5000 C.3    74  VAL74       0.0019
     85  N        -41.9530    4.9010   -0.5990 N.3    77  ILE77      -0.1231
     86  CA       -41.0560    3.8060   -0.9640 C.3    77  ILE77       0.1692
     87  C        -39.7150    3.9410   -0.2400 C.2    77  ILE77       0.2591
     88  O        -39.2060    2.9600    0.3210 O.2    77  ILE77      -0.2718
     89  CB       -40.8180    3.7300   -2.4950 C.3    77  ILE77       0.0266
     90  CG1      -42.1230    3.3030   -3.1940 C.3    77  ILE77       0.0019
     91  CG2      -39.6180    2.7830   -2.8060 C.3    77  ILE77       0.0020
     92  CD1      -42.0910    3.4480   -4.7290 C.3    77  ILE77       0.0001
     93  N        -39.1430    5.1460   -0.2550 N.am   78  ARG78      -0.1980
     94  CA       -37.8660    5.4060    0.4330 C.3    78  ARG78       0.1597
     95  C        -37.9340    5.0080    1.9020 C.2    78  ARG78       0.2287
     96  O        -37.0400    4.3480    2.4220 O.2    78  ARG78      -0.2864
     97  CB       -37.4820    6.8930    0.3880 C.3    78  ARG78       0.0334
     98  CG       -36.6150    7.3330   -0.7450 C.3    78  ARG78       0.0492
     99  CD       -36.1580    8.8270   -0.6100 C.3    78  ARG78       0.2205
    100  NE       -37.2390    9.7970   -0.3400 N.pl3  78  ARG78      -0.0865
    101  CZ       -37.9530   10.4580   -1.2580 C.cat  78  ARG78       0.5346
    102  NH1      -37.7590   10.2750   -2.5540 N.pl3  78  ARG78       0.1354
    103  NH2      -38.8830   11.3260   -0.8670 N.pl3  78  ARG78       0.1354
    104  N        -38.2370    1.2370    2.5170 N.3    81  ILE81      -0.1245
    105  CA       -36.9690    0.5630    2.3040 C.3    81  ILE81       0.1561
    106  C        -36.0300    0.8510    3.4730 C.2    81  ILE81       0.2260
    107  O        -35.3470   -0.0410    3.9870 O.2    81  ILE81      -0.2867
    108  CB       -36.2940    0.9920    0.9780 C.3    81  ILE81       0.0252
    109  CG1      -37.0590    0.3990   -0.2080 C.3    81  ILE81       0.0019
    110  CG2      -34.8290    0.5390    0.9210 C.3    81  ILE81       0.0019
    111  CD1      -36.6900    1.0000   -1.5080 C.3    81  ILE81       0.0001
    112  N        -47.2810    3.3960   -8.9410 N.3    91  LEU91      -0.1245
    113  CA       -46.2960    4.4100   -9.2590 C.3    91  LEU91       0.1561
    114  C        -46.2540    4.5660  -10.7670 C.2    91  LEU91       0.2260
    115  O        -46.2220    3.5630  -11.4880 O.2    91  LEU91      -0.2867
    116  CB       -44.9220    3.9830   -8.6910 C.3    91  LEU91       0.0270
    117  CG       -43.7910    4.9860   -8.8010 C.3    91  LEU91       0.0019
    118  CD1      -44.1510    6.2250   -8.0360 C.3    91  LEU91       0.0001
    119  CD2      -42.5040    4.3960   -8.2920 C.3    91  LEU91       0.0001
    120  N        -44.3800    4.9670  -14.0830 N.3    93  ASN93      -0.1240
    121  CA       -43.0680    4.6380  -14.6400 C.3    93  ASN93       0.1653
    122  C        -43.1410    4.8360  -16.1760 C.2    93  ASN93       0.2266
    123  O        -44.2200    5.0660  -16.7290 O.2    93  ASN93      -0.2867
    124  CB       -42.6720    3.1750  -14.3510 C.3    93  ASN93       0.1155
    125  CG       -42.0600    2.9390  -12.9730 C.2    93  ASN93       0.2627
    126  OD1      -41.7290    1.8010  -12.6650 O.2    93  ASN93      -0.2716
    127  ND2      -41.8820    3.9820  -12.1600 N.am   93  ASN93      -0.0877
    128  N        -47.3920    1.0960  -12.5050 N.3   103  ASN103     -0.1240
    129  CA       -46.7050    0.0010  -11.8370 C.3   103  ASN103      0.1653
    130  C        -47.2240   -0.1560  -10.4280 C.2   103  ASN103      0.2266
    131  O        -46.9310    0.6690   -9.5560 O.2   103  ASN103     -0.2867
    132  CB       -45.2200    0.2810  -11.8750 C.3   103  ASN103      0.1155
    133  CG       -44.3740   -0.8030  -11.2080 C.2   103  ASN103      0.2627
    134  OD1      -44.8670   -1.8090  -10.6880 O.2   103  ASN103     -0.2716
    135  ND2      -43.0910   -0.5920  -11.2480 N.am  103  ASN103     -0.0877
    136  N        -46.5280   -1.8630   -7.5400 N.3   105  LEU105     -0.1245
    137  CA       -45.2400   -2.3260   -7.0830 C.3   105  LEU105      0.1561
    138  C        -45.3130   -2.8290   -5.6520 C.2   105  LEU105      0.2260
    139  O        -45.7330   -2.0900   -4.7540 O.2   105  LEU105     -0.2867
    140  CB       -44.2250   -1.1960   -7.1660 C.3   105  LEU105      0.0270
    141  CG       -42.8080   -1.4820   -6.6290 C.3   105  LEU105      0.0019
    142  CD1      -42.0640   -2.5290   -7.4890 C.3   105  LEU105      0.0001
    143  CD2      -41.9750   -0.1930   -6.4990 C.3   105  LEU105      0.0001
    144  N        -42.7800   -4.3830   -2.6840 N.3   107  LEU107     -0.1245
    145  CA       -41.4100   -4.6020   -2.2260 C.3   107  LEU107      0.1561
    146  C        -41.4600   -5.4180   -0.9680 C.2   107  LEU107      0.2260
    147  O        -42.2600   -5.1170   -0.0700 O.2   107  LEU107     -0.2867
    148  CB       -40.6950   -3.2980   -1.9160 C.3   107  LEU107      0.0270
    149  CG       -40.5940   -2.2610   -3.0210 C.3   107  LEU107      0.0019
    150  CD1      -39.7640   -1.1290   -2.4970 C.3   107  LEU107      0.0001
    151  CD2      -39.9710   -2.8490   -4.2740 C.3   107  LEU107      0.0001
    152  N        -33.7770   -7.0680   -1.4230 N.3   120  ILE120     -0.1231
    153  CA       -35.1730   -6.6780   -1.5240 C.3   120  ILE120      0.1692
    154  C        -35.6630   -7.2460   -2.8460 C.2   120  ILE120      0.2592
    155  O        -34.9460   -7.2560   -3.8610 O.2   120  ILE120     -0.2718
    156  CB       -35.3820   -5.1280   -1.4050 C.3   120  ILE120      0.0266
    157  CG1      -34.7400   -4.6290   -0.1120 C.3   120  ILE120      0.0019
    158  CG2      -36.8850   -4.8090   -1.3820 C.3   120  ILE120      0.0020
    159  CD1      -34.7580   -3.1580    0.0640 C.3   120  ILE120      0.0001
    160  N        -36.8700   -7.7910   -2.7910 N.am  121  ILE121     -0.1966
    161  CA       -37.5490   -8.3010   -3.9550 C.3   121  ILE121      0.1727
    162  C        -38.5860   -7.2740   -4.3310 C.2   121  ILE121      0.2616
    163  O        -39.2930   -6.7530   -3.4840 O.2   121  ILE121     -0.2715
    164  CB       -38.2580   -9.6460   -3.6930 C.3   121  ILE121      0.0290
    165  CG1      -37.3190  -10.6560   -3.0190 C.3   121  ILE121      0.0022
    166  CG2      -38.8770  -10.1610   -4.9740 C.3   121  ILE121      0.0023
    167  CD1      -36.1420  -11.0790   -3.8030 C.3   121  ILE121      0.0001
    168  N        -38.6390   -6.9610   -5.6120 N.am  122  GLY122     -0.1955
    169  CA       -39.6560   -6.0910   -6.1250 C.3   122  GLY122      0.1869
    170  C        -40.5300   -6.8840   -7.0780 C.2   122  GLY122      0.2309
    171  O        -40.0230   -7.6190   -7.9210 O.2   122  GLY122     -0.2863
    172  N        -43.5790   -6.3080   -9.8410 N.3   124  GLN124     -0.1245
    173  CA       -44.3190   -5.3320  -10.6520 C.3   124  GLN124      0.1566
    174  C        -45.5320   -5.9340  -11.3390 C.2   124  GLN124      0.2260
    175  O        -45.3940   -6.7360  -12.2550 O.2   124  GLN124     -0.2867
    176  CB       -43.4340   -4.7400  -11.7320 C.3   124  GLN124      0.0367
    177  CG       -42.0690   -4.2470  -11.2780 C.3   124  GLN124      0.0905
    178  CD       -41.1180   -4.1060  -12.4440 C.2   124  GLN124      0.2608
    179  OE1      -40.9700   -5.0310  -13.2490 O.2   124  GLN124     -0.2717
    180  NE2      -40.4700   -2.9480  -12.5540 N.am  124  GLN124     -0.0878
@<TRIPOS>BOND
     1   123   122    2
     2   122   121    1
     3    57    55    1
     4    53    52    2
     5   121   124    1
     6   121   120    1
     7    51    52    1
     8    51    50    1
     9    51    54    1
    10   124   125    1
    11    52    58   am
    12    55    54    1
    13    55    56    1
    14    61    60    2
    15    60    59    1
    16    58    59    1
    17   179   178    2
    18    59    62    1
    19   125   126    2
    20   125   127   am
    21    69    70    2
    22    69    68    1
    23   180   178   am
    24   128   129    1
    25   178   177    1
    26    67    68    1
    27    68    71    1
    28   175   174    2
    29   132   129    1
    30   132   133    1
    31   129   130    1
    32    42    41    2
    33   176   177    1
    34   176   173    1
    35    62    63    1
    36   115   114    2
    37    41    40    1
    38    36    35    2
    39   174   173    1
    40   135   133   am
    41   133   134    2
    42    28    27    2
    43    71    72    1
    44   114   113    1
    45    63    64    1
    46   173   172    1
    47     6     8    1
    48     6     5    1
    49    35    34    1
    50    35    39   am
    51    72    73    1
    52   130   131    2
    53    34    37    1
    54    34    33    1
    55    40    39    1
    56    40    43    1
    57    27    33   am
    58    27    26    1
    59    25    26    1
    60     1     2    1
    61     2     5    1
    62     2     3    1
    63    37    38    1
    64     5     7    1
    65    64    65    2
    66    64    66   am
    67    44    43    1
    68    44    45    1
    69   113   112    1
    70   113   116    1
    71    73    74    1
    72    26    29    1
    73   117   116    1
    74   117   119    1
    75   117   118    1
    76    45    46    1
    77     3     4    2
    78    29    30    1
    79    74    75    2
    80   171   170    2
    81    76    75    1
    82   136   137    1
    83   142   141    1
    84    31    30    2
    85    75    77    1
    86   140   137    1
    87   140   141    1
    88    48    47    1
    89   137   138    1
    90   170   169    1
    91    30    32   am
    92    46    47    2
    93   141   143    1
    94    84    82    1
    95    47    49    1
    96    15    13    1
    97   169   168    1
    98    19    18    2
    99     9    10    1
   100   138   139    2
   101   168   162   am
   102    10    13    1
   103    10    11    1
   104    18    17    1
   105    82    83    1
   106    82    79    1
   107    13    14    1
   108   166   164    1
   109    92    90    1
   110   162   161    1
   111   162   163    2
   112   151   149    1
   113    11    12    2
   114    79    78    1
   115    79    80    1
   116   161   164    1
   117   161   160    1
   118   155   154    2
   119   167   165    1
   120    17    20    1
   121    17    16    1
   122   164   165    1
   123    20    21    1
   124    90    89    1
   125   149   150    1
   126   149   148    1
   127   154   160   am
   128   154   153    1
   129    91    89    1
   130    80    81    2
   131   144   145    1
   132   102   101    1
   133    89    86    1
   134   145   148    1
   135   145   146    1
   136    21    22    1
   137    23    22    2
   138   153   152    1
   139   153   156    1
   140   111   109    1
   141   156   158    1
   142   156   157    1
   143   101   103    1
   144   101   100    2
   145    22    24   am
   146   146   147    2
   147    86    85    1
   148    86    87    1
   149    98    99    1
   150    98    97    1
   151    99   100    1
   152    93    87   am
   153    93    94    1
   154    87    88    2
   155   109   108    1
   156   157   159    1
   157    97    94    1
   158    94    95    1
   159   110   108    1
   160   108   105    1
   161    95    96    2
   162   105   104    1
   163   105   106    1
   164   106   107    2
