@<TRIPOS>MOLECULE
tmp/5svyA00.pdb
 154 153 0 0 0
SMALL
GASTEIGER

@<TRIPOS>ATOM
      1  N        -11.3330    5.5980   47.6410 N.3     1  SER1       -0.1202
      2  CA       -12.4500    5.8890   46.7020 C.3     1  SER1        0.2020
      3  C        -11.9770    5.8110   45.2570 C.2     1  SER1        0.2619
      4  O        -10.8500    6.1670   44.9330 O.2     1  SER1       -0.2717
      5  CB       -13.0520    7.2650   46.9840 C.3     1  SER1        0.2103
      6  OG       -14.1900    7.4930   46.1760 O.3     1  SER1       -0.2182
      7  N        -12.8760    5.3410   44.4140 N.am    2  ASP2       -0.1959
      8  CA       -12.6230    5.0940   43.0000 C.3     2  ASP2        0.1840
      9  C        -13.1930    6.2210   42.1400 C.2     2  ASP2        0.2622
     10  O        -13.9640    7.0430   42.6220 O.2     2  ASP2       -0.2715
     11  CB       -13.3000    3.7850   42.5860 C.3     2  ASP2        0.1450
     12  CG       -12.6100    2.5490   43.1370 C.2     2  ASP2        0.3671
     13  OD1      -11.4280    2.6360   43.5270 O.co2   2  ASP2       -0.2456
     14  OD2      -13.2590    1.4800   43.1520 O.co2   2  ASP2       -0.2456
     15  N        -12.8040    6.2470   40.8710 N.am    3  GLN3       -0.1963
     16  CA       -13.3400    7.1830   39.8910 C.3     3  GLN3        0.1733
     17  C        -14.5330    6.5580   39.1820 C.2     3  GLN3        0.2617
     18  O        -14.4070    5.4680   38.6330 O.2     3  GLN3       -0.2715
     19  CB       -12.2740    7.4710   38.8460 C.3     3  GLN3        0.0408
     20  CG       -12.7110    8.3930   37.7370 C.3     3  GLN3        0.0908
     21  CD       -12.9600    9.7840   38.2570 C.2     3  GLN3        0.2608
     22  OE1      -12.0480   10.4170   38.7890 O.2     3  GLN3       -0.2717
     23  NE2      -14.1760   10.2660   38.1360 N.am    3  GLN3       -0.0878
     24  N        -15.6670    7.2470   39.1550 N.am    4  THR4       -0.1937
     25  CA       -16.8060    6.8260   38.3530 C.3     4  THR4        0.2028
     26  C        -16.6900    7.4280   36.9580 C.2     4  THR4        0.2642
     27  O        -16.3040    8.5970   36.7980 O.2     4  THR4       -0.2714
     28  CB       -18.1160    7.2690   38.9890 C.3     4  THR4        0.1808
     29  OG1      -18.2520    6.6500   40.2660 O.3     4  THR4       -0.2208
     30  CG2      -19.3130    6.8890   38.1690 C.3     4  THR4        0.0379
     31  N        -17.0360    6.6150   35.9720 N.am    5  TRP5       -0.1959
     32  CA       -17.1660    7.0360   34.5890 C.3     5  TRP5        0.1771
     33  C        -18.5490    6.6170   34.0920 C.2     5  TRP5        0.2620
     34  O        -19.0940    5.6040   34.5170 O.2     5  TRP5       -0.2715
     35  CB       -16.1340    6.3400   33.6980 C.3     5  TRP5        0.0590
     36  CG       -14.7040    6.4270   34.1010 C.ar    5  TRP5        0.0006
     37  CD1      -14.1280    5.8310   35.1800 C.ar    5  TRP5        0.0946
     38  CD2      -13.6420    7.0690   33.3790 C.ar    5  TRP5        0.0152
     39  NE1      -12.7750    6.0540   35.1760 N.ar    5  TRP5       -0.2442
     40  CE2      -12.4500    6.8240   34.0890 C.ar    5  TRP5        0.0810
     41  CE3      -13.5770    7.8220   32.2020 C.ar    5  TRP5        0.0012
     42  CZ2      -11.2180    7.2940   33.6600 C.ar    5  TRP5        0.0191
     43  CZ3      -12.3490    8.2800   31.7750 C.ar    5  TRP5        0.0001
     44  CH2      -11.1880    8.0160   32.5020 C.ar    5  TRP5        0.0015
     45  N        -19.0740    7.3850   33.1430 N.am    6  VAL6       -0.1963
     46  CA       -20.3000    7.0620   32.4480 C.3     6  VAL6        0.1727
     47  C        -20.0080    7.0110   30.9500 C.2     6  VAL6        0.2616
     48  O        -19.1940    7.7800   30.4370 O.2     6  VAL6       -0.2715
     49  CB       -21.4010    8.0900   32.7570 C.3     6  VAL6        0.0290
     50  CG1      -21.0140    9.5100   32.3630 C.3     6  VAL6        0.0023
     51  CG2      -22.7060    7.7010   32.1210 C.3     6  VAL6        0.0023
     52  N        -20.6740    6.1170   30.2400 N.am    7  GLN7       -0.1977
     53  CA       -20.5000    6.0160   28.8020 C.3     7  GLN7        0.1601
     54  C        -21.5600    6.8360   28.0930 C.2     7  GLN7        0.2287
     55  O        -22.7530    6.7390   28.3900 O.2     7  GLN7       -0.2864
     56  CB       -20.5720    4.5610   28.3370 C.3     7  GLN7        0.0394
     57  CG       -20.2570    4.4220   26.8590 C.3     7  GLN7        0.0908
     58  CD       -20.1720    3.0010   26.4160 C.2     7  GLN7        0.2608
     59  OE1      -21.1060    2.2200   26.6430 O.2     7  GLN7       -0.2717
     60  NE2      -19.0820    2.6400   25.7700 N.am    7  GLN7       -0.0878
     61  N        -24.0740    7.3890   25.3130 N.3     9  ASP9       -0.1239
     62  CA       -24.8530    6.4940   24.4770 C.3     9  ASP9        0.1674
     63  C        -24.7580    6.8050   22.9810 C.2     9  ASP9        0.2266
     64  O        -25.1000    5.9690   22.1550 O.2     9  ASP9       -0.2867
     65  CB       -26.3060    6.5000   24.9450 C.3     9  ASP9        0.1410
     66  CG       -26.5310    5.6080   26.1650 C.2     9  ASP9        0.3668
     67  OD1      -26.8010    4.3990   25.9510 O.co2   9  ASP9       -0.2456
     68  OD2      -26.4880    6.0970   27.3230 O.co2   9  ASP9       -0.2456
     69  N        -16.1470    7.0980   27.3360 N.3    14  TRP14      -0.1241
     70  CA       -16.2970    7.1290   28.7780 C.3    14  TRP14       0.1605
     71  C        -15.8790    8.4940   29.3110 C.2    14  TRP14       0.2264
     72  O        -14.8070    9.0000   28.9670 O.2    14  TRP14      -0.2867
     73  CB       -15.4430    6.0300   29.4060 C.3    14  TRP14       0.0550
     74  CG       -15.9080    4.6450   29.0310 C.ar   14  TRP14       0.0003
     75  CD1      -15.4970    3.9010   27.9690 C.ar   14  TRP14       0.0946
     76  CD2      -16.9100    3.8700   29.6910 C.ar   14  TRP14       0.0152
     77  NE1      -16.1610    2.7080   27.9240 N.ar   14  TRP14      -0.2442
     78  CE2      -17.0360    2.6610   28.9760 C.ar   14  TRP14       0.0810
     79  CE3      -17.7000    4.0580   30.8330 C.ar   14  TRP14       0.0012
     80  CZ2      -17.9040    1.6580   29.3710 C.ar   14  TRP14       0.0191
     81  CZ3      -18.5520    3.0640   31.2110 C.ar   14  TRP14       0.0001
     82  CH2      -18.6310    1.8630   30.4890 C.ar   14  TRP14       0.0015
     83  N        -17.6250   12.4310   42.0720 N.3    19  ASP19      -0.1239
     84  CA       -17.9910   11.4170   43.0250 C.3    19  ASP19       0.1674
     85  C        -19.3840   11.7640   43.5690 C.2    19  ASP19       0.2266
     86  O        -19.7480   12.9300   43.7560 O.2    19  ASP19      -0.2867
     87  CB       -17.0120   11.3830   44.1980 C.3    19  ASP19       0.1410
     88  CG       -15.5860   11.0560   43.8230 C.2    19  ASP19       0.3668
     89  OD1      -15.2740   10.6960   42.6760 O.co2  19  ASP19      -0.2456
     90  OD2      -14.7350   11.1650   44.7240 O.co2  19  ASP19      -0.2456
     91  N        -28.4770    8.8600   37.5850 N.3    24  LEU24      -0.1231
     92  CA       -28.2790    9.2750   36.2040 C.3    24  LEU24       0.1678
     93  C        -29.4770    8.8670   35.3650 C.2    24  LEU24       0.2434
     94  O        -30.1670    7.9130   35.6980 O.2    24  LEU24      -0.2733
     95  CB       -27.0190    8.6270   35.6400 C.3    24  LEU24       0.0284
     96  CG       -25.7010    9.0810   36.2830 C.3    24  LEU24       0.0019
     97  CD1      -24.5650    8.1560   35.8860 C.3    24  LEU24       0.0001
     98  CD2      -25.3630   10.5280   35.9340 C.3    24  LEU24       0.0001
     99  N        -29.7190    9.5840   34.2600 N.am   25  PRO25      -0.2718
    100  CA       -30.7620    9.1560   33.3370 C.3    25  PRO25       0.1535
    101  C        -30.4540    7.8020   32.7210 C.2    25  PRO25       0.2598
    102  O        -29.3160    7.3250   32.7240 O.2    25  PRO25      -0.2715
    103  CB       -30.7520   10.2390   32.2590 C.3    25  PRO25       0.0310
    104  CG       -29.3550   10.8010   32.3210 C.3    25  PRO25       0.0237
    105  CD       -28.9850   10.7580   33.7620 C.3    25  PRO25       0.0939
    106  N        -31.4890    7.1670   32.1900 N.am   26  GLU26      -0.1978
    107  CA       -31.3320    5.8740   31.5360 C.3    26  GLU26       0.1602
    108  C        -30.2980    5.9380   30.4060 C.2    26  GLU26       0.2287
    109  O        -29.4040    5.0950   30.3210 O.2    26  GLU26      -0.2864
    110  CB       -32.6810    5.3820   30.9960 C.3    26  GLU26       0.0415
    111  CG       -32.6010    4.1660   30.0650 C.3    26  GLU26       0.1163
    112  CD       -32.0190    2.9320   30.7350 C.2    26  GLU26       0.3649
    113  OE1      -32.0940    2.8360   31.9770 O.co2  26  GLU26      -0.2457
    114  OE2      -31.4770    2.0580   30.0240 O.co2  26  GLU26      -0.2457
    115  N        -27.4580    8.5230   28.6470 N.3    28  TRP28      -0.1241
    116  CA       -26.6460    9.6680   29.0240 C.3    28  TRP28       0.1605
    117  C        -25.7850   10.0270   27.8330 C.2    28  TRP28       0.2264
    118  O        -25.3230    9.1580   27.1220 O.2    28  TRP28      -0.2867
    119  CB       -25.7720    9.3270   30.2450 C.3    28  TRP28       0.0550
    120  CG       -24.9940   10.4710   30.8130 C.ar   28  TRP28       0.0003
    121  CD1      -25.3660   11.2640   31.8640 C.ar   28  TRP28       0.0946
    122  CD2      -23.7150   10.9610   30.3840 C.ar   28  TRP28       0.0152
    123  NE1      -24.4080   12.2070   32.1130 N.ar   28  TRP28      -0.2442
    124  CE2      -23.3770   12.0340   31.2250 C.ar   28  TRP28       0.0810
    125  CE3      -22.8090   10.5780   29.3830 C.ar   28  TRP28       0.0012
    126  CZ2      -22.1900   12.7470   31.0890 C.ar   28  TRP28       0.0191
    127  CZ3      -21.6290   11.2880   29.2490 C.ar   28  TRP28       0.0001
    128  CH2      -21.3320   12.3590   30.0900 C.ar   28  TRP28       0.0015
    129  N        -11.6770   10.9720   24.5500 N.3    45  GLU45      -0.1245
    130  CA       -11.8100   10.2910   25.8240 C.3    45  GLU45       0.1567
    131  C        -10.5400   10.4430   26.6410 C.2    45  GLU45       0.2260
    132  O         -9.4510   10.1820   26.1440 O.2    45  GLU45      -0.2867
    133  CB       -12.0840    8.8030   25.5650 C.3    45  GLU45       0.0388
    134  CG       -12.3230    7.9980   26.8190 C.3    45  GLU45       0.1160
    135  CD       -12.6130    6.5680   26.4760 C.2    45  GLU45       0.3649
    136  OE1      -13.7280    6.2640   26.0200 O.co2  45  GLU45      -0.2457
    137  OE2      -11.7150    5.7180   26.6560 O.co2  45  GLU45      -0.2457
    138  N         -7.1960    6.7310   31.3860 N.3    48  GLU48      -0.1231
    139  CA        -7.2170    6.2660   32.7500 C.3    48  GLU48       0.1699
    140  C         -5.8600    6.4680   33.3690 C.2    48  GLU48       0.2592
    141  O         -4.8560    6.6670   32.6820 O.2    48  GLU48      -0.2718
    142  CB        -7.5610    4.7800   32.7920 C.3    48  GLU48       0.0402
    143  CG        -8.8760    4.4810   32.1150 C.3    48  GLU48       0.1161
    144  CD        -9.2220    3.0070   32.0160 C.2    48  GLU48       0.3649
    145  OE1       -8.7230    2.1960   32.8050 O.co2  48  GLU48      -0.2457
    146  OE2      -10.0510    2.6470   31.1600 O.co2  48  GLU48      -0.2457
    147  N         -5.8530    6.4520   34.6880 N.am   49  ASP49      -0.1974
    148  CA        -4.5940    6.5270   35.4150 C.3    49  ASP49       0.1709
    149  C         -3.7210    5.2820   35.1250 C.2    49  ASP49       0.2293
    150  O         -4.2400    4.2210   34.7650 O.2    49  ASP49      -0.2864
    151  CB        -4.8500    6.6550   36.9170 C.3    49  ASP49       0.1436
    152  CG        -5.5170    7.9640   37.3140 C.2    49  ASP49       0.3671
    153  OD1       -5.6200    8.8880   36.4930 O.co2  49  ASP49      -0.2456
    154  OD2       -5.8880    8.0800   38.5020 O.co2  49  ASP49      -0.2456
@<TRIPOS>BOND
     1    64    63    2
     2    63    62    1
     3    62    65    1
     4    62    61    1
     5   129   130    1
     6    65    66    1
     7   133   130    1
     8   133   134    1
     9    60    58   am
    10   130   131    1
    11    67    66   ar
    12   136   135   ar
    13   132   131    2
    14    66    68   ar
    15    58    59    2
    16    58    57    1
    17   135   137   ar
    18   135   134    1
    19    57    56    1
    20   118   117    2
    21    69    70    1
    22   117   116    1
    23    77    75   ar
    24    77    78   ar
    25    75    74   ar
    26    54    55    2
    27    54    53    1
    28    56    53    1
    29   115   116    1
    30    70    71    1
    31    70    73    1
    32    53    52    1
    33    72    71    2
    34    78    80   ar
    35    78    76   ar
    36   116   119    1
    37    74    73    1
    38    74    76   ar
    39   127   125   ar
    40   127   128   ar
    41    80    82   ar
    42   125   122   ar
    43    76    79   ar
    44   114   112   ar
    45   111   112    1
    46   111   110    1
    47   128   126   ar
    48    52    47   am
    49   119   120    1
    50   109   108    2
    51   122   120   ar
    52   122   124   ar
    53   108   107    1
    54    48    47    2
    55    82    81   ar
    56   112   113   ar
    57   120   121   ar
    58    79    81   ar
    59    47    46    1
    60   110   107    1
    61   126   124   ar
    62   146   144   ar
    63   124   123   ar
    64   138   139    1
    65   107   106    1
    66    43    41   ar
    67    43    44   ar
    68   121   123   ar
    69   144   143    1
    70   144   145   ar
    71   143   142    1
    72    51    49    1
    73   106   101   am
    74    41    38   ar
    75   103   104    1
    76   103   100    1
    77   104   105    1
    78    50    49    1
    79    46    49    1
    80    46    45    1
    81    44    42   ar
    82   141   140    2
    83   101   102    2
    84   101   100    1
    85   139   142    1
    86   139   140    1
    87    45    33   am
    88   100    99    1
    89   140   147   am
    90    38    40   ar
    91    38    36   ar
    92    42    40   ar
    93    35    36    1
    94    35    32    1
    95   105    99    1
    96    40    39   ar
    97    33    34    2
    98    33    32    1
    99    36    37   ar
   100    99    93   am
   101    32    31    1
   102   147   148    1
   103   150   149    2
   104   149   148    1
   105    39    37   ar
   106    93    94    2
   107    93    92    1
   108   148   151    1
   109    95    92    1
   110    95    96    1
   111    97    96    1
   112    98    96    1
   113    31    26   am
   114    92    91    1
   115   153   152   ar
   116    27    26    2
   117   151   152    1
   118    26    25    1
   119   152   154   ar
   120    20    21    1
   121    20    19    1
   122    23    21   am
   123    30    28    1
   124    21    22    2
   125    25    28    1
   126    25    24    1
   127    18    17    2
   128    19    16    1
   129    28    29    1
   130    24    17   am
   131    17    16    1
   132    16    15    1
   133    15     9   am
   134    83    84    1
   135     9    10    2
   136     9     8    1
   137    11     8    1
   138    11    12    1
   139    89    88   ar
   140     8     7    1
   141    84    85    1
   142    84    87    1
   143    12    14   ar
   144    12    13   ar
   145    85    86    2
   146    88    87    1
   147    88    90   ar
   148     7     3   am
   149     4     3    2
   150     3     2    1
   151     6     5    1
   152     2     5    1
   153     2     1    1
