@<TRIPOS>MOLECULE
tmp/5sw1A00.pdb
 96 95 0 0 0
SMALL
GASTEIGER

@<TRIPOS>ATOM
      1  N         29.2050   -0.7010   -6.7020 N.3     8  ARG8       -0.1231
      2  CA        30.5870   -0.7970   -7.1510 C.3     8  ARG8        0.1694
      3  C         30.6910   -0.9580   -8.6700 C.2     8  ARG8        0.2592
      4  O         31.7820   -1.1830   -9.1940 O.2     8  ARG8       -0.2718
      5  CB        31.3000   -1.9510   -6.4520 C.3     8  ARG8        0.0321
      6  CG        31.3570   -1.8230   -4.9510 C.3     8  ARG8        0.0489
      7  CD        32.1770   -0.6330   -4.4990 C.3     8  ARG8        0.2205
      8  NE        32.3160   -0.6440   -3.0470 N.pl3   8  ARG8       -0.0865
      9  CZ        32.6360    0.4120   -2.3080 C.cat   8  ARG8        0.5346
     10  NH1       32.8510    1.5890   -2.8850 N.pl3   8  ARG8        0.1354
     11  NH2       32.7290    0.2900   -0.9910 N.pl3   8  ARG8        0.1354
     12  N         29.5750   -0.8320   -9.3810 N.am    9  CYS9       -0.1956
     13  CA        29.6090   -0.8830  -10.8390 C.3     9  CYS9        0.1843
     14  C         30.2520    0.3800  -11.3920 C.2     9  CYS9        0.2626
     15  O         30.3210    1.3930  -10.7040 O.2     9  CYS9       -0.2714
     16  CB        28.2060   -1.0350  -11.4150 C.3     9  CYS9        0.0997
     17  SG        27.3050   -2.4530  -10.7660 S.3     9  CYS9       -0.0797
     18  N         30.6790    0.3300  -12.6490 N.am   10  SER10      -0.1936
     19  CA        31.2630    1.5030  -13.2890 C.3    10  SER10       0.2055
     20  C         30.2140    2.5400  -13.6400 C.2    10  SER10       0.2643
     21  O         30.5490    3.7080  -13.8660 O.2    10  SER10      -0.2714
     22  CB        32.0150    1.1110  -14.5600 C.3    10  SER10       0.2130
     23  OG        31.1050    0.7690  -15.5940 O.3    10  SER10      -0.2179
     24  N         28.9590    2.0890  -13.7080 N.am   11  TYR11      -0.1973
     25  CA        27.8110    2.8840  -14.1000 C.3    11  TYR11       0.1639
     26  C         26.9320    3.1940  -12.9060 C.2    11  TYR11       0.2290
     27  O         26.9050    2.4680  -11.9120 O.2    11  TYR11      -0.2864
     28  CB        26.9880    2.1510  -15.1580 C.3    11  TYR11       0.0560
     29  CG        26.7140    0.6830  -14.8760 C.ar   11  TYR11      -0.0198
     30  CD1       25.5860    0.2820  -14.1620 C.ar   11  TYR11      -0.0009
     31  CD2       27.5760   -0.3040  -15.3330 C.ar   11  TYR11      -0.0009
     32  CE1       25.3280   -1.0560  -13.9250 C.ar   11  TYR11       0.0417
     33  CE2       27.3260   -1.6480  -15.0990 C.ar   11  TYR11       0.0417
     34  CZ        26.1980   -2.0170  -14.3970 C.ar   11  TYR11       0.1957
     35  OH        25.9090   -3.3460  -14.1690 O.3    11  TYR11      -0.2866
     36  N         17.8200  -11.1090  -14.9830 N.3   108  PHE108     -0.1227
     37  CA        19.0740  -10.6340  -14.4410 C.3   108  PHE108      0.1736
     38  C         19.4690   -9.3610  -15.1590 C.2   108  PHE108      0.2595
     39  O         19.4110   -9.3060  -16.3900 O.2   108  PHE108     -0.2718
     40  CB        20.1570  -11.7090  -14.6130 C.3   108  PHE108      0.0547
     41  CG        21.5300  -11.2940  -14.1440 C.ar  108  PHE108     -0.0202
     42  CD1       22.3800  -10.5630  -14.9690 C.ar  108  PHE108     -0.0042
     43  CD2       21.9760  -11.6570  -12.8810 C.ar  108  PHE108     -0.0042
     44  CE1       23.6460  -10.1980  -14.5450 C.ar  108  PHE108     -0.0003
     45  CE2       23.2400  -11.2930  -12.4520 C.ar  108  PHE108     -0.0003
     46  CZ        24.0780  -10.5650  -13.2870 C.ar  108  PHE108     -0.0000
     47  N         19.8950   -8.3500  -14.4060 N.am  109  ASN109     -0.1974
     48  CA        20.4490   -7.1630  -15.0420 C.3   109  ASN109      0.1688
     49  C         21.8430   -6.8130  -14.5120 C.2   109  ASN109      0.2292
     50  O         22.7670   -6.6100  -15.3050 O.2   109  ASN109     -0.2864
     51  CB        19.4720   -5.9570  -14.9700 C.3   109  ASN109      0.1181
     52  CG        19.1470   -5.4660  -13.5550 C.2   109  ASN109      0.2629
     53  OD1       19.2880   -6.1780  -12.5620 O.2   109  ASN109     -0.2716
     54  ND2       18.6570   -4.2300  -13.4820 N.am  109  ASN109     -0.0877
     55  N         25.0050   -7.7120  -11.5540 N.3   111  PRO111     -0.2116
     56  CA        25.5120   -8.6960  -10.5910 C.3   111  PRO111      0.1372
     57  C         25.3660   -8.1870   -9.1610 C.2   111  PRO111      0.2244
     58  O         25.5110   -6.9890   -8.8980 O.2   111  PRO111     -0.2868
     59  CB        26.9800   -8.8560  -10.9900 C.3   111  PRO111      0.0268
     60  CG        27.3220   -7.5980  -11.6830 C.3   111  PRO111      0.0207
     61  CD        26.0790   -7.1870  -12.4200 C.3   111  PRO111      0.0892
     62  N         28.6600  -13.9650  -15.6580 N.3   129  ASP129     -0.1239
     63  CA        28.4150  -13.1410  -16.8400 C.3   129  ASP129      0.1674
     64  C         27.1940  -13.6130  -17.6210 C.2   129  ASP129      0.2266
     65  O         27.2720  -14.0970  -18.7570 O.2   129  ASP129     -0.2867
     66  CB        29.6250  -13.1050  -17.7520 C.3   129  ASP129      0.1410
     67  CG        29.4190  -12.1780  -18.9220 C.2   129  ASP129      0.3668
     68  OD1       28.5740  -11.2580  -18.8210 O.co2 129  ASP129     -0.2456
     69  OD2       30.0740  -12.3870  -19.9540 O.co2 129  ASP129     -0.2456
     70  N         24.6520  -11.7290  -18.7930 N.3   131  VAL131     -0.1245
     71  CA        24.2460  -10.9600  -19.9630 C.3   131  VAL131      0.1561
     72  C         25.0600  -11.3780  -21.2010 C.2   131  VAL131      0.2260
     73  O         24.5000  -11.5180  -22.2850 O.2   131  VAL131     -0.2867
     74  CB        24.3510   -9.4410  -19.7020 C.3   131  VAL131      0.0252
     75  CG1       23.9850   -8.6600  -20.9510 C.3   131  VAL131      0.0019
     76  CG2       23.4210   -9.0540  -18.5580 C.3   131  VAL131      0.0019
     77  N         27.7990   -5.2410   -8.4010 N.3   204  CYS204     -0.1221
     78  CA        29.1280   -5.4820   -8.9780 C.3   204  CYS204      0.1794
     79  C         30.1760   -5.8200   -7.9050 C.2   204  CYS204      0.2443
     80  O         31.2160   -5.1730   -7.7910 O.2   204  CYS204     -0.2733
     81  CB        29.5770   -4.2880   -9.8340 C.3   204  CYS204      0.0970
     82  SG        28.5070   -4.0450  -11.2850 S.3   204  CYS204     -0.0800
     83  N         29.9170   -6.8820   -7.1300 N.am  205  PRO205     -0.2718
     84  CA        30.8780   -7.3060   -6.1060 C.3   205  PRO205      0.1535
     85  C         32.1950   -7.8360   -6.6820 C.2   205  PRO205      0.2599
     86  O         32.2470   -8.2480   -7.8440 O.2   205  PRO205     -0.2715
     87  CB        30.1250   -8.4160   -5.3790 C.3   205  PRO205      0.0310
     88  CG        29.2460   -9.0090   -6.4510 C.3   205  PRO205      0.0237
     89  CD        28.7700   -7.8070   -7.2230 C.3   205  PRO205      0.0939
     90  N         33.2300   -7.8150   -5.8420 N.am  206  THR206     -0.1951
     91  CA        34.5720   -8.3050   -6.1530 C.3   206  THR206      0.1897
     92  C         34.9710   -9.4110   -5.1650 C.2   206  THR206      0.2313
     93  O         34.6270  -10.5770   -5.3640 O.2   206  THR206     -0.2863
     94  CB        35.6060   -7.1540   -6.1230 C.3   206  THR206      0.1794
     95  OG1       35.5220   -6.4470   -4.8800 O.3   206  THR206     -0.2208
     96  CG2       35.3300   -6.1860   -7.2410 C.3   206  THR206      0.0378
@<TRIPOS>BOND
     1    73    72    2
     2    72    71    1
     3    75    74    1
     4    71    74    1
     5    71    70    1
     6    69    67   ar
     7    74    76    1
     8    67    68   ar
     9    67    66    1
    10    65    64    2
    11    66    63    1
    12    64    63    1
    13    63    62    1
    14    39    38    2
    15    23    22    1
    16    31    33   ar
    17    31    29   ar
    18    50    49    2
    19    38    37    1
    20    38    47   am
    21    28    29    1
    22    28    25    1
    23    33    34   ar
    24    48    51    1
    25    48    49    1
    26    48    47    1
    27    36    37    1
    28    51    52    1
    29    42    44   ar
    30    42    41   ar
    31    29    30   ar
    32    40    37    1
    33    40    41    1
    34    22    19    1
    35    44    46   ar
    36    34    35    1
    37    34    32   ar
    38    30    32   ar
    39    41    43   ar
    40    25    24    1
    41    25    26    1
    42    21    20    2
    43    24    20   am
    44    20    19    1
    45    52    54   am
    46    52    53    2
    47    19    18    1
    48    46    45   ar
    49    26    27    2
    50    43    45   ar
    51    18    14   am
    52    61    60    1
    53    61    55    1
    54    60    59    1
    55    55    56    1
    56    16    13    1
    57    16    17    1
    58    14    13    1
    59    14    15    2
    60    82    17    1
    61    82    81    1
    62    59    56    1
    63    13    12    1
    64    56    57    1
    65    81    78    1
    66    12     3   am
    67     4     3    2
    68    57    58    2
    69    78    77    1
    70    78    79    1
    71     3     2    1
    72    79    80    2
    73    79    83   am
    74    86    85    2
    75    96    94    1
    76    89    83    1
    77    89    88    1
    78     2     1    1
    79     2     5    1
    80    83    84    1
    81    85    84    1
    82    85    90   am
    83     5     6    1
    84    88    87    1
    85    91    94    1
    86    91    90    1
    87    91    92    1
    88    94    95    1
    89    84    87    1
    90    93    92    2
    91     6     7    1
    92     7     8    1
    93     8     9    2
    94    10     9    1
    95     9    11    1
