@<TRIPOS>MOLECULE
tmp/5sw3A00.pdb
 100 93 0 0 0
SMALL
GASTEIGER

@<TRIPOS>ATOM
      1  N          9.5450   25.9850   94.5460 N.3    96  TYR96      -0.1227
      2  CA        10.1480   26.6540   93.4000 C.3    96  TYR96       0.1736
      3  C          9.0870   27.3390   92.5500 C.2    96  TYR96       0.2595
      4  O          9.2310   28.5060   92.1810 O.2    96  TYR96      -0.2718
      5  CB        10.9130   25.6280   92.5650 C.3    96  TYR96       0.0548
      6  CG        11.4690   26.1740   91.2750 C.ar   96  TYR96      -0.0200
      7  CD1       12.7220   26.7640   91.2320 C.ar   96  TYR96      -0.0009
      8  CD2       10.7520   26.0800   90.0940 C.ar   96  TYR96      -0.0009
      9  CE1       13.2360   27.2500   90.0590 C.ar   96  TYR96       0.0417
     10  CE2       11.2600   26.5720   88.9170 C.ar   96  TYR96       0.0417
     11  CZ        12.5030   27.1570   88.9050 C.ar   96  TYR96       0.1957
     12  OH        13.0240   27.6540   87.7290 O.3    96  TYR96      -0.2866
     13  N          8.0060   26.6260   92.2490 N.am   97  GLN97      -0.1979
     14  CA         6.9890   27.1500   91.3440 C.3    97  GLN97       0.1601
     15  C          6.3290   28.3960   91.9070 C.2    97  GLN97       0.2287
     16  O          5.9950   29.3200   91.1590 O.2    97  GLN97      -0.2864
     17  CB         5.9310   26.0740   91.0870 C.3    97  GLN97       0.0394
     18  CG         6.4740   24.7600   90.5490 C.3    97  GLN97       0.0908
     19  CD         6.9230   24.8740   89.1160 C.2    97  GLN97       0.2608
     20  OE1        6.2920   25.5670   88.3170 O.2    97  GLN97      -0.2717
     21  NE2        8.0120   24.1840   88.7720 N.am   97  GLN97      -0.0878
     22  N         10.4450   23.4260   99.8820 N.3   143  ASP143     -0.1239
     23  CA        11.7610   24.0250  100.0020 C.3   143  ASP143      0.1674
     24  C         11.7330   25.4720   99.5400 C.2   143  ASP143      0.2266
     25  O         10.6940   26.0260   99.1590 O.2   143  ASP143     -0.2867
     26  CB        12.8070   23.2390   99.2030 C.3   143  ASP143      0.1410
     27  CG        12.6460   23.3950   97.7150 C.2   143  ASP143      0.3668
     28  OD1       11.5090   23.6450   97.2510 O.co2 143  ASP143     -0.2456
     29  OD2       13.6780   23.2730   97.0160 O.co2 143  ASP143     -0.2456
     30  N         14.1610   27.5140   96.8120 N.3   145  CYS145     -0.1235
     31  CA        15.2480   27.4760   95.8470 C.3   145  CYS145      0.1677
     32  C         15.9860   28.8010   95.9290 C.2   145  CYS145      0.2270
     33  O         15.4370   29.8490   95.5780 O.2   145  CYS145     -0.2867
     34  CB        14.6970   27.2560   94.4450 C.3   145  CYS145      0.0956
     35  SG        15.9710   27.1930   93.1880 S.3   145  CYS145     -0.0801
     36  N         15.2450   17.9530   99.7190 N.3   188  ILE188     -0.1245
     37  CA        15.9280   18.7580   98.7020 C.3   188  ILE188      0.1561
     38  C         17.1170   19.4670   99.3390 C.2   188  ILE188      0.2260
     39  O         16.9480   20.3210  100.2160 O.2   188  ILE188     -0.2867
     40  CB        14.9880   19.7710   98.0220 C.3   188  ILE188      0.0252
     41  CG1       13.7700   19.0570   97.4280 C.3   188  ILE188      0.0019
     42  CG2       15.7470   20.5050   96.9060 C.3   188  ILE188      0.0019
     43  CD1       12.6360   19.9870   96.9810 C.3   188  ILE188      0.0001
     44  N         20.0240   22.1730   99.4830 N.3   190  GLN190     -0.1245
     45  CA        20.3090   23.5120   98.9860 C.3   190  GLN190      0.1566
     46  C         21.7350   23.8940   99.3730 C.2   190  GLN190      0.2260
     47  O         22.5430   23.0210   99.7050 O.2   190  GLN190     -0.2867
     48  CB        19.2520   24.4850   99.5030 C.3   190  GLN190      0.0367
     49  CG        17.8400   24.1490   99.0350 C.3   190  GLN190      0.0905
     50  CD        17.5750   24.5060   97.5670 C.2   190  GLN190      0.2608
     51  OE1       18.3100   25.2790   96.9400 O.2   190  GLN190     -0.2717
     52  NE2       16.5170   23.9270   97.0090 N.am  190  GLN190     -0.0878
     53  N         18.8940   20.3520   94.9080 N.3   216  GLY216     -0.1210
     54  CA        18.1210   21.5110   94.5220 C.3   216  GLY216      0.1956
     55  C         18.9920   22.6880   94.1830 C.2   216  GLY216      0.2612
     56  O         20.2160   22.6510   94.2930 O.2   216  GLY216     -0.2717
     57  N         18.3370   23.7640   93.7630 N.am  217  GLY217     -0.1942
     58  CA        19.0250   25.0150   93.5330 C.3   217  GLY217      0.2014
     59  C         19.8720   25.0640   92.2860 C.2   217  GLY217      0.2639
     60  O         20.6930   25.9730   92.1580 O.2   217  GLY217     -0.2714
     61  N         19.7070   24.1170   91.3660 N.am  218  LEU218     -0.1963
     62  CA        20.4290   24.1010   90.1040 C.3   218  LEU218      0.1728
     63  C         19.4480   24.2550   88.9480 C.2   218  LEU218      0.2616
     64  O         18.2240   24.2630   89.1280 O.2   218  LEU218     -0.2715
     65  CB        21.2440   22.8090   89.9420 C.3   218  LEU218      0.0311
     66  CG        22.3230   22.5720   91.0040 C.3   218  LEU218      0.0022
     67  CD1       22.9540   21.1880   90.8640 C.3   218  LEU218      0.0001
     68  CD2       23.3810   23.6630   90.9010 C.3   218  LEU218      0.0001
     69  N         20.0070   24.3700   87.7450 N.am  219  ALA219     -0.1963
     70  CA        19.2110   24.6590   86.5540 C.3   219  ALA219      0.1728
     71  C         18.4360   25.9640   86.7210 C.2   219  ALA219      0.2616
     72  O         17.2850   26.0880   86.2930 O.2   219  ALA219     -0.2715
     73  CB        18.2730   23.5020   86.2100 C.3   219  ALA219      0.0334
     74  N         19.0830   26.9580   87.3320 N.am  220  VAL220     -0.1977
     75  CA        18.4530   28.2440   87.6040 C.3   220  VAL220      0.1596
     76  C         19.2990   29.3520   86.9960 C.2   220  VAL220      0.2287
     77  O         19.3000   30.4870   87.4880 O.2   220  VAL220     -0.2864
     78  CB        18.2520   28.4450   89.1150 C.3   220  VAL220      0.0276
     79  CG1       17.2740   27.4110   89.6450 C.3   220  VAL220      0.0022
     80  CG2       19.5750   28.3400   89.8410 C.3   220  VAL220      0.0022
     81  N         16.1130   18.1120   89.6310 N.3   247  MET247     -0.1230
     82  CA        14.8700   18.6870   89.1310 C.3   247  MET247      0.1702
     83  C         15.1370   19.6270   87.9660 C.2   247  MET247      0.2592
     84  O         16.0940   20.4070   87.9840 O.2   247  MET247     -0.2718
     85  CB        14.1880   19.4890   90.2400 C.3   247  MET247      0.0401
     86  CG        13.6840   18.6360   91.3810 C.3   247  MET247      0.0596
     87  SD        12.9450   19.6080   92.6920 S.3   247  MET247     -0.1393
     88  CE        14.4050   20.0560   93.5510 C.3   247  MET247      0.0692
     89  N         14.2710   19.5690   86.9520 N.am  248  GLY248     -0.1957
     90  CA        14.3380   20.5360   85.8720 C.3   248  GLY248      0.1869
     91  C         15.5000   20.3640   84.9220 C.2   248  GLY248      0.2309
     92  O         15.8750   21.3240   84.2420 O.2   248  GLY248     -0.2863
     93  N         13.5040   15.2330   85.7480 N.3   267  ASP267     -0.1239
     94  CA        12.3000   15.6970   85.0760 C.3   267  ASP267      0.1674
     95  C         12.6660   16.9560   84.3170 C.2   267  ASP267      0.2266
     96  O         13.5530   17.6970   84.7400 O.2   267  ASP267     -0.2867
     97  CB        11.1850   16.0380   86.0690 C.3   267  ASP267      0.1410
     98  CG        11.4430   17.3310   86.8080 C.2   267  ASP267      0.3668
     99  OD1       11.0390   18.3910   86.2960 O.co2 267  ASP267     -0.2456
    100  OD2       12.0430   17.2890   87.9040 O.co2 267  ASP267     -0.2456
@<TRIPOS>BOND
     1    92    91    2
     2    95    96    2
     3    95    94    1
     4    91    90    1
     5    94    93    1
     6    94    97    1
     7    90    89    1
     8    97    98    1
     9    73    70    1
    10    72    71    2
    11    99    98   ar
    12    70    71    1
    13    70    69    1
    14    71    74   am
    15    98   100   ar
    16    89    83   am
    17    76    77    2
    18    76    75    1
    19    74    75    1
    20    75    78    1
    21    12    11    1
    22    69    63   am
    23    83    84    2
    24    83    82    1
    25    20    19    2
    26    21    19   am
    27    11    10   ar
    28    11     9   ar
    29    10     8   ar
    30    63    64    2
    31    63    62    1
    32    78    79    1
    33    78    80    1
    34    19    18    1
    35    82    81    1
    36    82    85    1
    37    65    62    1
    38    65    66    1
    39     9     7   ar
    40     8     6   ar
    41    62    61    1
    42    85    86    1
    43    18    17    1
    44    67    66    1
    45    68    66    1
    46    17    14    1
    47    16    15    2
    48     7     6   ar
    49     6     5    1
    50    14    15    1
    51    14    13    1
    52    61    59   am
    53    86    87    1
    54    60    59    2
    55     4     3    2
    56    13     3   am
    57    59    58    1
    58     3     2    1
    59     5     2    1
    60    87    88    1
    61    35    34    1
    62     2     1    1
    63    58    57    1
    64    57    55   am
    65    55    56    2
    66    55    54    1
    67    34    31    1
    68    54    53    1
    69    33    32    2
    70    31    32    1
    71    31    30    1
    72    42    40    1
    73    51    50    2
    74    43    41    1
    75    52    50   am
    76    29    27   ar
    77    28    27   ar
    78    41    40    1
    79    50    49    1
    80    27    26    1
    81    40    37    1
    82    37    38    1
    83    37    36    1
    84    45    46    1
    85    45    44    1
    86    45    48    1
    87    49    48    1
    88    25    24    2
    89    26    23    1
    90    38    39    2
    91    46    47    2
    92    24    23    1
    93    22    23    1
