@<TRIPOS>MOLECULE
tmp/5sw4A02.pdb
 99 94 0 0 0
SMALL
GASTEIGER

@<TRIPOS>ATOM
      1  N        -22.9270  -69.2200  -19.8540 N.3    84  ALA84      -0.1231
      2  CA       -22.8680  -69.6400  -18.4290 C.3    84  ALA84       0.1694
      3  C        -23.4160  -68.5510  -17.4900 C.2    84  ALA84       0.2592
      4  O        -24.2890  -68.8870  -16.6600 O.2    84  ALA84      -0.2718
      5  CB       -21.4800  -70.0860  -18.0100 C.3    84  ALA84       0.0304
      6  N        -23.0280  -67.3030  -17.7160 N.am   85  ASP85      -0.1974
      7  CA       -23.5010  -66.2010  -16.8910 C.3    85  ASP85       0.1709
      8  C        -24.2260  -65.1050  -17.6550 C.2    85  ASP85       0.2293
      9  O        -24.7400  -64.1160  -17.0330 O.2    85  ASP85      -0.2864
     10  CB       -22.4060  -65.6600  -15.9820 C.3    85  ASP85       0.1436
     11  CG       -21.2670  -65.0490  -16.7300 C.2    85  ASP85       0.3671
     12  OD1      -21.2190  -65.0900  -18.0080 O.co2  85  ASP85      -0.2456
     13  OD2      -20.2950  -64.6880  -16.0130 O.co2  85  ASP85      -0.2456
     14  N        -34.6270  -66.4320  -11.5970 N.3   454  THR454     -0.1218
     15  CA       -33.8500  -66.8910  -12.7570 C.3   454  THR454      0.1862
     16  C        -33.3610  -65.7410  -13.6730 C.2   454  THR454      0.2287
     17  O        -32.4810  -65.9600  -14.5130 O.2   454  THR454     -0.2866
     18  CB       -34.6510  -67.8920  -13.6180 C.3   454  THR454      0.1770
     19  OG1      -35.8720  -67.2810  -13.9980 O.3   454  THR454     -0.2211
     20  CG2      -34.8850  -69.2110  -12.8400 C.3   454  THR454      0.0375
     21  N        -31.3970  -62.7090  -15.1670 N.3   456  ARG456     -0.1301
     22  CA       -30.0440  -62.1160  -15.1320 C.3   456  ARG456      0.1248
     23  C        -29.9790  -60.9790  -16.0570 C.3   456  ARG456      0.2009
     24  O        -30.3340  -61.0230  -17.2980 O.3   456  ARG456     -0.2188
     25  CB       -28.9610  -63.2350  -15.3380 C.3   456  ARG456      0.0254
     26  CG       -29.0390  -63.8270  -16.7780 C.3   456  ARG456      0.0485
     27  CD       -28.2000  -65.1250  -16.8200 C.3   456  ARG456      0.2205
     28  NE       -28.0440  -65.5420  -18.2060 N.pl3 456  ARG456     -0.0865
     29  CZ       -27.3620  -66.6300  -18.5440 C.cat 456  ARG456      0.5346
     30  NH1      -26.8470  -67.3970  -17.6400 N.pl3 456  ARG456      0.1354
     31  NH2      -27.1580  -66.9070  -19.8140 N.pl3 456  ARG456      0.1354
     32  N        -28.4350  -73.4220  -18.4040 N.3   557  VAL557     -0.1231
     33  CA       -27.5550  -72.4300  -17.8220 C.3   557  VAL557      0.1692
     34  C        -28.1810  -71.4840  -16.8440 C.2   557  VAL557      0.2592
     35  O        -27.4480  -70.8070  -16.0830 O.2   557  VAL557     -0.2718
     36  CB       -26.8830  -71.5090  -18.9030 C.3   557  VAL557      0.0266
     37  CG1      -26.0650  -72.3590  -19.7770 C.3   557  VAL557      0.0020
     38  CG2      -27.8640  -70.6940  -19.7460 C.3   557  VAL557      0.0020
     39  N        -29.5030  -71.3750  -16.8010 N.am  558  LEU558     -0.1966
     40  CA       -30.1670  -70.6090  -15.7920 C.3   558  LEU558      0.1728
     41  C        -30.3520  -71.3070  -14.4540 C.2   558  LEU558      0.2616
     42  O        -30.8660  -70.7360  -13.5120 O.2   558  LEU558     -0.2715
     43  CB       -31.4920  -70.1170  -16.2900 C.3   558  LEU558      0.0311
     44  CG       -31.4960  -69.3150  -17.5640 C.3   558  LEU558      0.0022
     45  CD1      -32.8760  -68.7610  -17.8740 C.3   558  LEU558      0.0001
     46  CD2      -30.5580  -68.1320  -17.5360 C.3   558  LEU558      0.0001
     47  N        -30.0230  -72.6090  -14.3600 N.am  559  GLU559     -0.1964
     48  CA       -30.1600  -73.2860  -13.0960 C.3   559  GLU559      0.1718
     49  C        -29.3420  -72.6850  -11.9940 C.2   559  GLU559      0.2458
     50  O        -28.1730  -72.5400  -12.1500 O.2   559  GLU559     -0.2730
     51  CB       -29.8270  -74.8220  -13.2200 C.3   559  GLU559      0.0428
     52  CG       -30.1000  -75.5460  -11.9040 C.3   559  GLU559      0.1163
     53  CD       -29.7440  -77.0750  -11.8880 C.2   559  GLU559      0.3649
     54  OE1      -29.3650  -77.6350  -12.9540 O.co2 559  GLU559     -0.2457
     55  OE2      -29.9420  -77.7120  -10.8220 O.co2 559  GLU559     -0.2457
     56  N        -29.9520  -72.3390  -10.8440 N.am  560  PRO560     -0.2716
     57  CA       -29.1740  -71.6040   -9.8310 C.3   560  PRO560      0.1536
     58  C        -28.4730  -72.6240   -8.9570 C.2   560  PRO560      0.2598
     59  O        -28.9460  -72.8790   -7.8540 O.2   560  PRO560     -0.2715
     60  CB       -30.2440  -70.8980   -9.0470 C.3   560  PRO560      0.0310
     61  CG       -31.3760  -71.8750   -9.1570 C.3   560  PRO560      0.0237
     62  CD       -31.3820  -72.3410  -10.5360 C.3   560  PRO560      0.0939
     63  N        -27.3050  -73.0530   -9.3750 N.am  561  VAL561     -0.1964
     64  CA       -26.4600  -73.8810   -8.5740 C.3   561  VAL561      0.1727
     65  C        -25.9110  -73.3140   -7.2340 C.2   561  VAL561      0.2616
     66  O        -25.5190  -74.0330   -6.3080 O.2   561  VAL561     -0.2715
     67  CB       -25.4020  -74.6310   -9.4180 C.3   561  VAL561      0.0290
     68  CG1      -26.0930  -75.3690  -10.5720 C.3   561  VAL561      0.0023
     69  CG2      -24.2320  -73.7680   -9.9000 C.3   561  VAL561      0.0023
     70  N        -25.8890  -72.0360   -7.1080 N.am  562  ALA562     -0.1977
     71  CA       -25.6330  -71.3220   -5.8550 C.3   562  ALA562      0.1597
     72  C        -26.7720  -70.2610   -5.8330 C.2   562  ALA562      0.2287
     73  O        -27.0980  -69.7140   -6.8570 O.2   562  ALA562     -0.2864
     74  CB       -24.2670  -70.6270   -5.8610 C.3   562  ALA562      0.0319
     75  N        -22.2210  -62.3460   -6.6280 N.3   583  ASP583     -0.1225
     76  CA       -22.3760  -62.6060   -8.1030 C.3   583  ASP583      0.1805
     77  C        -23.8500  -62.6940   -8.5140 C.2   583  ASP583      0.2597
     78  O        -24.2630  -62.1260   -9.4960 O.2   583  ASP583     -0.2718
     79  CB       -21.5980  -63.8750   -8.5120 C.3   583  ASP583      0.1424
     80  CG       -21.8640  -64.2870   -9.9370 C.2   583  ASP583      0.3668
     81  OD1      -21.3050  -63.5840  -10.7950 O.co2 583  ASP583     -0.2456
     82  OD2      -22.4870  -65.3700  -10.1560 O.co2 583  ASP583     -0.2456
     83  N        -24.6350  -63.4150   -7.7610 N.am  584  LYS584     -0.1979
     84  CA       -26.0940  -63.5600   -7.9710 C.3   584  LYS584      0.1596
     85  C        -26.8200  -62.1720   -7.7760 C.2   584  LYS584      0.2287
     86  O        -27.6520  -61.8180   -8.6220 O.2   584  LYS584     -0.2864
     87  CB       -26.6690  -64.5750   -6.9820 C.3   584  LYS584      0.0298
     88  CG       -28.1290  -64.8870   -7.0900 C.3   584  LYS584      0.0038
     89  CD       -28.5130  -65.3800   -8.4830 C.3   584  LYS584      0.0206
     90  CE       -29.8870  -66.1020   -8.4700 C.3   584  LYS584      0.1093
     91  NZ       -30.2810  -66.5930   -9.7970 N.3   584  LYS584     -0.1314
     92  N        -26.2350  -60.2010  -10.9430 N.3   587  LEU587     -0.1245
     93  CA       -27.1040  -60.6610  -12.0320 C.3   587  LEU587      0.1561
     94  C        -28.5310  -60.2090  -11.8650 C.2   587  LEU587      0.2260
     95  O        -29.2570  -59.9510  -12.8210 O.2   587  LEU587     -0.2867
     96  CB       -26.9440  -62.1810  -12.1460 C.3   587  LEU587      0.0270
     97  CG       -25.5500  -62.6950  -12.6110 C.3   587  LEU587      0.0019
     98  CD1      -25.6320  -64.2110  -12.5870 C.3   587  LEU587      0.0001
     99  CD2      -25.2340  -62.2180  -13.9910 C.3   587  LEU587      0.0001
@<TRIPOS>BOND
     1     1     2    1
     2    31    29    1
     3    37    36    1
     4    38    36    1
     5    36    33    1
     6    29    28    2
     7    29    30    1
     8     2     5    1
     9     2     3    1
    10    32    33    1
    11    28    27    1
    12    12    11   ar
    13    45    44    1
    14    33    34    1
    15     6     3   am
    16     6     7    1
    17     8     9    2
    18     8     7    1
    19    44    46    1
    20    44    43    1
    21     3     4    2
    22    24    23    1
    23     7    10    1
    24    34    39   am
    25    34    35    2
    26    27    26    1
    27    39    40    1
    28    26    25    1
    29    11    13   ar
    30    11    10    1
    31    43    40    1
    32    23    22    1
    33    40    41    1
    34    25    22    1
    35    21    22    1
    36    17    16    2
    37    41    47   am
    38    41    42    2
    39    47    48    1
    40    19    18    1
    41    99    97    1
    42    16    15    1
    43    18    20    1
    44    18    15    1
    45    51    48    1
    46    51    52    1
    47    48    49    1
    48    54    53   ar
    49    95    94    2
    50    15    14    1
    51    97    98    1
    52    97    96    1
    53    50    49    2
    54    96    93    1
    55    93    94    1
    56    93    92    1
    57    49    56   am
    58    52    53    1
    59    53    55   ar
    60    56    62    1
    61    56    57    1
    62    81    80   ar
    63    68    67    1
    64    62    61    1
    65    82    80   ar
    66    80    79    1
    67    69    67    1
    68    57    60    1
    69    57    58    1
    70    91    90    1
    71    78    77    2
    72    67    64    1
    73    63    58   am
    74    63    64    1
    75    61    60    1
    76    58    59    2
    77    86    85    2
    78    64    65    1
    79    77    76    1
    80    77    83   am
    81    79    76    1
    82    89    90    1
    83    89    88    1
    84    76    75    1
    85    84    85    1
    86    84    83    1
    87    84    87    1
    88    65    70   am
    89    65    66    2
    90    70    71    1
    91    88    87    1
    92    73    72    2
    93    74    71    1
    94    71    72    1
