@<TRIPOS>MOLECULE
tmp/5swbD02.pdb
 88 80 0 0 0
SMALL
GASTEIGER

@<TRIPOS>ATOM
      1  N         -0.3600  -12.3990   17.3810 N.3   119  SER119     -0.1217
      2  CA         0.1100  -12.6740   15.9860 C.3   119  SER119      0.1889
      3  C          0.9870  -11.5190   15.5450 C.2   119  SER119      0.2288
      4  O          1.0400  -10.4870   16.2290 O.2   119  SER119     -0.2866
      5  CB        -1.1390  -12.8060   15.0550 C.3   119  SER119      0.2089
      6  OG        -1.8220  -11.5900   14.9690 O.3   119  SER119     -0.2183
      7  N          2.0280   -9.4110   11.6150 N.3   121  GLN121     -0.1245
      8  CA         1.8070   -9.2530   10.1980 C.3   121  GLN121      0.1566
      9  C          3.0960   -9.6000    9.4530 C.2   121  GLN121      0.2260
     10  O          4.1700   -9.3640    9.9640 O.2   121  GLN121     -0.2867
     11  CB         1.3980   -7.8060    9.9130 C.3   121  GLN121      0.0367
     12  CG         0.0720   -7.4690   10.5790 C.3   121  GLN121      0.0905
     13  CD        -1.0300   -8.4320   10.0460 C.2   121  GLN121      0.2608
     14  OE1       -1.6220   -9.2150   10.8400 O.2   121  GLN121     -0.2717
     15  NE2       -1.2950   -8.3800    8.7450 N.am  121  GLN121     -0.0878
     16  N         -9.9090   -4.0100    0.4200 N.3   168  VAL168     -0.1245
     17  CA       -10.0980   -3.8870    1.8500 C.3   168  VAL168      0.1561
     18  C         -8.7380   -3.6750    2.5970 C.2   168  VAL168      0.2260
     19  O         -8.7100   -3.5740    3.8170 O.2   168  VAL168     -0.2867
     20  CB       -10.8300   -5.1200    2.4560 C.3   168  VAL168      0.0252
     21  CG1      -12.1490   -5.3010    1.7490 C.3   168  VAL168      0.0019
     22  CG2       -9.9440   -6.3530    2.3000 C.3   168  VAL168      0.0019
     23  N         -5.5000   -2.4720    4.5150 N.3   170  ILE170     -0.1245
     24  CA        -5.1750   -1.3460    5.3990 C.3   170  ILE170      0.1561
     25  C         -3.7300   -1.6430    5.7840 C.2   170  ILE170      0.2260
     26  O         -3.4390   -2.6940    6.3100 O.2   170  ILE170     -0.2867
     27  CB        -6.0440   -1.3830    6.6710 C.3   170  ILE170      0.0252
     28  CG1       -7.5010   -1.0150    6.3400 C.3   170  ILE170      0.0019
     29  CG2       -5.5130   -0.3940    7.7240 C.3   170  ILE170      0.0019
     30  CD1       -8.4810   -1.1310    7.5150 C.3   170  ILE170      0.0001
     31  N         -0.3040   -2.1120    7.8390 N.3   172  SER172     -0.1217
     32  CA        -0.1190   -2.5230    9.2250 C.3   172  SER172      0.1889
     33  C          1.0430   -1.7720    9.9220 C.2   172  SER172      0.2288
     34  O          1.9990   -1.3350    9.2630 O.2   172  SER172     -0.2866
     35  CB         0.2030   -4.0280    9.2670 C.3   172  SER172      0.2089
     36  OG        -0.9170   -4.7450    8.6720 O.3   172  SER172     -0.2183
     37  N         -9.9650   -0.9350   13.1850 N.3   181  ASN181     -0.1240
     38  CA        -9.1160   -0.2740   12.2060 C.3   181  ASN181      0.1653
     39  C         -9.8070    0.4190   11.0410 C.2   181  ASN181      0.2266
     40  O         -9.1370    0.9300   10.1320 O.2   181  ASN181     -0.2867
     41  CB        -7.9650   -1.2130   11.7600 C.3   181  ASN181      0.1155
     42  CG        -8.4520   -2.3290   10.8560 C.2   181  ASN181      0.2627
     43  OD1       -9.7030   -2.4770   10.6230 O.2   181  ASN181     -0.2716
     44  ND2       -7.5000   -3.1090   10.3140 N.am  181  ASN181     -0.0877
     45  N         -1.4690  -12.5080    8.2670 N.3   245  THR245     -0.1218
     46  CA        -1.4370  -12.6140    9.7030 C.3   245  THR245      0.1862
     47  C         -0.9850  -14.0150   10.0900 C.2   245  THR245      0.2287
     48  O         -1.5920  -14.9810    9.6070 O.2   245  THR245     -0.2866
     49  CB        -2.8240  -12.3280   10.3520 C.3   245  THR245      0.1770
     50  OG1       -3.2820  -10.9890   10.0040 O.3   245  THR245     -0.2211
     51  CG2       -2.7530  -12.3990   11.9050 C.3   245  THR245      0.0375
     52  N         -6.8900   -5.9650   18.1530 N.3   277  GLN277     -0.1231
     53  CA        -7.1670   -6.6060   16.8620 C.3   277  GLN277      0.1698
     54  C         -6.9710   -8.1070   16.9130 C.2   277  GLN277      0.2592
     55  O         -7.7060   -8.8180   16.2280 O.2   277  GLN277     -0.2718
     56  CB        -6.2500   -6.0740   15.7760 C.3   277  GLN277      0.0381
     57  CG        -6.7220   -4.6590   15.3780 C.3   277  GLN277      0.0905
     58  CD        -5.6500   -4.0460   14.5130 C.2   277  GLN277      0.2608
     59  OE1       -5.8020   -4.0120   13.2510 O.2   277  GLN277     -0.2717
     60  NE2       -4.4930   -3.7130   15.1330 N.am  277  GLN277     -0.0878
     61  N         -5.9430   -8.5720   17.6210 N.am  278  THR278     -0.1953
     62  CA        -5.6110  -10.0230   17.5720 C.3   278  THR278      0.1897
     63  C         -6.7340  -10.8190   18.3370 C.2   278  THR278      0.2313
     64  O         -7.0860  -11.9740   17.9480 O.2   278  THR278     -0.2863
     65  CB        -4.1960  -10.3500   18.0970 C.3   278  THR278      0.1794
     66  OG1       -4.1050  -10.0380   19.4790 O.3   278  THR278     -0.2208
     67  CG2       -3.1090   -9.6060   17.3020 C.3   278  THR278      0.0378
     68  N        -10.1660  -10.6890   15.8780 N.3   281  VAL281     -0.1245
     69  CA       -10.0610  -10.9290   14.4570 C.3   281  VAL281      0.1561
     70  C        -11.1630  -11.8480   13.9250 C.2   281  VAL281      0.2260
     71  O        -11.4030  -11.8340   12.6940 O.2   281  VAL281     -0.2867
     72  CB        -8.6210  -11.4770   14.1240 C.3   281  VAL281      0.0252
     73  CG1       -8.4450  -12.8660   14.7640 C.3   281  VAL281      0.0019
     74  CG2       -8.2500  -11.4250   12.6190 C.3   281  VAL281      0.0019
     75  N         -9.1980  -20.2380   11.1100 N.3   347  TRP347     -0.1241
     76  CA        -9.1990  -18.9460   11.8790 C.3   347  TRP347      0.1605
     77  C        -10.5960  -18.3730   12.0690 C.2   347  TRP347      0.2264
     78  O        -10.8510  -17.7390   13.0920 O.2   347  TRP347     -0.2867
     79  CB        -8.2830  -17.9240   11.1740 C.3   347  TRP347      0.0550
     80  CG        -8.8370  -17.3640    9.8760 C.ar  347  TRP347      0.0003
     81  CD1       -8.8030  -17.9260    8.6420 C.ar  347  TRP347      0.0946
     82  CD2       -9.5910  -16.1770    9.7590 C.ar  347  TRP347      0.0152
     83  NE1       -9.5170  -17.1580    7.7370 N.ar  347  TRP347     -0.2442
     84  CE2       -9.9610  -16.0420    8.3880 C.ar  347  TRP347      0.0810
     85  CE3       -9.9780  -15.1550   10.6790 C.ar  347  TRP347      0.0012
     86  CZ2      -10.7590  -14.9480    7.9260 C.ar  347  TRP347      0.0191
     87  CZ3      -10.6870  -14.0930   10.2160 C.ar  347  TRP347      0.0001
     88  CH2      -11.0940  -14.0040    8.8510 C.ar  347  TRP347      0.0015
@<TRIPOS>BOND
     1    16    17    1
     2    21    20    1
     3    17    20    1
     4    17    18    1
     5    22    20    1
     6    18    19    2
     7    23    24    1
     8    24    25    1
     9    24    27    1
    10    25    26    2
    11    28    27    1
    12    28    30    1
    13    27    29    1
    14    83    84   ar
    15    83    81   ar
    16    31    32    1
    17    86    84   ar
    18    86    88   ar
    19    45    46    1
    20    84    82   ar
    21    81    80   ar
    22    36    35    1
    23    15    13   am
    24    88    87   ar
    25    32    35    1
    26    32    33    1
    27    34    33    2
    28     9    10    2
    29     9     8    1
    30    48    47    2
    31    46    47    1
    32    46    49    1
    33    82    80   ar
    34    82    85   ar
    35    80    79    1
    36    11     8    1
    37    11    12    1
    38    50    49    1
    39    13    12    1
    40    13    14    2
    41    40    39    2
    42     8     7    1
    43    87    85   ar
    44    44    42   am
    45    49    51    1
    46    43    42    2
    47    42    41    1
    48    39    38    1
    49    75    76    1
    50    79    76    1
    51    41    38    1
    52    76    77    1
    53    77    78    2
    54    38    37    1
    55    74    72    1
    56    71    70    2
    57    59    58    2
    58    70    69    1
    59    72    69    1
    60    72    73    1
    61    69    68    1
    62    58    60   am
    63    58    57    1
    64     6     5    1
    65     5     2    1
    66    57    56    1
    67     3     2    1
    68     3     4    2
    69    56    53    1
    70     2     1    1
    71    55    54    2
    72    53    54    1
    73    53    52    1
    74    54    61   am
    75    67    65    1
    76    62    61    1
    77    62    65    1
    78    62    63    1
    79    64    63    2
    80    65    66    1
