@<TRIPOS>MOLECULE
tmp/5swbD00.pdb
 111 103 0 0 0
SMALL
GASTEIGER

@<TRIPOS>ATOM
      1  N         -7.5110  -18.9250   18.8840 N.3   115  ALA115     -0.1231
      2  CA        -6.4870  -19.1820   17.8240 C.3   115  ALA115      0.1694
      3  C         -5.3060  -18.2700   18.0160 C.2   115  ALA115      0.2592
      4  O         -4.6360  -18.3740   19.0850 O.2   115  ALA115     -0.2718
      5  CB        -7.1040  -19.0490   16.4220 C.3   115  ALA115      0.0304
      6  N         -5.0460  -17.3490   17.0950 N.am  116  ASN116     -0.1974
      7  CA        -3.8450  -16.4940   17.2200 C.3   116  ASN116      0.1688
      8  C         -4.1060  -15.3310   18.1490 C.2   116  ASN116      0.2292
      9  O         -4.2580  -14.2040   17.7200 O.2   116  ASN116     -0.2864
     10  CB        -3.3340  -16.0410   15.8550 C.3   116  ASN116      0.1181
     11  CG        -2.8940  -17.2360   15.0070 C.2   116  ASN116      0.2629
     12  OD1       -2.2660  -18.1570   15.5460 O.2   116  ASN116     -0.2716
     13  ND2       -3.2230  -17.2240   13.6980 N.am  116  ASN116     -0.0877
     14  N         -0.3600  -12.3990   17.3810 N.3   119  SER119     -0.1217
     15  CA         0.1100  -12.6740   15.9860 C.3   119  SER119      0.1889
     16  C          0.9870  -11.5190   15.5450 C.2   119  SER119      0.2288
     17  O          1.0400  -10.4870   16.2290 O.2   119  SER119     -0.2866
     18  CB        -1.1390  -12.8060   15.0550 C.3   119  SER119      0.2089
     19  OG        -1.8220  -11.5900   14.9690 O.3   119  SER119     -0.2183
     20  N         -4.1470  -18.4270   -3.2580 N.3   234  LEU234     -0.1245
     21  CA        -2.9340  -18.8410   -2.5870 C.3   234  LEU234      0.1561
     22  C         -2.1830  -19.9460   -3.3860 C.2   234  LEU234      0.2260
     23  O         -0.9770  -20.0240   -3.3150 O.2   234  LEU234     -0.2867
     24  CB        -3.2510  -19.3470   -1.1680 C.3   234  LEU234      0.0270
     25  CG        -3.4840  -18.2210   -0.1310 C.3   234  LEU234      0.0019
     26  CD1       -4.2510  -18.7810    1.0370 C.3   234  LEU234      0.0001
     27  CD2       -2.1360  -17.5760    0.2940 C.3   234  LEU234      0.0001
     28  N          0.1030  -11.3810    5.1970 N.3   244  GLU244     -0.1231
     29  CA        -0.5720  -12.3960    6.0190 C.3   244  GLU244      0.1699
     30  C         -0.3850  -12.2330    7.5120 C.2   244  GLU244      0.2592
     31  O          0.7500  -11.9590    8.0060 O.2   244  GLU244     -0.2718
     32  CB        -0.1120  -13.8270    5.6440 C.3   244  GLU244      0.0402
     33  CG        -0.5120  -14.2920    4.2500 C.3   244  GLU244      0.1161
     34  CD        -2.0300  -14.5560    4.0760 C.2   244  GLU244      0.3649
     35  OE1       -2.7180  -14.9130    5.0630 O.co2 244  GLU244     -0.2457
     36  OE2       -2.5200  -14.3170    2.9490 O.co2 244  GLU244     -0.2457
     37  N         -1.4690  -12.5080    8.2670 N.am  245  THR245     -0.1953
     38  CA        -1.4370  -12.6140    9.7030 C.3   245  THR245      0.1897
     39  C         -0.9850  -14.0150   10.0900 C.2   245  THR245      0.2313
     40  O         -1.5920  -14.9810    9.6070 O.2   245  THR245     -0.2863
     41  CB        -2.8240  -12.3280   10.3520 C.3   245  THR245      0.1794
     42  OG1       -3.2820  -10.9890   10.0040 O.3   245  THR245     -0.2208
     43  CG2       -2.7530  -12.3990   11.9050 C.3   245  THR245      0.0378
     44  N         -0.8730  -21.4490   13.6100 N.3   250  ASP250     -0.1239
     45  CA        -0.5420  -21.7560   12.2080 C.3   250  ASP250      0.1674
     46  C          0.7580  -22.5520   12.1150 C.2   250  ASP250      0.2266
     47  O          1.1510  -22.9800   11.0190 O.2   250  ASP250     -0.2867
     48  CB        -0.2850  -20.4080   11.4550 C.3   250  ASP250      0.1410
     49  CG        -1.4490  -19.4530   11.6120 C.2   250  ASP250      0.3668
     50  OD1       -2.5660  -19.9300   11.8740 O.co2 250  ASP250     -0.2456
     51  OD2       -1.2340  -18.2370   11.5130 O.co2 250  ASP250     -0.2456
     52  N          1.1210  -23.7690    7.8450 N.3   255  LEU255     -0.1231
     53  CA        -0.2700  -23.6810    7.4050 C.3   255  LEU255      0.1693
     54  C         -0.3600  -23.0130    6.0310 C.2   255  LEU255      0.2591
     55  O         -1.0500  -23.5220    5.1570 O.2   255  LEU255     -0.2718
     56  CB        -1.1190  -22.9150    8.4420 C.3   255  LEU255      0.0284
     57  CG        -2.5650  -22.7730    8.0200 C.3   255  LEU255      0.0019
     58  CD1       -3.2900  -24.0750    7.8070 C.3   255  LEU255      0.0001
     59  CD2       -3.2370  -21.9450    9.1070 C.3   255  LEU255      0.0001
     60  N          0.3180  -21.8600    5.8500 N.am  256  LEU256     -0.1980
     61  CA         0.3210  -21.2460    4.5200 C.3   256  LEU256      0.1596
     62  C          0.8810  -22.1410    3.4310 C.2   256  LEU256      0.2287
     63  O          0.3230  -22.1590    2.3210 O.2   256  LEU256     -0.2864
     64  CB         1.0990  -19.9380    4.5260 C.3   256  LEU256      0.0297
     65  CG         0.3470  -18.7320    5.1680 C.3   256  LEU256      0.0022
     66  CD1        1.2900  -17.5630    5.5290 C.3   256  LEU256      0.0001
     67  CD2       -0.7120  -18.1650    4.2220 C.3   256  LEU256      0.0001
     68  N         -1.9850  -24.7060    2.6250 N.3   259  VAL259     -0.1245
     69  CA        -3.1340  -24.1320    1.9070 C.3   259  VAL259      0.1561
     70  C         -2.7040  -23.6610    0.4860 C.2   259  VAL259      0.2260
     71  O         -3.4910  -23.8160   -0.4400 O.2   259  VAL259     -0.2867
     72  CB        -3.7610  -22.9830    2.7340 C.3   259  VAL259      0.0252
     73  CG1       -4.8830  -22.2920    1.9780 C.3   259  VAL259      0.0019
     74  CG2       -4.2500  -23.4880    4.1000 C.3   259  VAL259      0.0019
     75  N        -10.1660  -10.6890   15.8780 N.3   281  VAL281     -0.1245
     76  CA       -10.0610  -10.9290   14.4570 C.3   281  VAL281      0.1561
     77  C        -11.1630  -11.8480   13.9250 C.2   281  VAL281      0.2260
     78  O        -11.4030  -11.8340   12.6940 O.2   281  VAL281     -0.2867
     79  CB        -8.6210  -11.4770   14.1240 C.3   281  VAL281      0.0252
     80  CG1       -8.4450  -12.8660   14.7640 C.3   281  VAL281      0.0019
     81  CG2       -8.2500  -11.4250   12.6190 C.3   281  VAL281      0.0019
     82  N        -11.8450  -22.3060    6.5370 N.3   345  GLY345     -0.1210
     83  CA       -10.5700  -21.9300    7.1890 C.3   345  GLY345      0.1956
     84  C        -10.6900  -22.0070    8.7040 C.2   345  GLY345      0.2612
     85  O        -11.7230  -21.7000    9.2830 O.2   345  GLY345     -0.2717
     86  N         -9.6080  -22.4580    9.3610 N.am  346  GLY346     -0.1942
     87  CA        -9.6120  -22.6130   10.8470 C.3   346  GLY346      0.2014
     88  C         -9.8850  -21.2790   11.5770 C.2   346  GLY346      0.2638
     89  O        -10.7150  -21.2320   12.4950 O.2   346  GLY346     -0.2714
     90  N         -9.1980  -20.2380   11.1100 N.am  347  TRP347     -0.1973
     91  CA        -9.1990  -18.9460   11.8790 C.3   347  TRP347      0.1640
     92  C        -10.5960  -18.3730   12.0690 C.2   347  TRP347      0.2290
     93  O        -10.8510  -17.7390   13.0920 O.2   347  TRP347     -0.2864
     94  CB        -8.2830  -17.9240   11.1740 C.3   347  TRP347      0.0576
     95  CG        -8.8370  -17.3640    9.8760 C.ar  347  TRP347      0.0006
     96  CD1       -8.8030  -17.9260    8.6420 C.ar  347  TRP347      0.0946
     97  CD2       -9.5910  -16.1770    9.7590 C.ar  347  TRP347      0.0152
     98  NE1       -9.5170  -17.1580    7.7370 N.ar  347  TRP347     -0.2442
     99  CE2       -9.9610  -16.0420    8.3880 C.ar  347  TRP347      0.0810
    100  CE3       -9.9780  -15.1550   10.6790 C.ar  347  TRP347      0.0012
    101  CZ2      -10.7590  -14.9480    7.9260 C.ar  347  TRP347      0.0191
    102  CZ3      -10.6870  -14.0930   10.2160 C.ar  347  TRP347      0.0001
    103  CH2      -11.0940  -14.0040    8.8510 C.ar  347  TRP347      0.0015
    104  N         -8.8860  -23.3600   17.2850 N.3   352  ASN352     -0.1240
    105  CA        -7.8710  -24.0270   16.4540 C.3   352  ASN352      0.1653
    106  C         -7.1150  -25.0930   17.2610 C.2   352  ASN352      0.2266
    107  O         -6.4400  -25.9050   16.6480 O.2   352  ASN352     -0.2867
    108  CB        -6.8760  -22.9890   15.9310 C.3   352  ASN352      0.1155
    109  CG        -7.4320  -22.1580   14.8020 C.2   352  ASN352      0.2627
    110  OD1       -6.6680  -21.5570   14.0010 O.2   352  ASN352     -0.2716
    111  ND2       -8.7750  -22.0750   14.7290 N.am  352  ASN352     -0.0877
@<TRIPOS>BOND
     1    22    23    2
     2    22    21    1
     3    20    21    1
     4    21    24    1
     5    24    25    1
     6    71    70    2
     7    25    27    1
     8    25    26    1
     9    70    69    1
    10    69    68    1
    11    69    72    1
    12    73    72    1
    13    63    62    2
    14    72    74    1
    15    36    34   ar
    16    62    61    1
    17    34    33    1
    18    34    35   ar
    19    67    65    1
    20    33    32    1
    21    61    64    1
    22    61    60    1
    23    64    65    1
    24    55    54    2
    25    65    66    1
    26    28    29    1
    27    32    29    1
    28    60    54   am
    29    29    30    1
    30    54    53    1
    31    82    83    1
    32    83    84    1
    33    53    52    1
    34    53    56    1
    35    30    31    2
    36    30    37   am
    37    98    99   ar
    38    98    96   ar
    39    58    57    1
    40   101    99   ar
    41   101   103   ar
    42    57    56    1
    43    57    59    1
    44    37    38    1
    45    99    97   ar
    46    96    95   ar
    47    84    85    2
    48    84    86   am
    49   103   102   ar
    50    86    87    1
    51    40    39    2
    52    38    39    1
    53    38    41    1
    54    97    95   ar
    55    97   100   ar
    56    95    94    1
    57    42    41    1
    58   102   100   ar
    59    41    43    1
    60    87    88    1
    61    47    46    2
    62    90    88   am
    63    90    91    1
    64    94    91    1
    65    48    49    1
    66    48    45    1
    67    51    49   ar
    68    88    89    2
    69    49    50   ar
    70    91    92    1
    71    92    93    2
    72    46    45    1
    73    45    44    1
    74    81    79    1
    75    78    77    2
    76    13    11   am
    77    77    76    1
    78   110   109    2
    79    79    76    1
    80    79    80    1
    81    76    75    1
    82   111   109   am
    83   109   108    1
    84    19    18    1
    85    11    12    2
    86    11    10    1
    87    18    15    1
    88    16    15    1
    89    16    17    2
    90    10     7    1
    91   108   105    1
    92    15    14    1
    93     5     2    1
    94   105   106    1
    95   105   104    1
    96   107   106    2
    97     6     7    1
    98     6     3   am
    99     7     8    1
   100     9     8    2
   101     2     3    1
   102     2     1    1
   103     3     4    2
