@<TRIPOS>MOLECULE
tmp/5swbD05.pdb
 92 89 0 0 0
SMALL
GASTEIGER

@<TRIPOS>ATOM
      1  N          2.0280   -9.4110   11.6150 N.3   121  GLN121     -0.1245
      2  CA         1.8070   -9.2530   10.1980 C.3   121  GLN121      0.1566
      3  C          3.0960   -9.6000    9.4530 C.2   121  GLN121      0.2260
      4  O          4.1700   -9.3640    9.9640 O.2   121  GLN121     -0.2867
      5  CB         1.3980   -7.8060    9.9130 C.3   121  GLN121      0.0367
      6  CG         0.0720   -7.4690   10.5790 C.3   121  GLN121      0.0905
      7  CD        -1.0300   -8.4320   10.0460 C.2   121  GLN121      0.2608
      8  OE1       -1.6220   -9.2150   10.8400 O.2   121  GLN121     -0.2717
      9  NE2       -1.2950   -8.3800    8.7450 N.am  121  GLN121     -0.0878
     10  N          0.2280   -8.5100   -4.1160 N.3   164  ALA164     -0.1231
     11  CA        -1.2190   -8.7530   -4.2730 C.3   164  ALA164      0.1694
     12  C         -1.9540   -8.1920   -3.0550 C.2   164  ALA164      0.2592
     13  O         -1.8300   -8.7380   -1.9560 O.2   164  ALA164     -0.2718
     14  CB        -1.4790  -10.2510   -4.4130 C.3   164  ALA164      0.0304
     15  N         -2.6380   -7.0540   -3.2450 N.am  165  ILE165     -0.1966
     16  CA        -3.5000   -6.4580   -2.1920 C.3   165  ILE165      0.1727
     17  C         -4.8020   -6.0920   -2.8730 C.2   165  ILE165      0.2616
     18  O         -4.8350   -5.9970   -4.0970 O.2   165  ILE165     -0.2715
     19  CB        -2.9060   -5.2490   -1.4220 C.3   165  ILE165      0.0290
     20  CG1       -2.5440   -4.1160   -2.4060 C.3   165  ILE165      0.0022
     21  CG2       -1.6550   -5.6370   -0.6070 C.3   165  ILE165      0.0023
     22  CD1       -2.3790   -2.7460   -1.6870 C.3   165  ILE165      0.0001
     23  N         -5.8840   -5.9550   -2.0830 N.am  166  GLY166     -0.1955
     24  CA        -7.2340   -5.7740   -2.6580 C.3   166  GLY166      0.1869
     25  C         -7.8730   -4.5460   -1.9880 C.2   166  GLY166      0.2309
     26  O         -7.2010   -3.8210   -1.2130 O.2   166  GLY166     -0.2863
     27  N         -9.9090   -4.0100    0.4200 N.3   168  VAL168     -0.1231
     28  CA       -10.0980   -3.8870    1.8500 C.3   168  VAL168      0.1692
     29  C         -8.7380   -3.6750    2.5970 C.2   168  VAL168      0.2592
     30  O         -8.7100   -3.5740    3.8170 O.2   168  VAL168     -0.2718
     31  CB       -10.8300   -5.1200    2.4560 C.3   168  VAL168      0.0266
     32  CG1      -12.1490   -5.3010    1.7490 C.3   168  VAL168      0.0020
     33  CG2       -9.9440   -6.3530    2.3000 C.3   168  VAL168      0.0020
     34  N         -7.6380   -3.5890    1.8560 N.am  169  PHE169     -0.1962
     35  CA        -6.2770   -3.5650    2.4560 C.3   169  PHE169      0.1771
     36  C         -6.0620   -2.3000    3.3370 C.2   169  PHE169      0.2619
     37  O         -6.4680   -1.2620    2.9400 O.2   169  PHE169     -0.2715
     38  CB        -5.2050   -3.5700    1.3920 C.3   169  PHE169      0.0574
     39  CG        -3.7980   -3.5810    1.9560 C.ar  169  PHE169     -0.0200
     40  CD1       -3.0300   -2.4120    1.9660 C.ar  169  PHE169     -0.0042
     41  CD2       -3.2390   -4.7370    2.5140 C.ar  169  PHE169     -0.0042
     42  CE1       -1.7630   -2.4100    2.5220 C.ar  169  PHE169     -0.0003
     43  CE2       -1.9530   -4.7360    3.0100 C.ar  169  PHE169     -0.0003
     44  CZ        -1.1940   -3.5610    3.0120 C.ar  169  PHE169     -0.0000
     45  N         -5.5000   -2.4720    4.5150 N.am  170  ILE170     -0.1977
     46  CA        -5.1750   -1.3460    5.3990 C.3   170  ILE170      0.1596
     47  C         -3.7300   -1.6430    5.7840 C.2   170  ILE170      0.2287
     48  O         -3.4390   -2.6940    6.3100 O.2   170  ILE170     -0.2864
     49  CB        -6.0440   -1.3830    6.6710 C.3   170  ILE170      0.0276
     50  CG1       -7.5010   -1.0150    6.3400 C.3   170  ILE170      0.0022
     51  CG2       -5.5130   -0.3940    7.7240 C.3   170  ILE170      0.0022
     52  CD1       -8.4810   -1.1310    7.5150 C.3   170  ILE170      0.0001
     53  N         -6.6530  -13.4330   -5.4050 N.3   232  PHE232     -0.1241
     54  CA        -5.2970  -13.9460   -5.7070 C.3   232  PHE232      0.1605
     55  C         -5.1700  -15.2250   -4.9180 C.2   232  PHE232      0.2264
     56  O         -4.8520  -15.2140   -3.7200 O.2   232  PHE232     -0.2867
     57  CB        -4.1720  -12.9460   -5.3860 C.3   232  PHE232      0.0534
     58  CG        -4.1960  -11.7350   -6.2940 C.ar  232  PHE232     -0.0203
     59  CD1       -3.6650  -11.7920   -7.5690 C.ar  232  PHE232     -0.0042
     60  CD2       -4.8060  -10.5400   -5.8810 C.ar  232  PHE232     -0.0042
     61  CE1       -3.7460  -10.7150   -8.4870 C.ar  232  PHE232     -0.0003
     62  CE2       -4.8680   -9.4440   -6.7590 C.ar  232  PHE232     -0.0003
     63  CZ        -4.3470   -9.5280   -8.0790 C.ar  232  PHE232     -0.0000
     64  N          2.2000  -11.2850   -0.7110 N.3   242  ARG242     -0.1231
     65  CA         0.8890  -10.8340   -0.1420 C.3   242  ARG242      0.1694
     66  C          1.1210  -10.6240    1.3420 C.2   242  ARG242      0.2592
     67  O          2.1990  -11.0370    1.8770 O.2   242  ARG242     -0.2718
     68  CB        -0.1490  -11.9350   -0.3940 C.3   242  ARG242      0.0321
     69  CG         0.1520  -13.2070    0.4070 C.3   242  ARG242      0.0489
     70  CD        -0.7160  -14.3260   -0.2070 C.3   242  ARG242      0.2205
     71  NE        -2.0990  -14.1950    0.0720 N.pl3 242  ARG242     -0.0865
     72  CZ        -3.0800  -14.3140   -0.8470 C.cat 242  ARG242      0.5346
     73  NH1       -2.7640  -14.5880   -2.1170 N.pl3 242  ARG242      0.1354
     74  NH2       -4.3840  -14.2220   -0.5060 N.pl3 242  ARG242      0.1354
     75  N          0.1890   -9.9400    2.0400 N.am  243  GLU243     -0.1966
     76  CA         0.3750   -9.7380    3.4710 C.3   243  GLU243      0.1733
     77  C         -0.5240  -10.6750    4.2850 C.2   243  GLU243      0.2616
     78  O         -1.7350  -10.7310    4.0700 O.2   243  GLU243     -0.2715
     79  CB         0.1620   -8.2380    3.9040 C.3   243  GLU243      0.0429
     80  CG         0.3190   -8.0550    5.3990 C.3   243  GLU243      0.1163
     81  CD         0.2700   -6.6010    5.8430 C.2   243  GLU243      0.3649
     82  OE1        0.5010   -5.7380    5.0080 O.co2 243  GLU243     -0.2457
     83  OE2        0.0260   -6.4050    7.0270 O.co2 243  GLU243     -0.2457
     84  N          0.1030  -11.3810    5.1970 N.am  244  GLU244     -0.1977
     85  CA        -0.5720  -12.3960    6.0190 C.3   244  GLU244      0.1602
     86  C         -0.3850  -12.2330    7.5120 C.2   244  GLU244      0.2287
     87  O          0.7500  -11.9590    8.0060 O.2   244  GLU244     -0.2864
     88  CB        -0.1120  -13.8270    5.6440 C.3   244  GLU244      0.0415
     89  CG        -0.5120  -14.2920    4.2500 C.3   244  GLU244      0.1163
     90  CD        -2.0300  -14.5560    4.0760 C.2   244  GLU244      0.3649
     91  OE1       -2.7180  -14.9130    5.0630 O.co2 244  GLU244     -0.2457
     92  OE2       -2.5200  -14.3170    2.9490 O.co2 244  GLU244     -0.2457
@<TRIPOS>BOND
     1    61    63   ar
     2    61    59   ar
     3    63    62   ar
     4    59    58   ar
     5    62    60   ar
     6    58    60   ar
     7    58    57    1
     8    54    53    1
     9    54    57    1
    10    54    55    1
    11    55    56    2
    12    14    11    1
    13    11    10    1
    14    11    12    1
    15    18    17    2
    16    15    12   am
    17    15    16    1
    18    12    13    2
    19    17    16    1
    20    17    23   am
    21    24    23    1
    22    24    25    1
    23    20    22    1
    24    20    19    1
    25    16    19    1
    26    73    72    1
    27    25    26    2
    28    19    21    1
    29    72    74    1
    30    72    71    2
    31    64    65    1
    32    68    65    1
    33    68    69    1
    34    70    71    1
    35    70    69    1
    36    65    66    1
    37    27    28    1
    38    66    67    2
    39    66    75   am
    40    38    39    1
    41    38    35    1
    42    32    31    1
    43    28    31    1
    44    28    29    1
    45    34    35    1
    46    34    29   am
    47    39    40   ar
    48    39    41   ar
    49    40    42   ar
    50    75    76    1
    51    33    31    1
    52    35    36    1
    53    41    43   ar
    54    42    44   ar
    55    29    30    2
    56    37    36    2
    57    92    90   ar
    58    43    44   ar
    59    36    45   am
    60    76    79    1
    61    76    77    1
    62    79    80    1
    63    78    77    2
    64    90    89    1
    65    90    91   ar
    66    89    88    1
    67    77    84   am
    68    45    46    1
    69    82    81   ar
    70    84    85    1
    71    46    47    1
    72    46    49    1
    73    80    81    1
    74    88    85    1
    75    47    48    2
    76    81    83   ar
    77    85    86    1
    78    50    49    1
    79    50    52    1
    80    49    51    1
    81    86    87    2
    82     9     7   am
    83     3     4    2
    84     3     2    1
    85     5     2    1
    86     5     6    1
    87     7     6    1
    88     7     8    2
    89     2     1    1
