@<TRIPOS>MOLECULE
tmp/5swvA00.pdb
 72 68 0 0 0
SMALL
GASTEIGER

@<TRIPOS>ATOM
      1  N          5.6830   61.3940  112.4960 N.3    44  TYR44      -0.1241
      2  CA         6.2840   62.6040  113.0790 C.3    44  TYR44       0.1605
      3  C          6.3360   63.8150  112.1490 C.2    44  TYR44       0.2264
      4  O          6.4730   64.9280  112.6350 O.2    44  TYR44      -0.2867
      5  CB         7.6950   62.3260  113.6140 C.3    44  TYR44       0.0534
      6  CG         7.7100   61.7640  115.0110 C.ar   44  TYR44      -0.0201
      7  CD1        7.3650   60.4420  115.2350 C.ar   44  TYR44      -0.0009
      8  CD2        8.0730   62.5490  116.1140 C.ar   44  TYR44      -0.0009
      9  CE1        7.3810   59.8990  116.5070 C.ar   44  TYR44       0.0417
     10  CE2        8.0790   62.0190  117.3980 C.ar   44  TYR44       0.0417
     11  CZ         7.7310   60.6850  117.5870 C.ar   44  TYR44       0.1957
     12  OH         7.7240   60.0910  118.8310 O.3    44  TYR44      -0.2866
     13  N          2.7760   52.9320  119.7630 N.3    85  GLY85      -0.1225
     14  CA         3.8090   53.8510  120.2690 C.3    85  GLY85       0.1811
     15  C          4.1390   55.0740  119.4240 C.2    85  GLY85       0.2280
     16  O          4.9970   55.8630  119.7900 O.2    85  GLY85      -0.2866
     17  N          2.9380   47.1270  123.6640 N.3   141  LEU141     -0.1245
     18  CA         3.1000   48.1430  124.6910 C.3   141  LEU141      0.1561
     19  C          2.7520   47.6530  126.1080 C.2   141  LEU141      0.2260
     20  O          3.3340   48.1310  127.0640 O.2   141  LEU141     -0.2867
     21  CB         2.2930   49.4050  124.3330 C.3   141  LEU141      0.0270
     22  CG         3.1090   50.5250  123.6780 C.3   141  LEU141      0.0019
     23  CD1        3.9370   50.0200  122.4990 C.3   141  LEU141      0.0001
     24  CD2        2.1950   51.6710  123.2550 C.3   141  LEU141      0.0001
     25  N          7.6640   44.8430  125.3880 N.3   172  MET172     -0.1245
     26  CA         8.0710   45.7530  126.4440 C.3   172  MET172      0.1570
     27  C          8.6370   44.8890  127.5520 C.2   172  MET172      0.2261
     28  O          7.9900   43.9330  127.9950 O.2   172  MET172     -0.2867
     29  CB         6.8800   46.5730  126.9470 C.3   172  MET172      0.0387
     30  CG         7.1970   47.5240  128.1110 C.3   172  MET172      0.0595
     31  SD         8.2440   48.9420  127.6780 S.3   172  MET172     -0.1393
     32  CE         7.1250   49.9350  126.6890 C.3   172  MET172      0.0692
     33  N         11.5400   46.9740  123.8410 N.3   202  MET202     -0.1245
     34  CA        11.7090   48.3670  124.2060 C.3   202  MET202      0.1570
     35  C         11.6040   48.5110  125.7260 C.2   202  MET202      0.2261
     36  O         11.3230   47.5360  126.4340 O.2   202  MET202     -0.2867
     37  CB        10.7310   49.2560  123.4410 C.3   202  MET202      0.0387
     38  CG         9.2470   49.0870  123.7480 C.3   202  MET202      0.0595
     39  SD         8.1360   50.0810  122.7050 S.3   202  MET202     -0.1393
     40  CE         8.8820   49.9910  121.0870 C.3   202  MET202      0.0692
     41  N         14.2380   63.4950  119.6740 N.3   226  SER226     -0.1202
     42  CA        13.8210   62.5520  120.7230 C.3   226  SER226      0.2020
     43  C         14.1010   61.1200  120.3110 C.2   226  SER226      0.2619
     44  O         14.3490   60.8560  119.1310 O.2   226  SER226     -0.2717
     45  CB        12.3180   62.7080  121.0360 C.3   226  SER226      0.2103
     46  OG        11.5150   62.6670  119.8660 O.3   226  SER226     -0.2182
     47  N         14.0640   60.2080  121.2840 N.am  227  LYS227     -0.1965
     48  CA        14.1040   58.7810  120.9940 C.3   227  LYS227      0.1728
     49  C         12.7760   58.3810  120.4130 C.2   227  LYS227      0.2616
     50  O         11.7330   58.9140  120.8000 O.2   227  LYS227     -0.2715
     51  CB        14.3330   57.9510  122.2470 C.3   227  LYS227      0.0311
     52  CG        15.6820   58.1770  122.8960 C.3   227  LYS227      0.0038
     53  CD        15.7990   57.4290  124.2100 C.3   227  LYS227      0.0206
     54  CE        16.9960   57.9370  124.9870 C.3   227  LYS227      0.1093
     55  NZ        17.1850   57.1130  126.2060 N.3   227  LYS227     -0.1314
     56  N         12.8190   57.4360  119.4850 N.am  228  ALA228     -0.1963
     57  CA        11.6040   56.8740  118.9120 C.3   228  ALA228      0.1728
     58  C         10.8590   56.0060  119.9190 C.2   228  ALA228      0.2616
     59  O          9.6420   55.9340  119.8860 O.2   228  ALA228     -0.2715
     60  CB        11.9300   56.0680  117.6630 C.3   228  ALA228      0.0334
     61  N         11.5910   55.3260  120.7870 N.am  229  ALA229     -0.1964
     62  CA        10.9740   54.5080  121.8200 C.3   229  ALA229      0.1713
     63  C         11.8930   54.3570  123.0440 C.2   229  ALA229      0.2458
     64  O         13.1050   54.5140  122.9240 O.2   229  ALA229     -0.2730
     65  CB        10.6080   53.1500  121.2410 C.3   229  ALA229      0.0333
     66  N         11.3080   54.0550  124.2240 N.am  230  PRO230     -0.2727
     67  CA        12.1090   53.9270  125.4390 C.3   230  PRO230      0.1402
     68  C         13.1890   52.8680  125.2990 C.2   230  PRO230      0.2269
     69  O         12.9240   51.7520  124.8110 O.2   230  PRO230     -0.2865
     70  CB        11.0910   53.4940  126.5020 C.3   230  PRO230      0.0296
     71  CG         9.7680   53.8940  125.9820 C.3   230  PRO230      0.0237
     72  CD         9.8820   53.7630  124.4900 C.3   230  PRO230      0.0939
@<TRIPOS>BOND
     1     3     4    2
     2     3     2    1
     3     1     2    1
     4     2     5    1
     5     5     6    1
     6     6     7   ar
     7     6     8   ar
     8     7     9   ar
     9     8    10   ar
    10     9    11   ar
    11    10    11   ar
    12    11    12    1
    13    60    57    1
    14    57    56    1
    15    57    58    1
    16    44    43    2
    17    15    16    2
    18    15    14    1
    19    56    49   am
    20    41    42    1
    21    13    14    1
    22    46    45    1
    23    59    58    2
    24    58    61   am
    25    43    42    1
    26    43    47   am
    27    49    50    2
    28    49    48    1
    29    42    45    1
    30    61    62    1
    31    48    47    1
    32    48    51    1
    33    40    39    1
    34    65    62    1
    35    62    63    1
    36    51    52    1
    37    23    22    1
    38    39    38    1
    39    52    53    1
    40    64    63    2
    41    63    66   am
    42    24    22    1
    43    37    38    1
    44    37    34    1
    45    17    18    1
    46    22    21    1
    47    33    34    1
    48    34    35    1
    49    53    54    1
    50    66    72    1
    51    66    67    1
    52    21    18    1
    53    72    71    1
    54    18    19    1
    55    69    68    2
    56    54    55    1
    57    68    67    1
    58    25    26    1
    59    67    70    1
    60    35    36    2
    61    71    70    1
    62    19    20    2
    63    26    29    1
    64    26    27    1
    65    32    31    1
    66    29    30    1
    67    27    28    2
    68    31    30    1
