@<TRIPOS>MOLECULE
tmp/5sx5C00.pdb
 114 109 0 0 0
SMALL
GASTEIGER

@<TRIPOS>ATOM
      1  N         45.1900    9.0550   23.5110 N.3     9  SER9       -0.1202
      2  CA        44.2920   10.1800   23.2870 C.3     9  SER9        0.2020
      3  C         43.1210    9.7890   22.3950 C.2     9  SER9        0.2619
      4  O         42.0250   10.3440   22.5320 O.2     9  SER9       -0.2717
      5  CB        45.0570   11.3540   22.6790 C.3     9  SER9        0.2103
      6  OG        45.6020   11.0050   21.4200 O.3     9  SER9       -0.2182
      7  N         43.3300    8.8410   21.4860 N.am   10  SER10      -0.1951
      8  CA        42.2570    8.3540   20.6310 C.3    10  SER10       0.1924
      9  C         42.6040    6.9470   20.1760 C.2    10  SER10       0.2314
     10  O         43.7720    6.5490   20.1600 O.2    10  SER10      -0.2863
     11  CB        42.0330    9.2690   19.4240 C.3    10  SER10       0.2116
     12  OG        43.1210    9.1880   18.5220 O.3    10  SER10      -0.2180
     13  N         31.0770   10.5560   27.1980 N.3    38  GLN38      -0.1231
     14  CA        30.4730   11.6930   26.5090 C.3    38  GLN38       0.1698
     15  C         30.2400   11.2950   25.0570 C.2    38  GLN38       0.2592
     16  O         31.1770   11.2790   24.2510 O.2    38  GLN38      -0.2718
     17  CB        31.3460   12.9410   26.6080 C.3    38  GLN38       0.0381
     18  CG        30.6820   14.1770   26.0180 C.3    38  GLN38       0.0905
     19  CD        31.5110   15.4350   26.1830 C.2    38  GLN38       0.2608
     20  OE1       32.7410   15.3880   26.1820 O.2    38  GLN38      -0.2717
     21  NE2       30.8380   16.5710   26.3280 N.am   38  GLN38      -0.0878
     22  N         28.9960   10.9660   24.7310 N.am   39  LYS39      -0.1966
     23  CA        28.6150   10.7060   23.3560 C.3    39  LYS39       0.1713
     24  C         28.4410   12.0250   22.6070 C.2    39  LYS39       0.2458
     25  O         28.2280   13.0720   23.2230 O.2    39  LYS39      -0.2730
     26  CB        27.3290    9.8870   23.3180 C.3    39  LYS39       0.0311
     27  CG        27.4550    8.5330   23.9980 C.3    39  LYS39       0.0038
     28  CD        26.2080    7.6880   23.8070 C.3    39  LYS39       0.0206
     29  CE        26.3820    6.3110   24.4280 C.3    39  LYS39       0.1093
     30  NZ        25.1840    5.4490   24.2330 N.3    39  LYS39      -0.1314
     31  N         28.5590   12.0000   21.2790 N.am   40  PRO40      -0.2716
     32  CA        28.4570   13.2370   20.4910 C.3    40  PRO40       0.1536
     33  C         27.2550   14.0930   20.8670 C.2    40  PRO40       0.2599
     34  O         26.1330   13.6010   21.0030 O.2    40  PRO40      -0.2715
     35  CB        28.3420   12.7250   19.0510 C.3    40  PRO40       0.0310
     36  CG        28.9030   11.3240   19.0670 C.3    40  PRO40       0.0237
     37  CD        29.1150   10.8880   20.4890 C.3    40  PRO40       0.0939
     38  N         27.5020   15.3920   21.0370 N.am   41  GLY41      -0.1955
     39  CA        26.4480   16.3550   21.2870 C.3    41  GLY41       0.1869
     40  C         25.7280   16.2130   22.6070 C.2    41  GLY41       0.2309
     41  O         24.6750   16.8320   22.7880 O.2    41  GLY41      -0.2863
     42  N         30.6110    4.7740   20.6070 N.3    83  ILE83      -0.1231
     43  CA        31.3310    5.8970   20.0190 C.3    83  ILE83       0.1692
     44  C         31.1730    7.1030   20.9330 C.2    83  ILE83       0.2592
     45  O         30.0880    7.6900   21.0170 O.2    83  ILE83      -0.2718
     46  CB        30.8200    6.2100   18.6020 C.3    83  ILE83       0.0266
     47  CG1       30.9780    4.9850   17.7030 C.3    83  ILE83       0.0019
     48  CG2       31.5540    7.4090   18.0210 C.3    83  ILE83       0.0020
     49  CD1       30.3060    5.1210   16.3560 C.3    83  ILE83       0.0001
     50  N         32.2480    7.4770   21.6210 N.am   84  ALA84      -0.1966
     51  CA        32.1980    8.5580   22.5950 C.3    84  ALA84       0.1728
     52  C         33.6200    8.9220   22.9950 C.2    84  ALA84       0.2616
     53  O         34.5850    8.2530   22.6160 O.2    84  ALA84      -0.2715
     54  CB        31.3750    8.1650   23.8260 C.3    84  ALA84       0.0334
     55  N         33.7340   10.0000   23.7640 N.am   85  THR85      -0.1951
     56  CA        34.9770   10.3830   24.4180 C.3    85  THR85       0.1897
     57  C         34.8570   10.0530   25.8980 C.2    85  THR85       0.2313
     58  O         33.8720   10.4270   26.5430 O.2    85  THR85      -0.2863
     59  CB        35.2770   11.8710   24.2200 C.3    85  THR85       0.1794
     60  OG1       35.3940   12.1520   22.8200 O.3    85  THR85      -0.2208
     61  CG2       36.5770   12.2500   24.9110 C.3    85  THR85       0.0378
     62  N         36.3010   10.1710   29.7610 N.3    87  PHE87      -0.1241
     63  CA        37.0860   10.9960   30.6680 C.3    87  PHE87       0.1605
     64  C         37.2180   10.3130   32.0210 C.2    87  PHE87       0.2264
     65  O         36.2770    9.6670   32.4950 O.2    87  PHE87      -0.2867
     66  CB        36.4400   12.3700   30.8810 C.3    87  PHE87       0.0534
     67  CG        36.3580   13.2170   29.6460 C.ar   87  PHE87      -0.0203
     68  CD1       37.3850   14.0860   29.3160 C.ar   87  PHE87      -0.0042
     69  CD2       35.2380   13.1730   28.8330 C.ar   87  PHE87      -0.0042
     70  CE1       37.3050   14.8800   28.1850 C.ar   87  PHE87      -0.0003
     71  CE2       35.1520   13.9660   27.7030 C.ar   87  PHE87      -0.0003
     72  CZ        36.1870   14.8190   27.3780 C.ar   87  PHE87      -0.0000
     73  N         42.2680   14.4250   30.0170 N.3   100  GLY100     -0.1210
     74  CA        42.1150   14.9640   28.6770 C.3   100  GLY100      0.1956
     75  C         41.0670   14.2620   27.8380 C.2   100  GLY100      0.2612
     76  O         40.5500   14.8570   26.8880 O.2   100  GLY100     -0.2717
     77  N         40.7450   13.0220   28.1610 N.am  101  GLY101     -0.1956
     78  CA        39.7550   12.2890   27.3990 C.3   101  GLY101      0.1869
     79  C         40.3820   11.3720   26.3650 C.2   101  GLY101      0.2309
     80  O         41.4670   11.6310   25.8340 O.2   101  GLY101     -0.2863
     81  N         39.1910    9.4460   22.8210 N.3   103  LYS103     -0.1231
     82  CA        38.1770    9.2690   21.7890 C.3   103  LYS103      0.1693
     83  C         38.1850    7.8320   21.2810 C.2   103  LYS103      0.2592
     84  O         39.2290    7.3130   20.8760 O.2   103  LYS103     -0.2718
     85  CB        38.4180   10.2390   20.6330 C.3   103  LYS103      0.0285
     86  CG        38.3230   11.7030   21.0260 C.3   103  LYS103      0.0035
     87  CD        38.4780   12.6170   19.8200 C.3   103  LYS103      0.0206
     88  CE        38.2970   14.0770   20.2100 C.3   103  LYS103      0.1093
     89  NZ        38.4160   14.9890   19.0380 N.3   103  LYS103     -0.1314
     90  N         37.0180    7.1910   21.3000 N.am  104  VAL104     -0.1966
     91  CA        36.8570    5.8140   20.8420 C.3   104  VAL104      0.1727
     92  C         35.9890    5.8160   19.5920 C.2   104  VAL104      0.2616
     93  O         34.8690    6.3410   19.6050 O.2   104  VAL104     -0.2715
     94  CB        36.2400    4.9240   21.9340 C.3   104  VAL104      0.0290
     95  CG1       35.8920    3.5550   21.3680 C.3   104  VAL104      0.0023
     96  CG2       37.1950    4.7920   23.1120 C.3   104  VAL104      0.0023
     97  N         36.5010    5.2230   18.5170 N.am  105  GLU105     -0.1977
     98  CA        35.7870    5.1230   17.2540 C.3   105  GLU105      0.1602
     99  C         35.6910    3.6640   16.8230 C.2   105  GLU105      0.2287
    100  O         36.4950    2.8190   17.2250 O.2   105  GLU105     -0.2864
    101  CB        36.4710    5.9530   16.1600 C.3   105  GLU105      0.0415
    102  CG        36.3330    7.4550   16.3560 C.3   105  GLU105      0.1163
    103  CD        37.0980    8.2540   15.3190 C.2   105  GLU105      0.3649
    104  OE1       38.2250    7.8460   14.9610 O.co2 105  GLU105     -0.2457
    105  OE2       36.5690    9.2890   14.8570 O.co2 105  GLU105     -0.2457
    106  N         30.1070   13.5910   13.5080 N.3   165  GLU165     -0.1245
    107  CA        30.6570   12.5290   14.3310 C.3   165  GLU165      0.1567
    108  C         30.2710   11.1740   13.7450 C.2   165  GLU165      0.2260
    109  O         29.3260   11.0550   12.9590 O.2   165  GLU165     -0.2867
    110  CB        30.1550   12.6480   15.7700 C.3   165  GLU165      0.0388
    111  CG        30.6260   13.9000   16.4940 C.3   165  GLU165      0.1160
    112  CD        32.0810   13.8210   16.9180 C.2   165  GLU165      0.3649
    113  OE1       32.6030   12.6930   17.0540 O.co2 165  GLU165     -0.2457
    114  OE2       32.7020   14.8860   17.1160 O.co2 165  GLU165     -0.2457
@<TRIPOS>BOND
     1   109   108    2
     2   106   107    1
     3   108   107    1
     4   107   110    1
     5   105   103   ar
     6   104   103   ar
     7   103   102    1
     8   110   111    1
     9   101   102    1
    10   101    98    1
    11    49    47    1
    12   111   112    1
    13    99   100    2
    14    99    98    1
    15   112   113   ar
    16   112   114   ar
    17    98    97    1
    18    47    46    1
    19    48    46    1
    20    97    92   am
    21    12    11    1
    22    46    43    1
    23    89    88    1
    24    35    36    1
    25    35    32    1
    26    36    37    1
    27    11     8    1
    28    92    93    2
    29    92    91    1
    30    87    88    1
    31    87    86    1
    32    43    42    1
    33    43    44    1
    34    10     9    2
    35     9     8    1
    36    37    31    1
    37    32    33    1
    38    32    31    1
    39     8     7    1
    40    85    86    1
    41    85    82    1
    42    91    90    1
    43    91    94    1
    44    33    34    2
    45    33    38   am
    46    84    83    2
    47    44    45    2
    48    44    50   am
    49    38    39    1
    50    31    24   am
    51    83    90   am
    52    83    82    1
    53    39    40    1
    54    95    94    1
    55     6     5    1
    56     7     3   am
    57    50    51    1
    58    82    81    1
    59    94    96    1
    60     3     4    2
    61     3     2    1
    62    51    52    1
    63    51    54    1
    64    40    41    2
    65    24    25    2
    66    24    23    1
    67    53    52    2
    68     5     2    1
    69    60    59    1
    70    52    55   am
    71     2     1    1
    72    26    23    1
    73    26    27    1
    74    23    22    1
    75    55    56    1
    76    28    27    1
    77    28    29    1
    78    59    56    1
    79    59    61    1
    80    30    29    1
    81    16    15    2
    82    56    57    1
    83    22    15   am
    84    15    14    1
    85    80    79    2
    86    57    58    2
    87    18    19    1
    88    18    17    1
    89    20    19    2
    90    19    21   am
    91    79    78    1
    92    14    17    1
    93    14    13    1
    94    76    75    2
    95    72    71   ar
    96    72    70   ar
    97    78    77    1
    98    71    69   ar
    99    75    77   am
   100    75    74    1
   101    70    68   ar
   102    74    73    1
   103    69    67   ar
   104    68    67   ar
   105    67    66    1
   106    62    63    1
   107    63    66    1
   108    63    64    1
   109    64    65    2
