@<TRIPOS>MOLECULE
tmp/5sxmA00.pdb
 202 196 0 0 0
SMALL
GASTEIGER

@<TRIPOS>ATOM
      1  N         37.6390  -22.3220   15.7160 N.3    17  ALA17      -0.1231
      2  CA        36.3000  -22.8950   15.7640 C.3    17  ALA17       0.1694
      3  C         35.2330  -21.8080   15.7280 C.2    17  ALA17       0.2592
      4  O         35.3850  -20.7550   16.3500 O.2    17  ALA17      -0.2718
      5  CB        36.1380  -23.7500   17.0120 C.3    17  ALA17       0.0304
      6  N         34.1630  -22.0600   14.9840 N.am   18  VAL18      -0.1966
      7  CA        33.0130  -21.1700   14.9960 C.3    18  VAL18       0.1727
      8  C         32.1820  -21.5050   16.2320 C.2    18  VAL18       0.2616
      9  O         32.1320  -22.6590   16.6530 O.2    18  VAL18      -0.2715
     10  CB        32.1650  -21.3380   13.7240 C.3    18  VAL18       0.0290
     11  CG1       31.0910  -20.2680   13.6550 C.3    18  VAL18       0.0023
     12  CG2       33.0530  -21.2690   12.4870 C.3    18  VAL18       0.0023
     13  N         31.5470  -20.5000   16.8240 N.am   19  SER19      -0.1950
     14  CA        30.7710  -20.7110   18.0410 C.3    19  SER19       0.1924
     15  C         29.2760  -20.5140   17.8280 C.2    19  SER19       0.2314
     16  O         28.4620  -21.1890   18.4580 O.2    19  SER19      -0.2863
     17  CB        31.2600  -19.7870   19.1580 C.3    19  SER19       0.2116
     18  OG        31.1750  -18.4240   18.7720 O.3    19  SER19      -0.2180
     19  N         36.0470  -18.5470   17.9400 N.3    35  ALA35      -0.1245
     20  CA        37.1240  -18.5430   18.9210 C.3    35  ALA35       0.1562
     21  C         38.2990  -17.6600   18.4870 C.2    35  ALA35       0.2260
     22  O         39.1780  -17.3510   19.2930 O.2    35  ALA35      -0.2867
     23  CB        37.5960  -19.9650   19.1910 C.3    35  ALA35       0.0290
     24  N         38.2870  -15.0700   22.5950 N.3    59  GLY59      -0.1210
     25  CA        37.3080  -15.7770   21.7890 C.3    59  GLY59       0.1956
     26  C         35.8670  -15.4070   22.0910 C.2    59  GLY59       0.2612
     27  O         35.5460  -14.9710   23.1950 O.2    59  GLY59      -0.2717
     28  N         34.9970  -15.5920   21.1010 N.am   60  ILE60      -0.1965
     29  CA        33.5860  -15.2350   21.2190 C.3    60  ILE60       0.1727
     30  C         32.7000  -16.4830   21.1610 C.2    60  ILE60       0.2617
     31  O         32.9040  -17.3520   20.3160 O.2    60  ILE60      -0.2715
     32  CB        33.1790  -14.2410   20.1060 C.3    60  ILE60       0.0290
     33  CG1       34.0790  -13.0010   20.1520 C.3    60  ILE60       0.0022
     34  CG2       31.7200  -13.8360   20.2460 C.3    60  ILE60       0.0023
     35  CD1       33.8350  -12.0180   19.0250 C.3    60  ILE60       0.0001
     36  N         31.7240  -16.5660   22.0650 N.am   61  SER61      -0.1936
     37  CA        30.8590  -17.7430   22.1780 C.3    61  SER61       0.2055
     38  C         29.4650  -17.5540   21.5820 C.2    61  SER61       0.2643
     39  O         28.7590  -18.5330   21.3360 O.2    61  SER61      -0.2714
     40  CB        30.7210  -18.1780   23.6430 C.3    61  SER61       0.2130
     41  OG        31.8990  -18.8110   24.1110 O.3    61  SER61      -0.2179
     42  N         29.0620  -16.3070   21.3520 N.am   62  ASP62      -0.1971
     43  CA        27.7000  -16.0470   20.9000 C.3    62  ASP62       0.1709
     44  C         27.5390  -14.6520   20.3060 C.2    62  ASP62       0.2293
     45  O         28.2870  -13.7360   20.6380 O.2    62  ASP62      -0.2864
     46  CB        26.7230  -16.2350   22.0700 C.3    62  ASP62       0.1436
     47  CG        25.2970  -16.5070   21.6150 C.2    62  ASP62       0.3671
     48  OD1       25.0810  -16.7980   20.4170 O.co2  62  ASP62      -0.2456
     49  OD2       24.3850  -16.4430   22.4670 O.co2  62  ASP62      -0.2456
     50  N         34.9790  -14.3620   25.9010 N.3    77  ASP77      -0.1239
     51  CA        35.8190  -14.8270   26.9990 C.3    77  ASP77       0.1674
     52  C         36.5330  -13.6780   27.7100 C.2    77  ASP77       0.2266
     53  O         37.0710  -13.8650   28.8020 O.2    77  ASP77      -0.2867
     54  CB        36.8610  -15.8250   26.4890 C.3    77  ASP77       0.1410
     55  CG        36.2770  -17.1980   26.2150 C.2    77  ASP77       0.3668
     56  OD1       35.0400  -17.3500   26.2860 O.co2  77  ASP77      -0.2456
     57  OD2       37.0610  -18.1260   25.9240 O.co2  77  ASP77      -0.2456
     58  N         33.8900  -15.6160   31.7280 N.3   101  TYR101     -0.1227
     59  CA        33.4730  -15.7060   30.3280 C.3   101  TYR101      0.1736
     60  C         31.9960  -15.3760   30.1330 C.2   101  TYR101      0.2595
     61  O         31.1420  -15.9010   30.8480 O.2   101  TYR101     -0.2718
     62  CB        33.6950  -17.1250   29.8030 C.3   101  TYR101      0.0548
     63  CG        35.0970  -17.6700   29.9460 C.ar  101  TYR101     -0.0200
     64  CD1       36.2020  -16.8310   29.9360 C.ar  101  TYR101     -0.0009
     65  CD2       35.3140  -19.0360   30.0780 C.ar  101  TYR101     -0.0009
     66  CE1       37.4830  -17.3360   30.0580 C.ar  101  TYR101      0.0417
     67  CE2       36.5900  -19.5510   30.2010 C.ar  101  TYR101      0.0417
     68  CZ        37.6700  -18.6970   30.1910 C.ar  101  TYR101      0.1957
     69  OH        38.9420  -19.2060   30.3140 O.3   101  TYR101     -0.2866
     70  N         31.6870  -14.5170   29.1660 N.am  102  VAL102     -0.1966
     71  CA        30.2970  -14.3520   28.7560 C.3   102  VAL102      0.1727
     72  C         29.9990  -15.3840   27.6680 C.2   102  VAL102      0.2616
     73  O         30.7140  -15.4760   26.6670 O.2   102  VAL102     -0.2715
     74  CB        29.9890  -12.9320   28.2600 C.3   102  VAL102      0.0290
     75  CG1       28.4840  -12.7020   28.2540 C.3   102  VAL102      0.0023
     76  CG2       30.6730  -11.9040   29.1510 C.3   102  VAL102      0.0023
     77  N         28.9420  -16.1630   27.8770 N.am  103  PHE103     -0.1960
     78  CA        28.7190  -17.3760   27.1010 C.3   103  PHE103      0.1771
     79  C         27.5700  -17.2410   26.1090 C.2   103  PHE103      0.2619
     80  O         27.6050  -17.8190   25.0220 O.2   103  PHE103     -0.2715
     81  CB        28.4410  -18.5420   28.0520 C.3   103  PHE103      0.0574
     82  CG        28.5360  -19.8900   27.4040 C.ar  103  PHE103     -0.0200
     83  CD1       29.7650  -20.5030   27.2380 C.ar  103  PHE103     -0.0042
     84  CD2       27.3980  -20.5460   26.9610 C.ar  103  PHE103     -0.0042
     85  CE1       29.8600  -21.7470   26.6440 C.ar  103  PHE103     -0.0003
     86  CE2       27.4880  -21.7920   26.3650 C.ar  103  PHE103     -0.0003
     87  CZ        28.7200  -22.3920   26.2050 C.ar  103  PHE103     -0.0000
     88  N         26.5520  -16.4780   26.4870 N.am  104  CYS104     -0.1968
     89  CA        25.3420  -16.3890   25.6840 C.3   104  CYS104      0.1712
     90  C         24.7120  -15.0070   25.7990 C.2   104  CYS104      0.2296
     91  O         24.8980  -14.3160   26.7980 O.2   104  CYS104     -0.2864
     92  CB        24.3510  -17.4720   26.1170 C.3   104  CYS104      0.0983
     93  SG        24.0630  -17.5330   27.9060 S.3   104  CYS104     -0.0798
     94  N         29.9550  -17.5950   32.6610 N.3   119  PHE119     -0.1241
     95  CA        30.6360  -18.5980   33.4670 C.3   119  PHE119      0.1605
     96  C         30.6810  -18.1820   34.9370 C.2   119  PHE119      0.2264
     97  O         30.9980  -18.9950   35.8040 O.2   119  PHE119     -0.2867
     98  CB        32.0510  -18.8420   32.9380 C.3   119  PHE119      0.0534
     99  CG        32.1720  -20.0620   32.0680 C.ar  119  PHE119     -0.0203
    100  CD1       31.4450  -20.1690   30.8950 C.ar  119  PHE119     -0.0042
    101  CD2       33.0210  -21.0980   32.4200 C.ar  119  PHE119     -0.0042
    102  CE1       31.5560  -21.2890   30.0920 C.ar  119  PHE119     -0.0003
    103  CE2       33.1380  -22.2220   31.6190 C.ar  119  PHE119     -0.0003
    104  CZ        32.4040  -22.3160   30.4540 C.ar  119  PHE119     -0.0000
    105  N         26.1360  -22.8530   38.3380 N.3   142  ASP142     -0.1225
    106  CA        27.1160  -23.2930   37.3440 C.3   142  ASP142      0.1790
    107  C         27.0520  -22.3200   36.1590 C.2   142  ASP142      0.2439
    108  O         26.1440  -21.4920   36.1070 O.2   142  ASP142     -0.2733
    109  CB        26.7940  -24.7180   36.8810 C.3   142  ASP142      0.1423
    110  CG        27.5150  -25.7750   37.6920 C.2   142  ASP142      0.3668
    111  OD1       28.7320  -25.9720   37.4740 O.co2 142  ASP142     -0.2456
    112  OD2       26.8600  -26.4190   38.5360 O.co2 142  ASP142     -0.2456
    113  N         28.0130  -22.4000   35.2140 N.am  143  PRO143     -0.2729
    114  CA        27.9570  -21.5210   34.0350 C.3   143  PRO143      0.1401
    115  C         26.5930  -21.5100   33.3460 C.2   143  PRO143      0.2269
    116  O         25.9640  -22.5580   33.1960 O.2   143  PRO143     -0.2865
    117  CB        29.0040  -22.1320   33.1060 C.3   143  PRO143      0.0296
    118  CG        30.0220  -22.6810   34.0400 C.3   143  PRO143      0.0237
    119  CD        29.2660  -23.1800   35.2440 C.3   143  PRO143      0.0939
    120  N         24.2710  -21.4410   30.3190 N.3   145  SER145     -0.1217
    121  CA        24.4720  -21.9730   28.9720 C.3   145  SER145      0.1889
    122  C         23.6370  -21.2680   27.9070 C.2   145  SER145      0.2288
    123  O         24.0320  -21.2060   26.7440 O.2   145  SER145     -0.2866
    124  CB        24.1910  -23.4790   28.9520 C.3   145  SER145      0.2089
    125  OG        22.9240  -23.7770   29.5170 O.3   145  SER145     -0.2183
    126  N         24.5620  -25.7370   33.4390 N.3   161  TYR161     -0.1241
    127  CA        25.0950  -27.0600   33.7380 C.3   161  TYR161      0.1605
    128  C         24.6210  -27.5890   35.0950 C.2   161  TYR161      0.2264
    129  O         24.8290  -28.7610   35.4090 O.2   161  TYR161     -0.2867
    130  CB        26.6230  -27.0260   33.7450 C.3   161  TYR161      0.0534
    131  CG        27.2790  -26.8400   32.3980 C.ar  161  TYR161     -0.0201
    132  CD1       27.4870  -25.5710   31.8730 C.ar  161  TYR161     -0.0009
    133  CD2       27.7180  -27.9330   31.6650 C.ar  161  TYR161     -0.0009
    134  CE1       28.1000  -25.3980   30.6460 C.ar  161  TYR161      0.0417
    135  CE2       28.3310  -27.7710   30.4410 C.ar  161  TYR161      0.0417
    136  CZ        28.5200  -26.5030   29.9360 C.ar  161  TYR161      0.1957
    137  OH        29.1330  -26.3450   28.7160 O.3   161  TYR161     -0.2866
    138  N         21.2190  -25.9750   26.5500 N.3   189  PHE189     -0.1241
    139  CA        20.5580  -24.9550   25.7430 C.3   189  PHE189      0.1605
    140  C         19.0740  -24.8590   26.0610 C.2   189  PHE189      0.2264
    141  O         18.4220  -25.8590   26.3610 O.2   189  PHE189     -0.2867
    142  CB        20.7510  -25.2100   24.2420 C.3   189  PHE189      0.0534
    143  CG        20.1420  -24.1440   23.3740 C.ar  189  PHE189     -0.0203
    144  CD1       20.8080  -22.9500   23.1540 C.ar  189  PHE189     -0.0042
    145  CD2       18.8920  -24.3210   22.8050 C.ar  189  PHE189     -0.0042
    146  CE1       20.2480  -21.9600   22.3750 C.ar  189  PHE189     -0.0003
    147  CE2       18.3260  -23.3360   22.0250 C.ar  189  PHE189     -0.0003
    148  CZ        19.0050  -22.1520   21.8090 C.ar  189  PHE189     -0.0000
    149  N         28.5210  -33.1560   25.4240 N.3   229  LYS229     -0.1231
    150  CA        29.7010  -32.3620   25.7580 C.3   229  LYS229      0.1693
    151  C         29.5450  -30.8520   25.5690 C.2   229  LYS229      0.2592
    152  O         30.0540  -30.0730   26.3730 O.2   229  LYS229     -0.2718
    153  CB        30.9220  -32.8640   24.9750 C.3   229  LYS229      0.0285
    154  CG        31.2390  -34.3360   25.2010 C.3   229  LYS229      0.0035
    155  CD        32.5740  -34.7340   24.5830 C.3   229  LYS229      0.0206
    156  CE        32.5500  -34.6350   23.0670 C.3   229  LYS229      0.1093
    157  NZ        33.8170  -35.1380   22.4590 N.3   229  LYS229     -0.1314
    158  N         28.8470  -30.4380   24.5150 N.am  230  TYR230     -0.1962
    159  CA        28.8160  -29.0240   24.1430 C.3   230  TYR230      0.1771
    160  C         27.4480  -28.3680   24.2730 C.2   230  TYR230      0.2619
    161  O         26.4170  -29.0410   24.2940 O.2   230  TYR230     -0.2715
    162  CB        29.3140  -28.8450   22.7070 C.3   230  TYR230      0.0574
    163  CG        30.7410  -29.2790   22.4790 C.ar  230  TYR230     -0.0198
    164  CD1       31.7960  -28.4010   22.6890 C.ar  230  TYR230     -0.0009
    165  CD2       31.0350  -30.5630   22.0390 C.ar  230  TYR230     -0.0009
    166  CE1       33.1040  -28.7920   22.4760 C.ar  230  TYR230      0.0417
    167  CE2       32.3380  -30.9630   21.8220 C.ar  230  TYR230      0.0417
    168  CZ        33.3690  -30.0720   22.0390 C.ar  230  TYR230      0.1957
    169  OH        34.6690  -30.4650   21.8220 O.3   230  TYR230     -0.2866
    170  N         27.4490  -27.0410   24.3500 N.am  231  CYS231     -0.1968
    171  CA        26.2090  -26.2780   24.3640 C.3   231  CYS231      0.1712
    172  C         25.7950  -25.9380   22.9330 C.2   231  CYS231      0.2296
    173  O         26.1690  -24.8970   22.3880 O.2   231  CYS231     -0.2864
    174  CB        26.3580  -25.0220   25.2200 C.3   231  CYS231      0.0983
    175  SG        26.6210  -25.3880   26.9810 S.3   231  CYS231     -0.0798
    176  N         23.2160  -25.0900   19.8600 N.3   233  PHE233     -0.1241
    177  CA        21.9790  -24.3590   19.6120 C.3   233  PHE233      0.1605
    178  C         20.9010  -25.2690   19.0300 C.2   233  PHE233      0.2264
    179  O         21.2000  -26.2060   18.2890 O.2   233  PHE233     -0.2867
    180  CB        22.2260  -23.1920   18.6510 C.3   233  PHE233      0.0534
    181  CG        23.0690  -22.0860   19.2290 C.ar  233  PHE233     -0.0203
    182  CD1       24.4520  -22.1520   19.1800 C.ar  233  PHE233     -0.0042
    183  CD2       22.4770  -20.9730   19.8030 C.ar  233  PHE233     -0.0042
    184  CE1       25.2310  -21.1330   19.7010 C.ar  233  PHE233     -0.0003
    185  CE2       23.2500  -19.9440   20.3270 C.ar  233  PHE233     -0.0003
    186  CZ        24.6290  -20.0260   20.2740 C.ar  233  PHE233     -0.0000
    187  N         28.1880  -27.0610   16.2230 N.3   275  ILE275     -0.1245
    188  CA        27.9100  -26.3480   17.4590 C.3   275  ILE275      0.1561
    189  C         26.7110  -25.4310   17.2900 C.2   275  ILE275      0.2260
    190  O         25.9730  -25.1870   18.2480 O.2   275  ILE275     -0.2867
    191  CB        29.1360  -25.5280   17.9290 C.3   275  ILE275      0.0252
    192  CG1       28.9180  -24.9790   19.3420 C.3   275  ILE275      0.0019
    193  CG2       29.4490  -24.4050   16.9490 C.3   275  ILE275      0.0019
    194  CD1       28.7670  -26.0600   20.3940 C.3   275  ILE275      0.0001
    195  N         33.0150  -26.9370   14.8360 N.3   291  LEU291     -0.1245
    196  CA        34.1840  -26.6300   15.6550 C.3   291  LEU291      0.1561
    197  C         35.5350  -26.7650   14.9420 C.2   291  LEU291      0.2260
    198  O         35.6070  -26.7780   13.7100 O.2   291  LEU291     -0.2867
    199  CB        34.1650  -27.4640   16.9390 C.3   291  LEU291      0.0270
    200  CG        32.9270  -27.2380   17.8100 C.3   291  LEU291      0.0019
    201  CD1       32.9870  -28.0850   19.0690 C.3   291  LEU291      0.0001
    202  CD2       32.7750  -25.7650   18.1610 C.3   291  LEU291      0.0001
@<TRIPOS>BOND
     1    12    10    1
     2    11    10    1
     3   198   197    2
     4    10     7    1
     5   195   196    1
     6   197   196    1
     7     6     7    1
     8     6     3   am
     9     7     8    1
    10   196   199    1
    11     1     2    1
    12     3     2    1
    13     3     4    2
    14     2     5    1
    15   187   188    1
    16     8     9    2
    17     8    13   am
    18    13    14    1
    19   199   200    1
    20   193   191    1
    21   189   188    1
    22   189   190    2
    23   188   191    1
    24   200   202    1
    25   200   201    1
    26    15    14    1
    27    15    16    2
    28   191   192    1
    29    19    20    1
    30    14    17    1
    31   179   178    2
    32    21    20    1
    33    21    22    2
    34   180   181    1
    35   180   177    1
    36    18    17    1
    37    20    23    1
    38    35    33    1
    39   178   177    1
    40   182   181   ar
    41   182   184   ar
    42   181   183   ar
    43   192   194    1
    44   177   176    1
    45   184   186   ar
    46   183   185   ar
    47    32    33    1
    48    32    34    1
    49    32    29    1
    50   186   185   ar
    51    44    45    2
    52    44    43    1
    53    31    30    2
    54    48    47   ar
    55    43    42    1
    56    43    46    1
    57    28    29    1
    58    28    26   am
    59    30    29    1
    60    30    36   am
    61    39    38    2
    62    42    38   am
    63    38    37    1
    64    47    46    1
    65    47    49   ar
    66    25    26    1
    67    25    24    1
    68   148   147   ar
    69   148   146   ar
    70   167   165   ar
    71   167   168   ar
    72   169   168    1
    73   147   145   ar
    74   165   163   ar
    75   168   166   ar
    76    36    37    1
    77    26    27    2
    78    37    40    1
    79   146   144   ar
    80   173   172    2
    81   157   156    1
    82   166   164   ar
    83   163   164   ar
    84   163   162    1
    85   162   159    1
    86   145   143   ar
    87   172   171    1
    88   156   155    1
    89   144   143   ar
    90   143   142    1
    91    40    41    1
    92   159   160    1
    93   159   158    1
    94   142   139    1
    95   160   161    2
    96   160   170   am
    97   170   171    1
    98   171   174    1
    99   158   151   am
   100   155   154    1
   101   153   154    1
   102   153   150    1
   103    80    79    2
   104   174   175    1
   105   149   150    1
   106   151   150    1
   107   151   152    2
   108    89    90    1
   109    89    92    1
   110    89    88    1
   111   139   140    1
   112   139   138    1
   113    90    91    2
   114    50    51    1
   115    57    55   ar
   116   140   141    2
   117    79    88   am
   118    79    78    1
   119    92    93    1
   120    87    86   ar
   121    87    85   ar
   122    55    56   ar
   123    55    54    1
   124    86    84   ar
   125    54    51    1
   126    85    83   ar
   127    73    72    2
   128   123   122    2
   129    84    82   ar
   130    51    52    1
   131    78    77    1
   132    78    81    1
   133    83    82   ar
   134    82    81    1
   135    72    77   am
   136    72    71    1
   137    52    53    2
   138   122   121    1
   139    75    74    1
   140    74    71    1
   141    74    76    1
   142   137   136    1
   143    71    70    1
   144   124   121    1
   145   124   125    1
   146   121   120    1
   147    70    60   am
   148    62    63    1
   149    62    59    1
   150    64    63   ar
   151    64    66   ar
   152   136   135   ar
   153   136   134   ar
   154    63    65   ar
   155    66    68   ar
   156    65    67   ar
   157   102   104   ar
   158   102   100   ar
   159    60    59    1
   160    60    61    2
   161    68    67   ar
   162    68    69    1
   163    59    58    1
   164   135   133   ar
   165   104   103   ar
   166   134   132   ar
   167   100    99   ar
   168   103   101   ar
   169   133   131   ar
   170   132   131   ar
   171    99   101   ar
   172    99    98    1
   173   131   130    1
   174    94    95    1
   175    98    95    1
   176   117   114    1
   177   117   118    1
   178   116   115    2
   179   115   114    1
   180   126   127    1
   181    95    96    1
   182   127   130    1
   183   127   128    1
   184   114   113    1
   185   118   119    1
   186    96    97    2
   187   128   129    2
   188   113   119    1
   189   113   107   am
   190   108   107    2
   191   107   106    1
   192   109   106    1
   193   109   110    1
   194   106   105    1
   195   111   110   ar
   196   110   112   ar
