@<TRIPOS>MOLECULE
tmp/5sxnA01.pdb
 154 148 0 0 0
SMALL
GASTEIGER

@<TRIPOS>ATOM
      1  N         41.9950   74.2560   18.2540 N.3    17  THR17      -0.1203
      2  CA        42.5080   74.1020   16.8980 C.3    17  THR17       0.1994
      3  C         43.2450   72.7960   16.6310 C.2    17  THR17       0.2618
      4  O         43.3430   72.3850   15.4710 O.2    17  THR17      -0.2717
      5  CB        43.4350   75.2620   16.5050 C.3    17  THR17       0.1784
      6  OG1       44.5550   75.3100   17.3890 O.3    17  THR17      -0.2211
      7  CG2       42.6890   76.5880   16.5430 C.3    17  THR17       0.0376
      8  N         43.7790   72.1520   17.6690 N.am   18  GLN18      -0.1965
      9  CA        44.5030   70.8960   17.4990 C.3    18  GLN18       0.1733
     10  C         43.9920   69.9080   18.5400 C.2    18  GLN18       0.2616
     11  O         44.0930   70.1450   19.7470 O.2    18  GLN18      -0.2715
     12  CB        46.0180   71.0970   17.6340 C.3    18  GLN18       0.0408
     13  CG        46.6070   72.1540   16.7000 C.3    18  GLN18       0.0908
     14  CD        48.0910   72.3910   16.9280 C.2    18  GLN18       0.2608
     15  OE1       48.8080   71.5060   17.4170 O.2    18  GLN18      -0.2717
     16  NE2       48.5610   73.5950   16.5930 N.am   18  GLN18      -0.0878
     17  N         43.4010   68.8320   18.0440 N.am   19  TYR19      -0.1974
     18  CA        42.8920   67.7560   18.8520 C.3    19  TYR19       0.1639
     19  C         43.7770   66.5720   18.5520 C.2    19  TYR19       0.2290
     20  O         43.9490   66.2120   17.3970 O.2    19  TYR19      -0.2864
     21  CB        41.4500   67.4490   18.4910 C.3    19  TYR19       0.0560
     22  CG        40.4880   68.5340   18.8840 C.ar   19  TYR19      -0.0198
     23  CD1       40.2990   69.6450   18.0710 C.ar   19  TYR19      -0.0009
     24  CD2       39.7480   68.4470   20.0670 C.ar   19  TYR19      -0.0009
     25  CE1       39.3970   70.6310   18.4140 C.ar   19  TYR19       0.0417
     26  CE2       38.8520   69.4290   20.4190 C.ar   19  TYR19       0.0417
     27  CZ        38.6830   70.5220   19.5940 C.ar   19  TYR19       0.1957
     28  OH        37.7870   71.5010   19.9350 O.3    19  TYR19      -0.2866
     29  N         47.3730   63.7360   15.5920 N.3    35  VAL35      -0.1245
     30  CA        46.0750   64.1320   15.0890 C.3    35  VAL35       0.1561
     31  C         45.5170   62.9440   14.3430 C.2    35  VAL35       0.2260
     32  O         46.2340   62.3190   13.5300 O.2    35  VAL35      -0.2867
     33  CB        46.1990   65.3000   14.0890 C.3    35  VAL35       0.0252
     34  CG1       44.8540   65.6260   13.4450 C.3    35  VAL35       0.0019
     35  CG2       46.7570   66.5310   14.7740 C.3    35  VAL35       0.0019
     36  N         43.0870   62.0820   11.5510 N.3    37  ASP37      -0.1239
     37  CA        42.7030   62.9410   10.4430 C.3    37  ASP37       0.1674
     38  C         41.9490   62.1530    9.3760 C.2    37  ASP37       0.2266
     39  O         42.5610   61.4100    8.6070 O.2    37  ASP37      -0.2867
     40  CB        43.9670   63.5780    9.8590 C.3    37  ASP37       0.1410
     41  CG        43.7040   64.3900    8.5910 C.2    37  ASP37       0.3668
     42  OD1       42.5470   64.8000    8.3710 O.co2  37  ASP37      -0.2456
     43  OD2       44.6640   64.5990    7.8180 O.co2  37  ASP37      -0.2456
     44  N         49.9520   68.2020    2.8200 N.3    82  TYR82      -0.1241
     45  CA        48.6990   68.6610    3.4110 C.3    82  TYR82       0.1605
     46  C         48.4470   70.0890    2.9690 C.2    82  TYR82       0.2264
     47  O         49.2800   70.6870    2.2880 O.2    82  TYR82      -0.2867
     48  CB        48.7780   68.5840    4.9340 C.3    82  TYR82       0.0534
     49  CG        49.0970   67.1940    5.3990 C.ar   82  TYR82      -0.0201
     50  CD1       48.0790   66.2620    5.6040 C.ar   82  TYR82      -0.0009
     51  CD2       50.4150   66.7910    5.5920 C.ar   82  TYR82      -0.0009
     52  CE1       48.3700   64.9740    6.0180 C.ar   82  TYR82       0.0417
     53  CE2       50.7170   65.5100    6.0010 C.ar   82  TYR82       0.0417
     54  CZ        49.6920   64.6060    6.2180 C.ar   82  TYR82       0.1957
     55  OH        49.9870   63.3340    6.6150 O.3    82  TYR82      -0.2866
     56  N         48.2530   72.7980    4.7550 N.3    84  THR84      -0.1203
     57  CA        49.0440   73.7640    5.5130 C.3    84  THR84       0.1994
     58  C         50.5490   73.4670    5.5070 C.2    84  THR84       0.2618
     59  O         51.3290   74.1980    6.1030 O.2    84  THR84      -0.2717
     60  CB        48.5720   73.8190    6.9750 C.3    84  THR84       0.1784
     61  OG1       48.6560   72.5120    7.5540 O.3    84  THR84      -0.2211
     62  CG2       47.1430   74.3320    7.0560 C.3    84  THR84       0.0376
     63  N         50.9600   72.4000    4.8400 N.am   85  GLY85      -0.1956
     64  CA        52.3740   72.0740    4.7760 C.3    85  GLY85       0.1869
     65  C         52.6440   70.6750    4.3070 C.2    85  GLY85       0.2309
     66  O         51.7210   69.8790    4.0710 O.2    85  GLY85      -0.2863
     67  N         54.8020   74.9030    9.0150 N.3   117  PRO117     -0.2102
     68  CA        54.0350   75.1920   10.2240 C.3   117  PRO117      0.1504
     69  C         54.3900   74.3700   11.4800 C.2   117  PRO117      0.2575
     70  O         53.8230   74.6190   12.5490 O.2   117  PRO117     -0.2718
     71  CB        52.6280   74.7720    9.7930 C.3   117  PRO117      0.0282
     72  CG        52.8900   73.5380    8.9990 C.3   117  PRO117      0.0208
     73  CD        54.1460   73.8480    8.2190 C.3   117  PRO117      0.0893
     74  N         55.2680   73.3860   11.3670 N.am  118  PHE118     -0.1977
     75  CA        55.3230   72.3470   12.3970 C.3   118  PHE118      0.1639
     76  C         55.8900   72.7350   13.7510 C.2   118  PHE118      0.2290
     77  O         55.6210   72.0560   14.7160 O.2   118  PHE118     -0.2864
     78  CB        55.9410   71.0640   11.8560 C.3   118  PHE118      0.0560
     79  CG        55.0860   70.4230   10.8110 C.ar  118  PHE118     -0.0200
     80  CD1       53.9140   69.7770   11.1750 C.ar  118  PHE118     -0.0042
     81  CD2       55.4120   70.5130    9.4650 C.ar  118  PHE118     -0.0042
     82  CE1       53.0900   69.2130   10.2160 C.ar  118  PHE118     -0.0003
     83  CE2       54.5940   69.9450    8.5020 C.ar  118  PHE118     -0.0003
     84  CZ        53.4300   69.3050    8.8750 C.ar  118  PHE118     -0.0000
     85  N         54.5900   75.1540   15.2130 N.3   120  LEU120     -0.1231
     86  CA        53.3430   75.5330   15.8500 C.3   120  LEU120      0.1693
     87  C         52.4280   74.3420   16.1480 C.2   120  LEU120      0.2591
     88  O         51.3280   74.5390   16.6450 O.2   120  LEU120     -0.2718
     89  CB        52.6110   76.5680   14.9920 C.3   120  LEU120      0.0284
     90  CG        53.3940   77.8460   14.6890 C.3   120  LEU120      0.0019
     91  CD1       52.6260   78.7190   13.7060 C.3   120  LEU120      0.0001
     92  CD2       53.6890   78.6200   15.9710 C.3   120  LEU120      0.0001
     93  N         52.8710   73.1270   15.8440 N.am  121  ALA121     -0.1980
     94  CA        52.1110   71.9240   16.1490 C.3   121  ALA121      0.1597
     95  C         52.4500   71.4470   17.5540 C.2   121  ALA121      0.2287
     96  O         53.6240   71.2120   17.8830 O.2   121  ALA121     -0.2864
     97  CB        52.4250   70.8320   15.1440 C.3   121  ALA121      0.0319
     98  N         51.0180   68.6430   18.5060 N.3   123  PHE123     -0.1241
     99  CA        51.1530   67.2280   18.1590 C.3   123  PHE123      0.1605
    100  C         52.4930   66.9460   17.4770 C.2   123  PHE123      0.2264
    101  O         53.1560   67.8590   16.9750 O.2   123  PHE123     -0.2867
    102  CB        49.9880   66.7670   17.2700 C.3   123  PHE123      0.0534
    103  CG        49.9090   67.4760   15.9480 C.ar  123  PHE123     -0.0203
    104  CD1       50.5990   66.9880   14.8420 C.ar  123  PHE123     -0.0042
    105  CD2       49.1360   68.6380   15.7970 C.ar  123  PHE123     -0.0042
    106  CE1       50.5260   67.6350   13.6210 C.ar  123  PHE123     -0.0003
    107  CE2       49.0680   69.2960   14.5770 C.ar  123  PHE123     -0.0003
    108  CZ        49.7670   68.7870   13.4890 C.ar  123  PHE123     -0.0000
    109  N         50.6920   62.4200   12.6280 N.3   126  VAL126     -0.1245
    110  CA        49.3380   62.2820   12.1340 C.3   126  VAL126      0.1561
    111  C         49.0210   60.8120   11.9100 C.2   126  VAL126      0.2260
    112  O         49.8590   60.0460   11.4470 O.2   126  VAL126     -0.2867
    113  CB        49.1230   63.0780   10.8230 C.3   126  VAL126      0.0252
    114  CG1       47.7110   62.8600   10.2840 C.3   126  VAL126      0.0019
    115  CG2       49.3880   64.5680   11.0500 C.3   126  VAL126      0.0019
    116  N         34.7150   66.0850   19.7180 N.3   161  TYR161     -0.1241
    117  CA        35.6520   67.1600   20.0300 C.3   161  TYR161      0.1605
    118  C         34.9930   68.1170   21.0150 C.2   161  TYR161      0.2264
    119  O         33.9670   68.7230   20.6970 O.2   161  TYR161     -0.2867
    120  CB        36.0400   67.9450   18.7700 C.3   161  TYR161      0.0534
    121  CG        37.0540   67.3210   17.8310 C.ar  161  TYR161     -0.0201
    122  CD1       37.8530   66.2310   18.1990 C.ar  161  TYR161     -0.0009
    123  CD2       37.2460   67.8650   16.5690 C.ar  161  TYR161     -0.0009
    124  CE1       38.7940   65.7080   17.3270 C.ar  161  TYR161      0.0417
    125  CE2       38.1820   67.3380   15.6880 C.ar  161  TYR161      0.0417
    126  CZ        38.9560   66.2600   16.0800 C.ar  161  TYR161      0.1957
    127  OH        39.9020   65.7280   15.2370 O.3   161  TYR161     -0.2866
    128  N         38.3660   65.6200   10.2170 N.3   223  THR223     -0.1203
    129  CA        38.6810   65.6680   11.6320 C.3   223  THR223      0.1994
    130  C         40.0520   66.2940   11.9030 C.2   223  THR223      0.2618
    131  O         40.2930   66.7580   13.0080 O.2   223  THR223     -0.2717
    132  CB        38.6490   64.2630   12.2600 C.3   223  THR223      0.1784
    133  OG1       39.6020   63.4130   11.5990 O.3   223  THR223     -0.2211
    134  CG2       37.2500   63.6670   12.1760 C.3   223  THR223      0.0376
    135  N         40.9330   66.3000   10.9020 N.am  224  GLY224     -0.1942
    136  CA        42.2420   66.9530   11.0000 C.3   224  GLY224      0.2014
    137  C         42.3010   68.4130   10.5740 C.2   224  GLY224      0.2639
    138  O         43.3850   69.0070   10.5900 O.2   224  GLY224     -0.2714
    139  N         41.1620   68.9980   10.1820 N.am  225  ALA225     -0.1963
    140  CA        41.0750   70.4410    9.9050 C.3   225  ALA225      0.1728
    141  C         40.5860   71.1760   11.1580 C.2   225  ALA225      0.2616
    142  O         39.6300   70.7340   11.7970 O.2   225  ALA225     -0.2715
    143  CB        40.1190   70.6970    8.7530 C.3   225  ALA225      0.0334
    144  N         41.2590   72.2670   11.5240 N.am  226  SER226     -0.1950
    145  CA        40.8310   73.0820   12.6590 C.3   226  SER226      0.1924
    146  C         39.5020   73.7680   12.4070 C.2   226  SER226      0.2314
    147  O         38.7050   73.9270   13.3180 O.2   226  SER226     -0.2863
    148  CB        41.8670   74.1520   12.9870 C.3   226  SER226      0.2116
    149  OG        43.1370   73.5810   13.1240 O.3   226  SER226     -0.2180
    150  N         37.0600   70.9390   12.8860 N.3   313  ALA313     -0.1245
    151  CA        36.7460   70.9310   14.3160 C.3   313  ALA313      0.1562
    152  C         35.6330   71.9050   14.6850 C.2   313  ALA313      0.2260
    153  O         34.8230   71.6130   15.5640 O.2   313  ALA313     -0.2867
    154  CB        37.9920   71.1910   15.1460 C.3   313  ALA313      0.0290
@<TRIPOS>BOND
     1    47    46    2
     2    44    45    1
     3    46    45    1
     4    45    48    1
     5    66    65    2
     6    65    64    1
     7    56    57    1
     8    64    63    1
     9    63    58   am
    10    48    49    1
    11    49    51   ar
    12    49    50   ar
    13    58    57    1
    14    58    59    2
    15    57    60    1
    16    51    53   ar
    17    50    52   ar
    18    53    54   ar
    19    52    54   ar
    20    54    55    1
    21    60    62    1
    22    60    61    1
    23    43    41   ar
    24    73    72    1
    25    73    67    1
    26    42    41   ar
    27    83    84   ar
    28    83    81   ar
    29    41    40    1
    30    39    38    2
    31   143   140    1
    32    84    82   ar
    33    72    71    1
    34    67    68    1
    35    38    37    1
    36    81    79   ar
    37    71    68    1
    38    40    37    1
    39   140   139    1
    40   140   141    1
    41   139   137   am
    42    82    80   ar
    43   128   129    1
    44    68    69    1
    45   114   113    1
    46    37    36    1
    47   137   138    2
    48   137   136    1
    49    79    80   ar
    50    79    78    1
    51   113   115    1
    52   113   110    1
    53   135   136    1
    54   135   130   am
    55   141   144   am
    56   141   142    2
    57    74    69   am
    58    74    75    1
    59   112   111    2
    60    69    70    2
    61   144   145    1
    62   133   132    1
    63   129   130    1
    64   129   132    1
    65    78    75    1
    66   130   131    2
    67   111   110    1
    68   110   109    1
    69   134   132    1
    70    75    76    1
    71   146   145    1
    72   146   147    2
    73   145   148    1
    74   150   151    1
    75   148   149    1
    76    34    33    1
    77   108   106   ar
    78   108   107   ar
    79    32    31    2
    80   106   104   ar
    81    91    90    1
    82    76    77    2
    83    33    35    1
    84    33    30    1
    85   151   152    1
    86   151   154    1
    87    31    30    1
    88   107   105   ar
    89   152   153    2
    90    90    89    1
    91    90    92    1
    92   104   103   ar
    93    89    86    1
    94    30    29    1
    95    97    94    1
    96    85    86    1
    97   127   126    1
    98     4     3    2
    99   125   126   ar
   100   125   123   ar
   101   105   103   ar
   102    93    87   am
   103    93    94    1
   104    86    87    1
   105   103   102    1
   106   126   124   ar
   107    87    88    2
   108    94    95    1
   109     5     7    1
   110     5     2    1
   111     5     6    1
   112   123   121   ar
   113    16    14   am
   114     3     2    1
   115     3     8   am
   116    13    14    1
   117    13    12    1
   118     2     1    1
   119    14    15    2
   120   101   100    2
   121   102    99    1
   122   124   122   ar
   123    20    19    2
   124   100    99    1
   125     9    12    1
   126     9     8    1
   127     9    10    1
   128    95    96    2
   129   121   122   ar
   130   121   120    1
   131    17    10   am
   132    17    18    1
   133    23    25   ar
   134    23    22   ar
   135    99    98    1
   136    25    27   ar
   137    21    18    1
   138    21    22    1
   139    10    11    2
   140    19    18    1
   141   120   117    1
   142    22    24   ar
   143    27    28    1
   144    27    26   ar
   145   116   117    1
   146   117   118    1
   147    24    26   ar
   148   119   118    2
