@<TRIPOS>MOLECULE
tmp/5sxrB03.pdb
 78 76 0 0 0
SMALL
GASTEIGER

@<TRIPOS>ATOM
      1  N        -29.6080  -17.1310  -21.7020 N.3   534  VAL534     -0.1231
      2  CA       -29.4460  -17.9430  -20.5620 C.3   534  VAL534      0.1692
      3  C        -29.4630  -17.0120  -19.3440 C.2   534  VAL534      0.2593
      4  O        -28.7740  -16.0200  -19.2320 O.2   534  VAL534     -0.2718
      5  CB       -28.0850  -18.7080  -20.6760 C.3   534  VAL534      0.0266
      6  CG1      -27.8190  -19.4700  -19.3930 C.3   534  VAL534      0.0020
      7  CG2      -28.0480  -19.6320  -21.8560 C.3   534  VAL534      0.0020
      8  N        -30.2380  -17.4240  -18.3800 N.am  535  THR535     -0.1939
      9  CA       -30.1870  -16.7890  -17.0320 C.3   535  THR535      0.2028
     10  C        -29.4550  -17.7620  -16.0790 C.2   535  THR535      0.2642
     11  O        -29.7180  -18.9480  -16.0200 O.2   535  THR535     -0.2714
     12  CB       -31.6490  -16.3830  -16.4970 C.3   535  THR535      0.1808
     13  OG1      -31.6080  -15.6810  -15.2400 O.3   535  THR535     -0.2208
     14  CG2      -32.4020  -17.5620  -16.3510 C.3   535  THR535      0.0379
     15  N        -28.4570  -17.2560  -15.3910 N.am  536  VAL536     -0.1963
     16  CA       -27.6640  -18.1150  -14.4340 C.3   536  VAL536      0.1712
     17  C        -28.1800  -17.8570  -13.0240 C.2   536  VAL536      0.2458
     18  O        -28.3700  -16.7190  -12.6110 O.2   536  VAL536     -0.2730
     19  CB       -26.1760  -17.6400  -14.5030 C.3   536  VAL536      0.0289
     20  CG1      -25.3210  -18.3590  -13.5440 C.3   536  VAL536      0.0023
     21  CG2      -25.5920  -17.8930  -15.8930 C.3   536  VAL536      0.0023
     22  N        -28.5010  -18.8850  -12.2950 N.am  537  PRO537     -0.2716
     23  CA       -29.0060  -18.7620  -10.9050 C.3   537  PRO537      0.1536
     24  C        -27.9350  -18.0320  -10.0330 C.2   537  PRO537      0.2598
     25  O        -26.7550  -18.1760  -10.3050 O.2   537  PRO537     -0.2715
     26  CB       -29.1880  -20.1920  -10.4280 C.3   537  PRO537      0.0310
     27  CG       -29.1420  -21.0430  -11.6370 C.3   537  PRO537      0.0237
     28  CD       -28.4450  -20.2760  -12.7040 C.3   537  PRO537      0.0939
     29  N        -28.4870  -17.2710   -9.0910 N.am  538  PHE538     -0.1974
     30  CA       -27.6200  -16.6020   -8.0760 C.3   538  PHE538      0.1639
     31  C        -28.3490  -16.5470   -6.7740 C.2   538  PHE538      0.2290
     32  O        -29.5270  -16.1000   -6.7610 O.2   538  PHE538     -0.2864
     33  CB       -27.2810  -15.2100   -8.5380 C.3   538  PHE538      0.0560
     34  CG       -26.6010  -14.4310   -7.5220 C.ar  538  PHE538     -0.0200
     35  CD1      -25.2890  -14.6820   -7.2030 C.ar  538  PHE538     -0.0042
     36  CD2      -27.2790  -13.4480   -6.8650 C.ar  538  PHE538     -0.0042
     37  CE1      -24.6380  -13.9340   -6.1760 C.ar  538  PHE538     -0.0003
     38  CE2      -26.6420  -12.7370   -5.8560 C.ar  538  PHE538     -0.0003
     39  CZ       -25.3770  -13.0350   -5.4970 C.ar  538  PHE538     -0.0000
     40  N        -26.5320  -25.8250  -20.7790 N.3   694  ARG694     -0.1231
     41  CA       -27.3440  -26.0150  -19.5800 C.3   694  ARG694      0.1694
     42  C        -26.5900  -26.7380  -18.5180 C.2   694  ARG694      0.2592
     43  O        -26.6360  -26.4070  -17.3360 O.2   694  ARG694     -0.2718
     44  CB       -28.7000  -26.6680  -19.9320 C.3   694  ARG694      0.0321
     45  CG       -29.5330  -25.6570  -20.8190 C.3   694  ARG694      0.0489
     46  CD       -29.9020  -24.2610  -20.1750 C.3   694  ARG694      0.2205
     47  NE       -30.3810  -23.4090  -21.2720 N.pl3 694  ARG694     -0.0865
     48  CZ       -30.9340  -22.2250  -21.0220 C.cat 694  ARG694      0.5346
     49  NH1      -31.0750  -21.8230  -19.7610 N.pl3 694  ARG694      0.1354
     50  NH2      -31.2570  -21.4320  -22.0820 N.pl3 694  ARG694      0.1354
     51  N        -25.8540  -27.7900  -18.8880 N.am  695  ASP695     -0.1974
     52  CA       -25.0550  -28.4640  -17.9680 C.3   695  ASP695      0.1709
     53  C        -23.9190  -27.6300  -17.3450 C.2   695  ASP695      0.2293
     54  O        -23.5760  -27.8090  -16.1470 O.2   695  ASP695     -0.2864
     55  CB       -24.5040  -29.7980  -18.5290 C.3   695  ASP695      0.1436
     56  CG       -25.5760  -30.8900  -18.7520 C.2   695  ASP695      0.3671
     57  OD1      -26.7800  -30.6820  -18.4220 O.co2 695  ASP695     -0.2456
     58  OD2      -25.2100  -31.9630  -19.3620 O.co2 695  ASP695     -0.2456
     59  N        -24.0160  -24.3380  -17.0050 N.3   697  VAL697     -0.1231
     60  CA       -24.6460  -23.4500  -16.0430 C.3   697  VAL697      0.1692
     61  C        -24.8940  -24.1690  -14.7040 C.2   697  VAL697      0.2591
     62  O        -24.6610  -23.5720  -13.6380 O.2   697  VAL697     -0.2718
     63  CB       -25.8770  -22.7620  -16.6340 C.3   697  VAL697      0.0266
     64  CG1      -26.6810  -22.0620  -15.5340 C.3   697  VAL697      0.0020
     65  CG2      -25.4460  -21.8650  -17.7310 C.3   697  VAL697      0.0020
     66  N        -25.3970  -25.4020  -14.7680 N.am  698  ALA698     -0.1980
     67  CA       -25.6810  -26.1070  -13.5590 C.3   698  ALA698      0.1597
     68  C        -24.4320  -26.3370  -12.7230 C.2   698  ALA698      0.2287
     69  O        -24.4450  -26.1440  -11.4730 O.2   698  ALA698     -0.2864
     70  CB       -26.3710  -27.3990  -13.8640 C.3   698  ALA698      0.0319
     71  N        -23.0580  -23.0390  -11.1680 N.3   701  ASN701     -0.1240
     72  CA       -23.9110  -22.6820  -10.0420 C.3   701  ASN701      0.1653
     73  C        -23.5210  -23.5920   -8.8160 C.2   701  ASN701      0.2266
     74  O        -23.4340  -23.1020   -7.6660 O.2   701  ASN701     -0.2867
     75  CB       -25.3790  -22.8080  -10.3500 C.3   701  ASN701      0.1155
     76  CG       -26.2380  -22.3690   -9.1920 C.2   701  ASN701      0.2627
     77  OD1      -26.1480  -21.2730   -8.6430 O.2   701  ASN701     -0.2716
     78  ND2      -27.1580  -23.2050   -8.8740 N.am  701  ASN701     -0.0877
@<TRIPOS>BOND
     1    50    48    1
     2     7     5    1
     3     1     2    1
     4    47    48    2
     5    47    46    1
     6    48    49    1
     7    45    46    1
     8    45    44    1
     9    40    41    1
    10     5     2    1
    11     5     6    1
    12     2     3    1
    13    44    41    1
    14    41    42    1
    15    58    56   ar
    16     3     4    2
    17     3     8   am
    18    51    42   am
    19    51    52    1
    20    56    55    1
    21    56    57   ar
    22    55    52    1
    23    42    43    2
    24     8     9    1
    25    52    53    1
    26    65    63    1
    27    53    54    2
    28     9    12    1
    29     9    10    1
    30    59    60    1
    31    63    60    1
    32    63    64    1
    33    12    14    1
    34    12    13    1
    35    10    11    2
    36    10    15   am
    37    60    61    1
    38    21    19    1
    39    15    16    1
    40    66    61   am
    41    66    67    1
    42    61    62    2
    43    19    16    1
    44    19    20    1
    45    16    17    1
    46    70    67    1
    47    67    68    1
    48    17    18    2
    49    17    22   am
    50    68    69    2
    51    28    22    1
    52    28    27    1
    53    22    23    1
    54    27    26    1
    55    71    72    1
    56    23    26    1
    57    23    24    1
    58    75    72    1
    59    75    76    1
    60    25    24    2
    61    72    73    1
    62    24    29   am
    63    76    78   am
    64    76    77    2
    65    29    30    1
    66    73    74    2
    67    33    30    1
    68    33    34    1
    69    30    31    1
    70    34    35   ar
    71    34    36   ar
    72    35    37   ar
    73    36    38   ar
    74    31    32    2
    75    37    39   ar
    76    38    39   ar
