@<TRIPOS>MOLECULE
tmp/5sy1C00.pdb
 88 80 0 0 0
SMALL
GASTEIGER

@<TRIPOS>ATOM
      1  N        136.5560  121.5150  141.0080 N.3   391  ILE391     -0.1245
      2  CA       135.0990  121.5350  140.9930 C.3   391  ILE391      0.1561
      3  C        134.4670  120.1600  140.8280 C.2   391  ILE391      0.2260
      4  O        133.5040  119.8310  141.5180 O.2   391  ILE391     -0.2867
      5  CB       134.5620  122.4710  139.8930 C.3   391  ILE391      0.0252
      6  CG1      134.6660  123.9300  140.3420 C.3   391  ILE391      0.0019
      7  CG2      133.1240  122.1200  139.5470 C.3   391  ILE391      0.0019
      8  CD1      134.1190  124.9170  139.3350 C.3   391  ILE391      0.0001
      9  N        134.5750  118.3570  144.0470 N.3   394  LEU394     -0.1231
     10  CA       133.7280  118.9970  145.0450 C.3   394  LEU394      0.1693
     11  C        132.2540  118.7140  144.7880 C.2   394  LEU394      0.2591
     12  O        131.4440  118.7070  145.7130 O.2   394  LEU394     -0.2718
     13  CB       133.9700  120.5060  145.0700 C.3   394  LEU394      0.0284
     14  CG       132.8650  121.3330  145.7290 C.3   394  LEU394      0.0019
     15  CD1      132.6500  120.8810  147.1650 C.3   394  LEU394      0.0001
     16  CD2      133.1920  122.8170  145.6720 C.3   394  LEU394      0.0001
     17  N        131.9110  118.4830  143.5250 N.am  395  VAL395     -0.1980
     18  CA       130.5320  118.2010  143.1510 C.3   395  VAL395      0.1595
     19  C        130.2020  116.7270  143.3460 C.2   395  VAL395      0.2287
     20  O        129.1930  116.3840  143.9590 O.2   395  VAL395     -0.2864
     21  CB       130.2490  118.5960  141.6910 C.3   395  VAL395      0.0276
     22  CG1      129.0690  117.8070  141.1470 C.3   395  VAL395      0.0022
     23  CG2      129.9870  120.0900  141.5890 C.3   395  VAL395      0.0022
     24  N        129.5560  115.5120  146.9060 N.3   398  ILE398     -0.1231
     25  CA       128.2200  115.7690  147.4280 C.3   398  ILE398      0.1692
     26  C        127.1430  114.9730  146.6920 C.2   398  ILE398      0.2592
     27  O        125.9930  114.9300  147.1230 O.2   398  ILE398     -0.2718
     28  CB       127.8700  117.2660  147.3400 C.3   398  ILE398      0.0266
     29  CG1      128.8540  118.0940  148.1660 C.3   398  ILE398      0.0019
     30  CG2      126.4430  117.5090  147.8020 C.3   398  ILE398      0.0020
     31  CD1      128.5130  119.5660  148.2220 C.3   398  ILE398      0.0001
     32  N        127.5170  114.3390  145.5840 N.am  399  CYS399     -0.1970
     33  CA       126.5670  113.5660  144.7910 C.3   399  CYS399      0.1712
     34  C        126.5700  112.0780  145.1310 C.2   399  CYS399      0.2296
     35  O        125.7280  111.3240  144.6470 O.2   399  CYS399     -0.2864
     36  CB       126.8340  113.7630  143.2980 C.3   399  CYS399      0.0983
     37  SG       126.3120  115.3710  142.6580 S.3   399  CYS399     -0.0798
     38  N        117.6720  121.4470  134.2260 N.3   487  VAL487     -0.1245
     39  CA       118.6270  122.0370  135.1540 C.3   487  VAL487      0.1561
     40  C        119.7540  121.0620  135.4830 C.2   487  VAL487      0.2260
     41  O        120.9090  121.4620  135.6120 O.2   487  VAL487     -0.2867
     42  CB       117.9450  122.4790  136.4590 C.3   487  VAL487      0.0252
     43  CG1      118.9610  122.5550  137.5870 C.3   487  VAL487      0.0019
     44  CG2      117.2530  123.8180  136.2660 C.3   487  VAL487      0.0019
     45  N        122.2370  120.0970  132.3010 N.3   490  THR490     -0.1203
     46  CA       123.0910  121.2160  131.9410 C.3   490  THR490      0.1994
     47  C        124.2330  121.2960  132.9660 C.2   490  THR490      0.2617
     48  O        125.3370  121.7280  132.6390 O.2   490  THR490     -0.2717
     49  CB       122.3160  122.5420  131.9320 C.3   490  THR490      0.1784
     50  OG1      121.4370  122.5900  133.0610 O.3   490  THR490     -0.2211
     51  CG2      121.5030  122.6710  130.6560 C.3   490  THR490      0.0376
     52  N        123.9570  120.8820  134.2050 N.am  491  ALA491     -0.1979
     53  CA       124.9510  120.8770  135.2680 C.3   491  ALA491      0.1597
     54  C        125.9810  119.7830  135.0180 C.2   491  ALA491      0.2287
     55  O        127.1800  120.0500  135.0610 O.2   491  ALA491     -0.2864
     56  CB       124.2900  120.6960  136.6250 C.3   491  ALA491      0.0319
     57  N        128.1980  120.6880  132.0810 N.3   494  ASN494     -0.1225
     58  CA       129.0720  121.8280  132.2930 C.3   494  ASN494      0.1785
     59  C        130.3040  121.4640  133.1150 C.2   494  ASN494      0.2597
     60  O        131.3270  122.1420  133.0370 O.2   494  ASN494     -0.2718
     61  CB       128.3060  122.9780  132.9450 C.3   494  ASN494      0.1169
     62  CG       127.6510  123.8890  131.9260 C.2   494  ASN494      0.2627
     63  OD1      127.6900  125.1120  132.0530 O.2   494  ASN494     -0.2716
     64  ND2      127.0470  123.2940  130.9040 N.am  494  ASN494     -0.0877
     65  N        130.2110  120.3950  133.9010 N.am  495  ILE495     -0.1980
     66  CA       131.3530  119.9730  134.7090 C.3   495  ILE495      0.1595
     67  C        132.2030  118.9180  133.9960 C.2   495  ILE495      0.2287
     68  O        133.4290  118.9630  134.0690 O.2   495  ILE495     -0.2864
     69  CB       130.9600  119.5240  136.1360 C.3   495  ILE495      0.0276
     70  CG1      129.9720  118.3600  136.1040 C.3   495  ILE495      0.0022
     71  CG2      130.3780  120.6920  136.9170 C.3   495  ILE495      0.0022
     72  CD1      129.7620  117.7030  137.4500 C.3   495  ILE495      0.0001
     73  N        134.2090  120.6700  131.3980 N.3   498  LEU498     -0.1245
     74  CA       134.6990  121.9440  131.8930 C.3   498  LEU498      0.1561
     75  C        136.1760  122.1330  131.5960 C.2   498  LEU498      0.2260
     76  O        136.6260  123.2640  131.3950 O.2   498  LEU498     -0.2867
     77  CB       134.4330  122.0440  133.3890 C.3   498  LEU498      0.0270
     78  CG       134.7030  123.3860  134.0390 C.3   498  LEU498      0.0019
     79  CD1      133.8480  124.4200  133.3830 C.3   498  LEU498      0.0001
     80  CD2      134.3560  123.2950  135.4860 C.3   498  LEU498      0.0001
     81  N        130.7370  126.1620  125.8760 N.3   505  LEU505     -0.1245
     82  CA       129.6860  125.7700  126.7970 C.3   505  LEU505      0.1561
     83  C        128.4360  126.6120  126.6500 C.2   505  LEU505      0.2260
     84  O        127.3770  126.2050  127.1310 O.2   505  LEU505     -0.2867
     85  CB       130.1820  125.8610  128.2320 C.3   505  LEU505      0.0270
     86  CG       131.3740  124.9690  128.5510 C.3   505  LEU505      0.0019
     87  CD1      131.7660  125.1240  130.0000 C.3   505  LEU505      0.0001
     88  CD2      131.0910  123.5290  128.2120 C.3   505  LEU505      0.0001
@<TRIPOS>BOND
     1    81    82    1
     2    83    82    1
     3    83    84    2
     4    82    85    1
     5    88    86    1
     6    85    86    1
     7    86    87    1
     8    51    49    1
     9    64    62   am
    10    76    75    2
    11    73    74    1
    12    75    74    1
    13    74    77    1
    14    62    63    2
    15    62    61    1
    16    49    46    1
    17    49    50    1
    18    46    45    1
    19    46    47    1
    20    57    58    1
    21    58    61    1
    22    58    59    1
    23    48    47    2
    24    47    52   am
    25    60    59    2
    26    59    65   am
    27    79    78    1
    28    77    78    1
    29    65    66    1
    30    67    68    2
    31    67    66    1
    32    78    80    1
    33    52    53    1
    34    38    39    1
    35    66    69    1
    36    54    55    2
    37    54    53    1
    38    39    40    1
    39    39    42    1
    40    53    56    1
    41    40    41    2
    42    70    69    1
    43    70    72    1
    44    69    71    1
    45    44    42    1
    46    42    43    1
    47     8     6    1
    48     7     5    1
    49     5     6    1
    50     5     2    1
    51     3     2    1
    52     3     4    2
    53     2     1    1
    54    22    21    1
    55    23    21    1
    56    21    18    1
    57    37    36    1
    58    18    19    1
    59    18    17    1
    60    36    33    1
    61    19    20    2
    62    17    11   am
    63     9    10    1
    64    35    34    2
    65    11    10    1
    66    11    12    2
    67    33    34    1
    68    33    32    1
    69    10    13    1
    70    13    14    1
    71    32    26   am
    72    16    14    1
    73    14    15    1
    74    26    27    2
    75    26    25    1
    76    24    25    1
    77    28    25    1
    78    28    30    1
    79    28    29    1
    80    29    31    1
