@<TRIPOS>MOLECULE
tmp/5sy2B01.pdb
 154 145 0 0 0
SMALL
GASTEIGER

@<TRIPOS>ATOM
      1  N         52.0150   77.8050   65.2050 N.3    18  THR18      -0.1203
      2  CA        52.6190   79.1360   65.4140 C.3    18  THR18       0.1994
      3  C         52.0020   80.2550   64.5890 C.2    18  THR18       0.2618
      4  O         52.1560   81.4200   64.9490 O.2    18  THR18      -0.2717
      5  CB        54.1400   79.1420   65.1610 C.3    18  THR18       0.1784
      6  OG1       54.4170   78.7400   63.8190 O.3    18  THR18      -0.2211
      7  CG2       54.8250   78.2050   66.1190 C.3    18  THR18       0.0376
      8  N         51.3370   79.9200   63.4890 N.am   19  GLN19      -0.1965
      9  CA        50.7170   80.9170   62.6460 C.3    19  GLN19       0.1733
     10  C         49.3240   80.4340   62.2690 C.2    19  GLN19       0.2616
     11  O         49.1600   79.3280   61.7440 O.2    19  GLN19      -0.2715
     12  CB        51.5720   81.1750   61.3980 C.3    19  GLN19       0.0408
     13  CG        53.0380   81.5340   61.6970 C.3    19  GLN19       0.0908
     14  CD        53.8560   81.8250   60.4490 C.2    19  GLN19       0.2608
     15  OE1       53.3060   82.1750   59.4030 O.2    19  GLN19      -0.2717
     16  NE2       55.1790   81.6820   60.5520 N.am   19  GLN19      -0.0878
     17  N         48.3340   81.2760   62.5710 N.am   20  TYR20      -0.1974
     18  CA        46.9390   81.0480   62.2590 C.3    20  TYR20       0.1639
     19  C         46.5020   82.2060   61.3680 C.2    20  TYR20       0.2290
     20  O         46.6660   83.3760   61.7310 O.2    20  TYR20      -0.2864
     21  CB        46.1030   80.9850   63.5370 C.3    20  TYR20       0.0560
     22  CG        46.4120   79.7810   64.3950 C.ar   20  TYR20      -0.0198
     23  CD1       47.4950   79.7900   65.2710 C.ar   20  TYR20      -0.0009
     24  CD2       45.6260   78.6250   64.3340 C.ar   20  TYR20      -0.0009
     25  CE1       47.7880   78.6920   66.0570 C.ar   20  TYR20       0.0417
     26  CE2       45.9070   77.5180   65.1310 C.ar   20  TYR20       0.0417
     27  CZ        46.9920   77.5560   65.9890 C.ar   20  TYR20       0.1957
     28  OH        47.3010   76.4740   66.7770 O.3    20  TYR20      -0.2866
     29  N         46.6590   87.2050   59.1220 N.3    36  VAL36      -0.1245
     30  CA        46.4820   86.9790   60.5540 C.3    36  VAL36       0.1561
     31  C         45.4650   87.9850   61.0600 C.2    36  VAL36       0.2260
     32  O         45.5420   89.1620   60.7220 O.2    36  VAL36      -0.2867
     33  CB        47.8000   87.1740   61.3200 C.3    36  VAL36       0.0252
     34  CG1       47.5750   87.0750   62.8220 C.3    36  VAL36       0.0019
     35  CG2       48.8210   86.1420   60.8670 C.3    36  VAL36       0.0019
     36  N         44.4500   89.8880   64.1790 N.3    38  ASP38      -0.1239
     37  CA        45.4330   90.2690   65.1840 C.3    38  ASP38       0.1674
     38  C         44.8600   91.2790   66.1710 C.2    38  ASP38       0.2266
     39  O         44.8090   92.4970   65.8760 O.2    38  ASP38      -0.2867
     40  CB        46.6470   90.8810   64.4620 C.3    38  ASP38       0.1410
     41  CG        47.7510   91.3530   65.4150 C.2    38  ASP38       0.3668
     42  OD1       47.8130   90.8960   66.5740 O.co2  38  ASP38      -0.2456
     43  OD2       48.5790   92.1770   64.9800 O.co2  38  ASP38      -0.2456
     44  N         46.3140   92.3130   68.7800 N.3    40  GLY40      -0.1210
     45  CA        47.4330   93.1480   69.2430 C.3    40  GLY40       0.1956
     46  C         47.8210   94.3410   68.3750 C.2    40  GLY40       0.2612
     47  O         48.7770   95.0570   68.6940 O.2    40  GLY40      -0.2717
     48  N         47.1040   94.5630   67.2790 N.am   41  SER41      -0.1952
     49  CA        47.3360   95.7320   66.4330 C.3    41  SER41       0.1924
     50  C         46.0260   96.1600   65.8150 C.2    41  SER41       0.2314
     51  O         45.0160   95.4870   65.9950 O.2    41  SER41      -0.2863
     52  CB        48.3920   95.4300   65.3570 C.3    41  SER41       0.2116
     53  OG        47.8900   94.5310   64.3890 O.3    41  SER41      -0.2180
     54  N         62.1120   90.1740   58.6430 N.3   110  PRO110     -0.2116
     55  CA        61.4540   88.9530   59.1330 C.3   110  PRO110      0.1372
     56  C         60.3600   88.3800   58.2190 C.2   110  PRO110      0.2244
     57  O         59.6750   87.4560   58.6290 O.2   110  PRO110     -0.2868
     58  CB        60.7730   89.4610   60.4090 C.3   110  PRO110      0.0268
     59  CG        60.3260   90.8330   60.0310 C.3   110  PRO110      0.0207
     60  CD        61.3960   91.3790   59.1090 C.3   110  PRO110      0.0892
     61  N         59.7930   84.6710   57.4370 N.3   113  LEU113     -0.1231
     62  CA        59.1810   83.8840   58.5290 C.3   113  LEU113      0.1693
     63  C         57.6870   83.6530   58.3170 C.2   113  LEU113      0.2591
     64  O         57.1630   82.6550   58.7840 O.2   113  LEU113     -0.2718
     65  CB        59.3660   84.5560   59.9070 C.3   113  LEU113      0.0284
     66  CG        60.5710   84.3660   60.8530 C.3   113  LEU113      0.0019
     67  CD1       61.6110   83.3590   60.3710 C.3   113  LEU113      0.0001
     68  CD2       61.2090   85.7060   61.2290 C.3   113  LEU113      0.0001
     69  N         56.9970   84.5770   57.6520 N.am  114  ALA114     -0.1980
     70  CA        55.5320   84.5420   57.5810 C.3   114  ALA114      0.1597
     71  C         55.0120   83.6740   56.4310 C.2   114  ALA114      0.2287
     72  O         55.4340   83.8390   55.2950 O.2   114  ALA114     -0.2864
     73  CB        54.9820   85.9600   57.4600 C.3   114  ALA114      0.0319
     74  N         51.6990   83.7720   56.1240 N.3   116  PHE116     -0.1241
     75  CA        50.6270   84.7220   55.8150 C.3   116  PHE116      0.1605
     76  C         51.1580   85.8880   54.9760 C.2   116  PHE116      0.2264
     77  O         52.3410   86.1840   55.0060 O.2   116  PHE116     -0.2867
     78  CB        49.9470   85.2300   57.1100 C.3   116  PHE116      0.0534
     79  CG        50.8880   85.8730   58.1030 C.ar  116  PHE116     -0.0203
     80  CD1       51.5270   85.1100   59.0800 C.ar  116  PHE116     -0.0042
     81  CD2       51.1230   87.2510   58.0730 C.ar  116  PHE116     -0.0042
     82  CE1       52.3870   85.7100   59.9910 C.ar  116  PHE116     -0.0003
     83  CE2       51.9770   87.8520   58.9830 C.ar  116  PHE116     -0.0003
     84  CZ        52.6120   87.0810   59.9420 C.ar  116  PHE116     -0.0000
     85  N         48.1350   91.3570   57.5690 N.3   119  VAL119     -0.1245
     86  CA        47.5220   91.4160   58.8890 C.3   119  VAL119      0.1561
     87  C         46.2320   92.2220   58.8390 C.2   119  VAL119      0.2260
     88  O         46.1780   93.2810   58.2170 O.2   119  VAL119     -0.2867
     89  CB        48.4910   92.0500   59.9080 C.3   119  VAL119      0.0252
     90  CG1       47.8110   92.2710   61.2610 C.3   119  VAL119      0.0019
     91  CG2       49.7440   91.1920   60.0620 C.3   119  VAL119      0.0019
     92  N         41.3610   78.4110   67.8130 N.3   154  TYR154     -0.1241
     93  CA        42.6130   77.9160   67.2490 C.3   154  TYR154      0.1605
     94  C         42.7310   76.4490   67.6250 C.2   154  TYR154      0.2264
     95  O         42.6980   76.1090   68.8000 O.2   154  TYR154     -0.2867
     96  CB        43.8350   78.6910   67.7760 C.3   154  TYR154      0.0534
     97  CG        44.0710   80.1060   67.2300 C.ar  154  TYR154     -0.0201
     98  CD1       43.3250   80.6500   66.1770 C.ar  154  TYR154     -0.0009
     99  CD2       45.0940   80.8920   67.7550 C.ar  154  TYR154     -0.0009
    100  CE1       43.5840   81.9400   65.7020 C.ar  154  TYR154      0.0417
    101  CE2       45.3580   82.1710   67.2760 C.ar  154  TYR154      0.0417
    102  CZ        44.5950   82.6950   66.2550 C.ar  154  TYR154      0.1957
    103  OH        44.8570   83.9690   65.7880 O.3   154  TYR154     -0.2866
    104  N         48.0320   91.0820   77.9110 N.3   214  LEU214     -0.1245
    105  CA        47.4850   91.4010   76.6000 C.3   214  LEU214      0.1561
    106  C         46.9960   90.0870   75.9970 C.2   214  LEU214      0.2260
    107  O         47.7100   89.0980   76.0570 O.2   214  LEU214     -0.2867
    108  CB        48.6060   92.0030   75.7290 C.3   214  LEU214      0.0270
    109  CG        48.2800   92.5690   74.3420 C.3   214  LEU214      0.0019
    110  CD1       47.5050   93.8760   74.4560 C.3   214  LEU214      0.0001
    111  CD2       49.5600   92.8110   73.5420 C.3   214  LEU214      0.0001
    112  N         46.4490   88.4350   72.7070 N.3   216  ASP216     -0.1225
    113  CA        46.9560   88.7730   71.3890 C.3   216  ASP216      0.1805
    114  C         46.7990   87.5730   70.4730 C.2   216  ASP216      0.2598
    115  O         47.6400   86.6730   70.4590 O.2   216  ASP216     -0.2718
    116  CB        48.4330   89.1910   71.4780 C.3   216  ASP216      0.1424
    117  CG        49.0010   89.6840   70.1310 C.2   216  ASP216      0.3668
    118  OD1       48.3420   89.5200   69.0790 O.co2 216  ASP216     -0.2456
    119  OD2       50.1200   90.2430   70.1250 O.co2 216  ASP216     -0.2456
    120  N         45.7340   87.6010   69.6750 N.am  217  THR217     -0.1939
    121  CA        45.4650   86.5570   68.6890 C.3   217  THR217      0.2028
    122  C         46.5370   86.4360   67.6110 C.2   217  THR217      0.2643
    123  O         46.6270   85.3860   66.9760 O.2   217  THR217     -0.2714
    124  CB        44.1300   86.7880   67.9700 C.3   217  THR217      0.1808
    125  OG1       44.1030   88.1070   67.4290 O.3   217  THR217     -0.2208
    126  CG2       42.9510   86.5940   68.9250 C.3   217  THR217      0.0379
    127  N         47.3080   87.5050   67.3850 N.am  218  GLY218     -0.1939
    128  CA        48.3850   87.5120   66.3890 C.3   218  GLY218      0.2014
    129  C         49.7490   87.0210   66.8450 C.2   218  GLY218      0.2639
    130  O         50.6850   87.0300   66.0540 O.2   218  GLY218     -0.2714
    131  N         49.8660   86.6020   68.1100 N.am  219  ALA219     -0.1963
    132  CA        51.1090   86.1070   68.6900 C.3   219  ALA219      0.1728
    133  C         51.0810   84.5870   68.8180 C.2   219  ALA219      0.2616
    134  O         50.0290   84.0030   69.0650 O.2   219  ALA219     -0.2715
    135  CB        51.3300   86.7430   70.0510 C.3   219  ALA219      0.0334
    136  N         52.2330   83.9470   68.6450 N.am  220  SER220     -0.1950
    137  CA        52.3100   82.4850   68.6970 C.3   220  SER220      0.1924
    138  C         52.2160   81.9210   70.1040 C.2   220  SER220      0.2314
    139  O         51.6480   80.8590   70.3050 O.2   220  SER220     -0.2863
    140  CB        53.6190   81.9960   68.0890 C.3   220  SER220      0.2116
    141  OG        53.7830   82.4730   66.7740 O.3   220  SER220     -0.2180
    142  N         59.3280   88.0370   76.0460 N.3   293  MET293     -0.1245
    143  CA        59.1810   89.2090   75.1870 C.3   293  MET293      0.1570
    144  C         58.9660   90.4460   76.0480 C.2   293  MET293      0.2261
    145  O         57.9490   90.5780   76.7190 O.2   293  MET293     -0.2867
    146  CB        58.0350   89.0380   74.1920 C.3   293  MET293      0.0387
    147  CG        58.1350   89.9990   73.0130 C.3   293  MET293      0.0595
    148  SD        56.6400   90.1010   72.0150 S.3   293  MET293     -0.1393
    149  CE        56.4370   88.3960   71.4760 C.3   293  MET293      0.0692
    150  N         48.4900   82.3540   70.9170 N.3   307  ALA307     -0.1245
    151  CA        47.8980   81.1240   70.3930 C.3   307  ALA307      0.1562
    152  C         47.9680   79.9280   71.3610 C.2   307  ALA307      0.2260
    153  O         47.0260   79.1340   71.4300 O.2   307  ALA307     -0.2867
    154  CB        48.5450   80.7710   69.0550 C.3   307  ALA307      0.0290
@<TRIPOS>BOND
     1    76    77    2
     2    76    75    1
     3    72    71    2
     4    75    74    1
     5    75    78    1
     6    71    70    1
     7    78    79    1
     8    61    62    1
     9    73    70    1
    10    85    86    1
    11    70    69    1
    12    69    63   am
    13    81    79   ar
    14    81    83   ar
    15    79    80   ar
    16    88    87    2
    17    56    57    2
    18    56    55    1
    19    63    62    1
    20    63    64    2
    21    62    65    1
    22    54    60    1
    23    54    55    1
    24    87    86    1
    25    86    89    1
    26    83    84   ar
    27    80    82   ar
    28    60    59    1
    29    29    30    1
    30    55    58    1
    31    15    14    2
    32    65    66    1
    33    89    91    1
    34    89    90    1
    35    84    82   ar
    36    59    58    1
    37    67    66    1
    38    14    16   am
    39    14    13    1
    40    30    31    1
    41    30    33    1
    42    32    31    2
    43    66    68    1
    44    35    33    1
    45    33    34    1
    46    19    20    2
    47    19    18    1
    48    12    13    1
    49    12     9    1
    50    11    10    2
    51    18    17    1
    52    18    21    1
    53    10    17   am
    54    10     9    1
    55     9     8    1
    56     8     3   am
    57    21    22    1
    58     6     5    1
    59    36    37    1
    60    24    22   ar
    61    24    26   ar
    62    53    52    1
    63    22    23   ar
    64    40    37    1
    65    40    41    1
    66     3     4    2
    67     3     2    1
    68    43    41   ar
    69    26    27   ar
    70     5     2    1
    71     5     7    1
    72    37    38    1
    73     1     2    1
    74    23    25   ar
    75    52    49    1
    76    41    42   ar
    77   100    98   ar
    78   100   102   ar
    79   103   102    1
    80    50    51    2
    81    50    49    1
    82    39    38    2
    83    27    25   ar
    84    27    28    1
    85   130   129    2
    86    98    97   ar
    87   102   101   ar
    88   128   129    1
    89   128   127    1
    90    49    48    1
    91   141   140    1
    92   129   131   am
    93   123   122    2
    94    97    99   ar
    95    97    96    1
    96    93    94    1
    97    93    96    1
    98    93    92    1
    99   101    99   ar
   100    48    46   am
   101   127   122   am
   102   125   124    1
   103   122   121    1
   104    94    95    2
   105   124   121    1
   106   124   126    1
   107   140   137    1
   108   131   132    1
   109    46    47    2
   110    46    45    1
   111   136   137    1
   112   136   133   am
   113   121   120    1
   114   132   133    1
   115   132   135    1
   116   137   138    1
   117    44    45    1
   118   133   134    2
   119   154   151    1
   120   118   117   ar
   121   120   114   am
   122   138   139    2
   123   119   117   ar
   124   117   116    1
   125   151   150    1
   126   151   152    1
   127   115   114    2
   128   114   113    1
   129   152   153    2
   130   113   116    1
   131   113   112    1
   132   149   148    1
   133   148   147    1
   134   147   146    1
   135   111   109    1
   136   146   143    1
   137   109   110    1
   138   109   108    1
   139   143   142    1
   140   143   144    1
   141   108   105    1
   142   106   107    2
   143   106   105    1
   144   144   145    2
   145   105   104    1
