@<TRIPOS>MOLECULE
tmp/5sy3A01.pdb
 154 148 0 0 0
SMALL
GASTEIGER

@<TRIPOS>ATOM
      1  N        -16.6460    8.8750   -2.4790 N.3    15  THR15      -0.1203
      2  CA       -16.0800   10.2070   -2.2470 C.3    15  THR15       0.1994
      3  C        -16.6920   11.3180   -3.0990 C.2    15  THR15       0.2618
      4  O        -16.5090   12.4780   -2.7740 O.2    15  THR15      -0.2717
      5  CB       -14.5770   10.2190   -2.5150 C.3    15  THR15       0.1784
      6  OG1      -14.3380    9.8480   -3.8770 O.3    15  THR15      -0.2211
      7  CG2      -13.8640    9.2510   -1.5660 C.3    15  THR15       0.0376
      8  N        -17.3850   10.9820   -4.1860 N.am   16  GLN16      -0.1965
      9  CA       -18.0830   11.9800   -4.9920 C.3    16  GLN16       0.1733
     10  C        -19.4500   11.4530   -5.3320 C.2    16  GLN16       0.2616
     11  O        -19.5890   10.3090   -5.7880 O.2    16  GLN16      -0.2715
     12  CB       -17.3210   12.2870   -6.2800 C.3    16  GLN16       0.0408
     13  CG       -15.9180   12.8240   -6.0340 C.3    16  GLN16       0.0908
     14  CD       -15.1310   13.0220   -7.3070 C.2    16  GLN16       0.2608
     15  OE1      -15.6840   13.3560   -8.3550 O.2    16  GLN16      -0.2717
     16  NE2      -13.8230   12.8340   -7.2180 N.am   16  GLN16      -0.0878
     17  N        -20.4480   12.3020   -5.1030 N.am   17  TYR17      -0.1974
     18  CA       -21.8290   12.0180   -5.4010 C.3    17  TYR17       0.1639
     19  C        -22.3300   13.1620   -6.2430 C.2    17  TYR17       0.2290
     20  O        -22.1750   14.3250   -5.8670 O.2    17  TYR17      -0.2864
     21  CB       -22.6630   11.9060   -4.1280 C.3    17  TYR17       0.0560
     22  CG       -22.3080   10.7120   -3.2730 C.ar   17  TYR17      -0.0198
     23  CD1      -21.2310   10.7630   -2.3900 C.ar   17  TYR17      -0.0009
     24  CD2      -23.0430    9.5300   -3.3440 C.ar   17  TYR17      -0.0009
     25  CE1      -20.8990    9.6720   -1.6040 C.ar   17  TYR17       0.0417
     26  CE2      -22.7150    8.4320   -2.5570 C.ar   17  TYR17       0.0417
     27  CZ       -21.6450    8.5120   -1.6890 C.ar   17  TYR17       0.1957
     28  OH       -21.3040    7.4390   -0.8960 O.3    17  TYR17      -0.2866
     29  N        -22.3890   18.2140   -8.4470 N.3    33  VAL33      -0.1245
     30  CA       -22.4910   17.9570   -7.0170 C.3    33  VAL33       0.1561
     31  C        -23.5310   18.9220   -6.4740 C.2    33  VAL33       0.2260
     32  O        -23.4900   20.1140   -6.7710 O.2    33  VAL33      -0.2867
     33  CB       -21.1470   18.1930   -6.2940 C.3    33  VAL33       0.0252
     34  CG1      -21.2960   18.0860   -4.7790 C.3    33  VAL33       0.0019
     35  CG2      -20.1130   17.1950   -6.7820 C.3    33  VAL33       0.0019
     36  N        -24.3380   20.6970   -3.3860 N.3    35  ASP35      -0.1239
     37  CA       -23.3950   21.0150   -2.3080 C.3    35  ASP35       0.1674
     38  C        -24.0170   21.9760   -1.2910 C.2    35  ASP35       0.2266
     39  O        -24.1530   23.1680   -1.5620 O.2    35  ASP35      -0.2867
     40  CB       -22.1290   21.6310   -2.9210 C.3    35  ASP35       0.1410
     41  CG       -21.1190   22.1110   -1.8730 C.2    35  ASP35       0.3668
     42  OD1      -21.0500   21.5550   -0.7640 O.co2  35  ASP35      -0.2456
     43  OD2      -20.3760   23.0600   -2.1760 O.co2  35  ASP35      -0.2456
     44  N        -13.0900   27.1960   -3.0300 N.3    80  TYR80      -0.1241
     45  CA       -13.4880   26.0500   -2.2040 C.3    80  TYR80       0.1605
     46  C        -12.3070   25.5630   -1.3760 C.2    80  TYR80       0.2264
     47  O        -11.1840   26.0360   -1.5490 O.2    80  TYR80      -0.2867
     48  CB       -14.0200   24.9130   -3.0820 C.3    80  TYR80       0.0534
     49  CG       -15.2480   25.2950   -3.8710 C.ar   80  TYR80      -0.0201
     50  CD1      -16.4950   25.3850   -3.2480 C.ar   80  TYR80      -0.0009
     51  CD2      -15.1760   25.5680   -5.2360 C.ar   80  TYR80      -0.0009
     52  CE1      -17.6310   25.7340   -3.9580 C.ar   80  TYR80       0.0417
     53  CE2      -16.3140   25.9190   -5.9560 C.ar   80  TYR80       0.0417
     54  CZ       -17.5380   26.0010   -5.3100 C.ar   80  TYR80       0.1957
     55  OH       -18.6720   26.3480   -6.0110 O.3    80  TYR80      -0.2866
     56  N        -10.9490   22.5560   -1.4950 N.3    82  THR82      -0.1203
     57  CA       -10.0690   21.7600   -2.3640 C.3    82  THR82       0.1997
     58  C         -9.5310   22.5130   -3.5930 C.2    82  THR82       0.2657
     59  O         -8.5190   22.0970   -4.1650 O.2    82  THR82      -0.2713
     60  CB       -10.7550   20.4340   -2.8150 C.3    82  THR82       0.1784
     61  OG1      -12.1760   20.6180   -2.9460 O.3    82  THR82      -0.2211
     62  CG2      -10.4840   19.3090   -1.8010 C.3    82  THR82       0.0376
     63  N        -10.1840   23.6030   -3.9990 N.am   83  GLY83      -0.1731
     64  CA        -9.7490   24.3360   -5.1920 C.2    83  GLY83       0.1340
     65  C        -10.5330   25.5810   -5.5460 C.2    83  GLY83       0.2521
     66  O        -11.5630   25.8710   -4.9460 O.2    83  GLY83      -0.2816
     67  N         -8.2520   20.7230   -8.2390 N.3   115  PRO115     -0.2102
     68  CA        -8.6780   19.3200   -8.1320 C.3   115  PRO115      0.1504
     69  C         -9.5360   18.8040   -9.3010 C.2   115  PRO115      0.2575
     70  O        -10.0060   17.6620   -9.2540 O.2   115  PRO115     -0.2718
     71  CB        -9.5680   19.3630   -6.8840 C.3   115  PRO115      0.0282
     72  CG       -10.2530   20.6950   -7.0100 C.3   115  PRO115      0.0208
     73  CD        -9.2140   21.6240   -7.5760 C.3   115  PRO115      0.0893
     74  N         -9.7720   19.6200  -10.3230 N.am  116  PHE116     -0.1977
     75  CA       -10.8270   19.2930  -11.2780 C.3   116  PHE116      0.1639
     76  C        -10.5090   18.1790  -12.2660 C.2   116  PHE116      0.2290
     77  O        -11.4280   17.6320  -12.8460 O.2   116  PHE116     -0.2864
     78  CB       -11.3820   20.5560  -11.9330 C.3   116  PHE116      0.0560
     79  CG       -12.0240   21.4650  -10.9360 C.ar  116  PHE116     -0.0200
     80  CD1      -13.2710   21.1460  -10.4040 C.ar  116  PHE116     -0.0042
     81  CD2      -11.3430   22.5740  -10.4360 C.ar  116  PHE116     -0.0042
     82  CE1      -13.8510   21.9490   -9.4380 C.ar  116  PHE116     -0.0003
     83  CE2      -11.9140   23.3750   -9.4630 C.ar  116  PHE116     -0.0003
     84  CZ       -13.1720   23.0650   -8.9640 C.ar  116  PHE116     -0.0000
     85  N         -9.4780   15.3830  -11.0580 N.3   118  LEU118     -0.1231
     86  CA       -10.0030   14.2460  -10.2840 C.3   118  LEU118      0.1693
     87  C        -11.5010   14.3580   -9.9560 C.2   118  LEU118      0.2591
     88  O        -12.0430   13.4810   -9.2960 O.2   118  LEU118     -0.2718
     89  CB        -9.1520   13.9720   -9.0230 C.3   118  LEU118      0.0284
     90  CG        -8.9200   15.0060   -7.9100 C.3   118  LEU118      0.0019
     91  CD1      -10.1620   15.2240   -7.0520 C.3   118  LEU118      0.0001
     92  CD2       -7.7460   14.5550   -7.0560 C.3   118  LEU118      0.0001
     93  N        -12.1660   15.4100  -10.4350 N.am  119  ALA119     -0.1980
     94  CA       -13.6180   15.5490  -10.3020 C.3   119  ALA119      0.1597
     95  C        -14.2920   14.8080  -11.4520 C.2   119  ALA119      0.2287
     96  O        -14.0710   15.1300  -12.6320 O.2   119  ALA119     -0.2864
     97  CB       -14.0270   17.0120  -10.3200 C.3   119  ALA119      0.0319
     98  N        -17.4670   14.8480  -11.8120 N.3   121  PHE121     -0.1241
     99  CA       -18.5790   15.7310  -12.1190 C.3   121  PHE121      0.1605
    100  C        -18.0520   16.9330  -12.8980 C.2   121  PHE121      0.2264
    101  O        -16.8440   17.1930  -12.9250 O.2   121  PHE121     -0.2867
    102  CB       -19.2830   16.1600  -10.8290 C.3   121  PHE121      0.0534
    103  CG       -18.3760   16.8360   -9.8410 C.ar  121  PHE121     -0.0203
    104  CD1      -17.6930   16.0910   -8.8700 C.ar  121  PHE121     -0.0042
    105  CD2      -18.1890   18.2150   -9.8880 C.ar  121  PHE121     -0.0042
    106  CE1      -16.8480   16.7180   -7.9720 C.ar  121  PHE121     -0.0003
    107  CE2      -17.3520   18.8450   -8.9860 C.ar  121  PHE121     -0.0003
    108  CZ       -16.6850   18.0970   -8.0300 C.ar  121  PHE121     -0.0000
    109  N        -21.2310   22.3500  -10.0550 N.3   124  VAL124     -0.1245
    110  CA       -21.7240   22.4170   -8.6860 C.3   124  VAL124      0.1561
    111  C        -23.0250   23.1910   -8.6510 C.2   124  VAL124      0.2260
    112  O        -23.1450   24.2360   -9.2960 O.2   124  VAL124     -0.2867
    113  CB       -20.7090   23.1250   -7.7540 C.3   124  VAL124      0.0252
    114  CG1      -21.2320   23.1700   -6.3180 C.3   124  VAL124      0.0019
    115  CG2      -19.3490   22.4240   -7.8110 C.3   124  VAL124      0.0019
    116  N        -27.1850    9.1460    0.2180 N.3   159  TYR159     -0.1241
    117  CA       -25.9360    8.6780   -0.3680 C.3   159  TYR159      0.1605
    118  C        -25.7930    7.2040   -0.0570 C.2   159  TYR159      0.2264
    119  O        -25.7110    6.8340    1.1030 O.2   159  TYR159     -0.2867
    120  CB       -24.7390    9.4410    0.2180 C.3   159  TYR159      0.0534
    121  CG       -24.5120   10.8610   -0.2820 C.ar  159  TYR159     -0.0201
    122  CD1      -25.2080   11.3950   -1.3710 C.ar  159  TYR159     -0.0009
    123  CD2      -23.5580   11.6710    0.3340 C.ar  159  TYR159     -0.0009
    124  CE1      -24.9630   12.6870   -1.8170 C.ar  159  TYR159      0.0417
    125  CE2      -23.3060   12.9560   -0.1180 C.ar  159  TYR159      0.0417
    126  CZ       -24.0130   13.4590   -1.1920 C.ar  159  TYR159      0.1957
    127  OH       -23.7730   14.7350   -1.6360 O.3   159  TYR159     -0.2866
    128  N        -22.9210   18.3790    2.0910 N.3   220  THR220     -0.1203
    129  CA       -23.1900   17.3080    1.1270 C.3   220  THR220      0.1994
    130  C        -22.1450   17.2190    0.0040 C.2   220  THR220      0.2618
    131  O        -22.0830   16.2140   -0.7110 O.2   220  THR220     -0.2717
    132  CB       -24.5800   17.4640    0.4950 C.3   220  THR220      0.1784
    133  OG1      -24.6440   18.7090   -0.1960 O.3   220  THR220     -0.2211
    134  CG2      -25.6770   17.3980    1.5610 C.3   220  THR220      0.0376
    135  N        -21.3500   18.2720   -0.1650 N.am  221  GLY221     -0.1942
    136  CA       -20.2490   18.2760   -1.1250 C.3   221  GLY221      0.2014
    137  C        -18.8830   17.9180   -0.5590 C.2   221  GLY221      0.2639
    138  O        -17.8860   18.0670   -1.2570 O.2   221  GLY221     -0.2714
    139  N        -18.8380   17.5000    0.7100 N.am  222  ALA222     -0.1963
    140  CA       -17.6220   17.0160    1.3670 C.3   222  ALA222      0.1728
    141  C        -17.6720   15.4980    1.4210 C.2   222  ALA222      0.2616
    142  O        -18.7150   14.9150    1.7230 O.2   222  ALA222     -0.2715
    143  CB       -17.5180   17.5690    2.7770 C.3   222  ALA222      0.0334
    144  N        -16.5310   14.8730    1.1570 N.am  223  SER223     -0.1950
    145  CA       -16.4290   13.4280    1.0940 C.3   223  SER223      0.1924
    146  C        -16.4790   12.8090    2.4670 C.2   223  SER223      0.2314
    147  O        -17.0440   11.7370    2.6440 O.2   223  SER223     -0.2863
    148  CB       -15.1180   13.0030    0.4100 C.3   223  SER223      0.2116
    149  OG       -15.0740   13.4560   -0.9230 O.3   223  SER223     -0.2180
    150  N        -20.0500   13.0910    3.3190 N.3   310  ALA310     -0.1245
    151  CA       -20.6770   11.8820    2.7730 C.3   310  ALA310      0.1562
    152  C        -20.5990   10.6780    3.7120 C.2   310  ALA310      0.2260
    153  O        -21.5240    9.8700    3.7570 O.2   310  ALA310     -0.2867
    154  CB       -20.0940   11.5350    1.4100 C.3   310  ALA310      0.0290
@<TRIPOS>BOND
     1   101   100    2
     2   100    99    1
     3    77    76    2
     4    96    95    2
     5    76    75    1
     6    99    98    1
     7    99   102    1
     8    78    75    1
     9    78    79    1
    10    95    94    1
    11    75    74    1
    12    85    86    1
    13    79    81   ar
    14    79    80   ar
    15   102   103    1
    16    81    83   ar
    17    93    94    1
    18    93    87   am
    19    80    82   ar
    20    74    69   am
    21    97    94    1
    22    86    87    1
    23    86    89    1
    24   109   110    1
    25    87    88    2
    26   105   103   ar
    27   105   107   ar
    28   103   104   ar
    29    83    84   ar
    30    82    84   ar
    31    69    70    2
    32    69    68    1
    33   112   111    2
    34    89    90    1
    35   107   108   ar
    36   104   106   ar
    37   110   111    1
    38   110   113    1
    39    29    30    1
    40    15    14    2
    41    67    68    1
    42    67    73    1
    43    68    71    1
    44   108   106   ar
    45    90    92    1
    46    90    91    1
    47   115   113    1
    48   113   114    1
    49    73    72    1
    50    14    16   am
    51    14    13    1
    52    30    31    1
    53    30    33    1
    54    72    71    1
    55    35    33    1
    56    32    31    2
    57    33    34    1
    58    12    13    1
    59    12     9    1
    60    19    20    2
    61    19    18    1
    62    55    54    1
    63    53    54   ar
    64    53    51   ar
    65    11    10    2
    66    65    64    1
    67    65    66    2
    68    18    17    1
    69    18    21    1
    70    10    17   am
    71    10     9    1
    72    54    52   ar
    73    51    49   ar
    74    64    63    2
    75     9     8    1
    76     8     3   am
    77    59    58    2
    78    21    22    1
    79    63    58    1
    80    52    50   ar
    81     6     5    1
    82    49    50   ar
    83    49    48    1
    84    58    57    1
    85    36    37    1
    86    24    22   ar
    87    24    26   ar
    88    22    23   ar
    89     3     4    2
    90     3     2    1
    91    48    45    1
    92    44    45    1
    93    61    60    1
    94    40    37    1
    95    40    41    1
    96    60    57    1
    97    60    62    1
    98    26    27   ar
    99     5     2    1
   100     5     7    1
   101     1     2    1
   102    23    25   ar
   103    57    56    1
   104    37    38    1
   105    45    46    1
   106    43    41   ar
   107    41    42   ar
   108   124   122   ar
   109   124   126   ar
   110    27    25   ar
   111    27    28    1
   112   127   126    1
   113    39    38    2
   114    47    46    2
   115   122   121   ar
   116   138   137    2
   117   126   125   ar
   118   136   137    1
   119   136   135    1
   120   149   148    1
   121   131   130    2
   122   137   139   am
   123   117   118    1
   124   117   116    1
   125   117   120    1
   126   121   120    1
   127   121   123   ar
   128   133   132    1
   129   135   130   am
   130   125   123   ar
   131   118   119    2
   132   130   129    1
   133   148   145    1
   134   132   129    1
   135   132   134    1
   136   139   140    1
   137   145   144    1
   138   145   146    1
   139   129   128    1
   140   144   141   am
   141   140   141    1
   142   140   143    1
   143   154   151    1
   144   141   142    2
   145   146   147    2
   146   151   150    1
   147   151   152    1
   148   152   153    2
