@<TRIPOS>MOLECULE
tmp/5sy3B00.pdb
 123 117 0 0 0
SMALL
GASTEIGER

@<TRIPOS>ATOM
      1  N        -32.7830   -8.5010  -17.0590 N.3    18  GLN18      -0.1245
      2  CA       -34.0430   -9.2210  -17.2120 C.3    18  GLN18       0.1566
      3  C        -35.0510   -8.7110  -16.1940 C.2    18  GLN18       0.2260
      4  O        -34.8240   -8.8080  -14.9930 O.2    18  GLN18      -0.2867
      5  CB       -33.8200  -10.7190  -17.0440 C.3    18  GLN18       0.0367
      6  CG       -32.8360  -11.3200  -18.0500 C.3    18  GLN18       0.0905
      7  CD       -32.5430  -12.7820  -17.7860 C.2    18  GLN18       0.2608
      8  OE1      -33.3890  -13.5140  -17.2740 O.2    18  GLN18      -0.2717
      9  NE2      -31.3340  -13.2190  -18.1330 N.am   18  GLN18      -0.0878
     10  N        -41.1640  -12.1010  -19.1620 N.3    35  VAL35      -0.1245
     11  CA       -40.7700  -10.7930  -19.6430 C.3    35  VAL35       0.1561
     12  C        -41.9330  -10.2250  -20.4170 C.2    35  VAL35       0.2260
     13  O        -42.5520  -10.9390  -21.2040 O.2    35  VAL35      -0.2867
     14  CB       -39.5670  -10.8990  -20.6020 C.3    35  VAL35       0.0252
     15  CG1      -39.3130   -9.5900  -21.3320 C.3    35  VAL35       0.0019
     16  CG2      -38.3440  -11.3060  -19.8260 C.3    35  VAL35       0.0019
     17  N        -42.7040   -7.8740  -23.3440 N.3    37  ASP37      -0.1239
     18  CA       -41.8700   -7.5160  -24.4960 C.3    37  ASP37       0.1674
     19  C        -42.6810   -6.7540  -25.5500 C.2    37  ASP37       0.2266
     20  O        -43.4750   -7.3480  -26.2750 O.2    37  ASP37      -0.2867
     21  CB       -41.3030   -8.8130  -25.1090 C.3    37  ASP37       0.1410
     22  CG       -40.4350   -8.5760  -26.3490 C.2    37  ASP37       0.3668
     23  OD1      -39.9700   -7.4370  -26.5630 O.co2  37  ASP37      -0.2456
     24  OD2      -40.2130   -9.5510  -27.1170 O.co2  37  ASP37      -0.2456
     25  N        -36.6950  -14.7030  -32.0400 N.3    82  TYR82      -0.1241
     26  CA       -36.1840  -13.4640  -31.4500 C.3    82  TYR82       0.1605
     27  C        -34.7680  -13.2050  -31.9700 C.2    82  TYR82       0.2264
     28  O        -34.1830  -14.0360  -32.6730 O.2    82  TYR82      -0.2867
     29  CB       -36.2120  -13.5440  -29.9160 C.3    82  TYR82       0.0534
     30  CG       -37.6010  -13.8540  -29.3980 C.ar   82  TYR82      -0.0201
     31  CD1      -38.0390  -15.1670  -29.2530 C.ar   82  TYR82      -0.0009
     32  CD2      -38.5010  -12.8270  -29.1090 C.ar   82  TYR82      -0.0009
     33  CE1      -39.3240  -15.4540  -28.8160 C.ar   82  TYR82       0.0417
     34  CE2      -39.7840  -13.1030  -28.6700 C.ar   82  TYR82       0.0417
     35  CZ       -40.1920  -14.4220  -28.5320 C.ar   82  TYR82       0.1957
     36  OH       -41.4630  -14.7030  -28.0930 O.3    82  TYR82      -0.2866
     37  N        -32.0230  -12.9190  -30.2150 N.3    84  THR84      -0.1203
     38  CA       -31.0220  -13.6750  -29.4680 C.3    84  THR84       0.1994
     39  C        -31.2830  -15.1810  -29.3950 C.2    84  THR84       0.2618
     40  O        -30.5030  -15.9100  -28.7770 O.2    84  THR84      -0.2717
     41  CB       -30.8920  -13.1210  -28.0450 C.3    84  THR84       0.1784
     42  OG1      -32.1540  -13.2020  -27.3820 O.3    84  THR84      -0.2211
     43  CG2      -30.4230  -11.6720  -28.0780 C.3    84  THR84       0.0376
     44  N        -32.3500  -15.6570  -30.0350 N.am   85  GLY85      -0.1956
     45  CA       -32.7110  -17.0610  -29.9360 C.3    85  GLY85       0.1869
     46  C        -34.1150  -17.3610  -30.3830 C.2    85  GLY85       0.2309
     47  O        -34.9090  -16.4610  -30.6040 O.2    85  GLY85      -0.2863
     48  N        -29.9500  -19.4940  -25.8270 N.3   117  PRO117     -0.2102
     49  CA       -29.7110  -18.6740  -24.6370 C.3   117  PRO117      0.1504
     50  C        -30.5760  -18.9810  -23.4020 C.2   117  PRO117      0.2575
     51  O        -30.4060  -18.3170  -22.3880 O.2   117  PRO117     -0.2718
     52  CB       -30.1190  -17.2970  -25.1390 C.3   117  PRO117      0.0282
     53  CG       -31.3290  -17.6110  -25.9660 C.3   117  PRO117      0.0208
     54  CD       -30.9690  -18.8770  -26.6980 C.3   117  PRO117      0.0893
     55  N        -31.5030  -19.9340  -23.4730 N.am  118  PHE118     -0.1977
     56  CA       -32.5790  -19.9820  -22.4630 C.3   118  PHE118      0.1639
     57  C        -32.1890  -20.5150  -21.0980 C.2   118  PHE118      0.2290
     58  O        -32.8690  -20.2120  -20.1290 O.2   118  PHE118     -0.2864
     59  CB       -33.8340  -20.6580  -23.0170 C.3   118  PHE118      0.0560
     60  CG       -34.4960  -19.8430  -24.0790 C.ar  118  PHE118     -0.0200
     61  CD1      -35.2060  -18.7100  -23.7320 C.ar  118  PHE118     -0.0042
     62  CD2      -34.3450  -20.1580  -25.4260 C.ar  118  PHE118     -0.0042
     63  CE1      -35.7880  -17.9140  -24.7110 C.ar  118  PHE118     -0.0003
     64  CE2      -34.9310  -19.3700  -26.4080 C.ar  118  PHE118     -0.0003
     65  CZ       -35.6490  -18.2470  -26.0490 C.ar  118  PHE118     -0.0000
     66  N        -29.7740  -19.1420  -19.6950 N.3   120  LEU120     -0.1231
     67  CA       -29.3630  -17.8860  -19.0780 C.3   120  LEU120      0.1693
     68  C        -30.5500  -16.9880  -18.7370 C.2   120  LEU120      0.2591
     69  O        -30.3420  -15.8760  -18.2570 O.2   120  LEU120     -0.2718
     70  CB       -28.3590  -17.1510  -19.9670 C.3   120  LEU120      0.0284
     71  CG       -27.1240  -17.9540  -20.3840 C.3   120  LEU120      0.0019
     72  CD1      -26.1880  -17.0770  -21.2050 C.3   120  LEU120      0.0001
     73  CD2      -26.3870  -18.5300  -19.1810 C.3   120  LEU120      0.0001
     74  N        -31.7790  -17.4680  -18.9590 N.am  121  ALA121     -0.1980
     75  CA       -32.9920  -16.7140  -18.6260 C.3   121  ALA121      0.1597
     76  C        -33.4810  -17.0840  -17.2280 C.2   121  ALA121      0.2287
     77  O        -33.6860  -18.2650  -16.9290 O.2   121  ALA121     -0.2864
     78  CB       -34.0880  -16.9900  -19.6500 C.3   121  ALA121      0.0319
     79  N        -36.3470  -15.7080  -16.3560 N.3   123  PHE123     -0.1241
     80  CA       -37.7280  -15.8630  -16.7710 C.3   123  PHE123      0.1605
     81  C        -37.9490  -17.2180  -17.4370 C.2   123  PHE123      0.2264
     82  O        -37.0030  -17.8450  -17.9400 O.2   123  PHE123     -0.2867
     83  CB       -38.1830  -14.7050  -17.6870 C.3   123  PHE123      0.0534
     84  CG       -37.4100  -14.5870  -18.9820 C.ar  123  PHE123     -0.0203
     85  CD1      -36.2720  -13.7780  -19.0680 C.ar  123  PHE123     -0.0042
     86  CD2      -37.8350  -15.2520  -20.1240 C.ar  123  PHE123     -0.0042
     87  CE1      -35.5760  -13.6540  -20.2590 C.ar  123  PHE123     -0.0003
     88  CE2      -37.1340  -15.1320  -21.3120 C.ar  123  PHE123     -0.0003
     89  CZ       -36.0000  -14.3340  -21.3780 C.ar  123  PHE123     -0.0000
     90  N        -42.4220  -15.4220  -22.2310 N.3   126  VAL126     -0.1245
     91  CA       -42.5730  -14.0570  -22.7180 C.3   126  VAL126      0.1561
     92  C        -44.0410  -13.7550  -22.9180 C.2   126  VAL126      0.2260
     93  O        -44.7890  -14.6050  -23.3890 O.2   126  VAL126     -0.2867
     94  CB       -41.8310  -13.8330  -24.0610 C.3   126  VAL126      0.0252
     95  CG1      -41.9710  -12.3890  -24.5260 C.3   126  VAL126      0.0019
     96  CG2      -40.3570  -14.1970  -23.9260 C.3   126  VAL126      0.0019
     97  N        -38.4510   -5.8120  -23.9880 N.3   223  GLY223     -0.1225
     98  CA       -37.7890   -7.1130  -23.8810 C.3   223  GLY223      0.1811
     99  C        -36.3120   -7.1230  -24.2370 C.2   223  GLY223      0.2280
    100  O        -35.6640   -8.1440  -24.0990 O.2   223  GLY223     -0.2866
    101  N        -30.6160   -4.0530  -23.6570 N.3   226  TYR226     -0.1241
    102  CA       -29.7050   -2.9790  -23.9750 C.3   226  TYR226      0.1605
    103  C        -30.2870   -2.0050  -24.9850 C.2   226  TYR226      0.2264
    104  O        -31.3780   -2.1950  -25.5330 O.2   226  TYR226     -0.2867
    105  CB       -28.4110   -3.5770  -24.5150 C.3   226  TYR226      0.0534
    106  CG       -27.9160   -4.7300  -23.6730 C.ar  226  TYR226     -0.0201
    107  CD1      -27.4040   -4.5210  -22.3860 C.ar  226  TYR226     -0.0009
    108  CD2      -27.9950   -6.0470  -24.1540 C.ar  226  TYR226     -0.0009
    109  CE1      -26.9630   -5.5860  -21.6130 C.ar  226  TYR226      0.0417
    110  CE2      -27.5570   -7.1210  -23.3940 C.ar  226  TYR226      0.0417
    111  CZ       -27.0420   -6.8930  -22.1310 C.ar  226  TYR226      0.1957
    112  OH       -26.6240   -7.9830  -21.4030 O.3   226  TYR226     -0.2866
    113  N        -19.7020  -10.9930  -27.5470 N.3   248  PHE248     -0.1241
    114  CA       -21.1050  -10.6370  -27.2840 C.3   248  PHE248      0.1605
    115  C        -21.3170   -9.2190  -26.7710 C.2   248  PHE248      0.2264
    116  O        -22.4540   -8.8070  -26.5580 O.2   248  PHE248     -0.2867
    117  CB       -21.7030  -11.6160  -26.2760 C.3   248  PHE248      0.0534
    118  CG       -21.6310  -13.0450  -26.7200 C.ar  248  PHE248     -0.0203
    119  CD1      -22.3410  -13.4710  -27.8430 C.ar  248  PHE248     -0.0042
    120  CD2      -20.8560  -13.9700  -26.0260 C.ar  248  PHE248     -0.0042
    121  CE1      -22.2790  -14.7910  -28.2620 C.ar  248  PHE248     -0.0003
    122  CE2      -20.7940  -15.2920  -26.4400 C.ar  248  PHE248     -0.0003
    123  CZ       -21.5030  -15.7010  -27.5610 C.ar  248  PHE248     -0.0000
@<TRIPOS>BOND
     1    28    27    2
     2    25    26    1
     3    27    26    1
     4    26    29    1
     5    47    46    2
     6    46    45    1
     7    37    38    1
     8    44    45    1
     9    44    39   am
    10    29    30    1
    11    38    39    1
    12    38    41    1
    13    30    31   ar
    14    30    32   ar
    15    39    40    2
    16    31    33   ar
    17    32    34   ar
    18    33    35   ar
    19    34    35   ar
    20    35    36    1
    21   121   119   ar
    22   121   123   ar
    23    43    41    1
    24    41    42    1
    25   119   118   ar
    26   123   122   ar
    27   113   114    1
    28   114   115    1
    29   114   117    1
    30    24    22   ar
    31   115   116    2
    32   118   117    1
    33   118   120   ar
    34    54    53    1
    35    54    48    1
    36    23    22   ar
    37   122   120   ar
    38    64    65   ar
    39    64    62   ar
    40    22    21    1
    41    20    19    2
    42    65    63   ar
    43    53    52    1
    44    48    49    1
    45    19    18    1
    46   104   103    2
    47    62    60   ar
    48    52    49    1
    49    21    18    1
    50   103   102    1
    51    63    61   ar
    52    49    50    1
    53    95    94    1
    54   105   102    1
    55   105   106    1
    56    18    17    1
    57    99   100    2
    58    99    98    1
    59   108   106   ar
    60   108   110   ar
    61    60    61   ar
    62    60    59    1
    63    94    96    1
    64    94    91    1
    65    97    98    1
    66   102   101    1
    67   106   107   ar
    68    55    50   am
    69    55    56    1
    70    50    51    2
    71   110   111   ar
    72    93    92    2
    73    59    56    1
    74    92    91    1
    75    91    90    1
    76    56    57    1
    77   107   109   ar
    78   111   109   ar
    79   111   112    1
    80    89    88   ar
    81    89    87   ar
    82    15    14    1
    83    88    86   ar
    84    72    71    1
    85    13    12    2
    86    57    58    2
    87    14    16    1
    88    14    11    1
    89    12    11    1
    90    71    70    1
    91    71    73    1
    92    87    85   ar
    93    86    84   ar
    94    70    67    1
    95    66    67    1
    96    78    75    1
    97    11    10    1
    98    67    68    1
    99    85    84   ar
   100    84    83    1
   101    74    68   am
   102    74    75    1
   103    68    69    2
   104    75    76    1
   105     9     7   am
   106     6     7    1
   107     6     5    1
   108    82    81    2
   109     7     8    2
   110    83    80    1
   111    81    80    1
   112    76    77    2
   113     2     1    1
   114     2     5    1
   115     2     3    1
   116    80    79    1
   117     3     4    2
