@<TRIPOS>MOLECULE
tmp/5syiB02.pdb
 100 98 0 0 0
SMALL
GASTEIGER

@<TRIPOS>ATOM
      1  N         -8.8310  -42.5900   23.6230 N.3    73  ARG73      -0.1245
      2  CA        -7.9680  -42.9860   22.5240 C.3    73  ARG73       0.1563
      3  C         -8.7670  -43.2450   21.2400 C.2    73  ARG73       0.2260
      4  O         -8.3350  -42.8300   20.1600 O.2    73  ARG73      -0.2867
      5  CB        -7.2820  -44.3410   22.8790 C.3    73  ARG73       0.0307
      6  CG        -6.3890  -44.9030   21.8210 C.3    73  ARG73       0.0489
      7  CD        -5.7330  -46.1920   22.2810 C.3    73  ARG73       0.2205
      8  NE        -5.1290  -46.9320   21.1850 N.pl3  73  ARG73      -0.0865
      9  CZ        -5.5210  -48.1190   20.7780 C.cat  73  ARG73       0.5346
     10  NH1       -6.3390  -48.9010   21.4250 N.pl3  73  ARG73       0.1354
     11  NH2       -5.0420  -48.5300   19.6230 N.pl3  73  ARG73       0.1354
     12  N         -9.6490  -39.7830   19.8580 N.3    76  TRP76      -0.1227
     13  CA        -8.4270  -39.2030   19.3750 C.3    76  TRP76       0.1737
     14  C         -8.0360  -39.8430   18.0290 C.2    76  TRP76       0.2595
     15  O         -7.7090  -39.1450   17.0050 O.2    76  TRP76      -0.2718
     16  CB        -7.3340  -39.1420   20.4180 C.3    76  TRP76       0.0564
     17  CG        -5.9280  -39.2920   19.9670 C.ar   76  TRP76       0.0003
     18  CD1       -5.0680  -40.3380   20.2920 C.ar   76  TRP76       0.0946
     19  CD2       -5.1930  -38.4900   19.0620 C.ar   76  TRP76       0.0152
     20  NE1       -3.8750  -40.2380   19.6580 N.ar   76  TRP76      -0.2442
     21  CE2       -3.9390  -39.1220   18.8460 C.ar   76  TRP76       0.0810
     22  CE3       -5.4510  -37.3120   18.3750 C.ar   76  TRP76       0.0012
     23  CZ2       -3.0130  -38.6200   17.9890 C.ar   76  TRP76       0.0191
     24  CZ3       -4.4640  -36.7790   17.5340 C.ar   76  TRP76       0.0001
     25  CH2       -3.2980  -37.5310   17.2800 C.ar   76  TRP76       0.0015
     26  N         -8.0220  -41.1540   17.9450 N.am   77  HIS77      -0.1975
     27  CA        -7.6990  -41.7350   16.6780 C.3    77  HIS77       0.1656
     28  C         -8.6670  -41.4850   15.5490 C.2    77  HIS77       0.2291
     29  O         -8.2340  -41.4360   14.3600 O.2    77  HIS77      -0.2864
     30  CB        -7.4460  -43.2590   16.8170 C.3    77  HIS77       0.0771
     31  CG        -6.1420  -43.5540   17.5000 C.ar   77  HIS77       0.0820
     32  ND1       -5.4970  -44.7950   17.4020 N.ar   77  HIS77      -0.2267
     33  CD2       -5.3840  -42.8310   18.3100 C.ar   77  HIS77       0.1154
     34  CE1       -4.3650  -44.7640   18.0900 C.ar   77  HIS77       0.1986
     35  NE2       -4.2490  -43.5970   18.6190 N.ar   77  HIS77      -0.2212
     36  N         -2.5990  -50.8470   12.3830 N.3   105  PRO105     -0.2102
     37  CA        -2.0170  -51.2740   13.6940 C.3   105  PRO105      0.1504
     38  C         -2.2110  -50.3100   14.8040 C.2   105  PRO105      0.2575
     39  O         -2.4920  -50.7170   15.9300 O.2   105  PRO105     -0.2718
     40  CB        -0.4800  -51.3590   13.3820 C.3   105  PRO105      0.0282
     41  CG        -0.4320  -51.5510   11.9100 C.3   105  PRO105      0.0208
     42  CD        -1.6780  -50.9650   11.2300 C.3   105  PRO105      0.0893
     43  N         -2.1350  -49.0280   14.5540 N.am  106  ALA106     -0.1980
     44  CA        -2.3770  -48.0560   15.5960 C.3   106  ALA106      0.1597
     45  C         -3.8090  -48.0010   16.1020 C.2   106  ALA106      0.2287
     46  O         -4.0280  -47.4670   17.2180 O.2   106  ALA106     -0.2864
     47  CB        -1.9520  -46.6550   15.2350 C.3   106  ALA106      0.0319
     48  N          0.3270  -45.7620   11.3190 N.3   201  LEU201     -0.1231
     49  CA         0.4050  -44.9490   12.5200 C.3   201  LEU201      0.1693
     50  C         -0.5030  -43.7190   12.3860 C.2   201  LEU201      0.2591
     51  O         -0.8260  -43.2880   11.2840 O.2   201  LEU201     -0.2718
     52  CB         1.8710  -44.5840   12.8840 C.3   201  LEU201      0.0284
     53  CG         2.7550  -45.7720   13.2780 C.3   201  LEU201      0.0019
     54  CD1        4.1420  -45.1770   13.7090 C.3   201  LEU201      0.0001
     55  CD2        2.0870  -46.6120   14.3240 C.3   201  LEU201      0.0001
     56  N         -0.7870  -43.0650   13.4940 N.am  202  ILE202     -0.1980
     57  CA        -1.6250  -41.8940   13.5010 C.3   202  ILE202      0.1595
     58  C         -0.7460  -40.6560   13.3020 C.2   202  ILE202      0.2287
     59  O         -0.9660  -39.8960   12.2900 O.2   202  ILE202     -0.2864
     60  CB        -2.3970  -41.7690   14.8200 C.3   202  ILE202      0.0276
     61  CG1       -3.2110  -42.9760   15.1660 C.3   202  ILE202      0.0022
     62  CG2       -3.2710  -40.4650   14.8750 C.3   202  ILE202      0.0022
     63  CD1       -4.2220  -43.3680   14.1120 C.3   202  ILE202      0.0001
     64  N          3.0790  -40.3560   15.0980 N.3   204  VAL204     -0.1245
     65  CA         4.4880  -40.7590   15.2650 C.3   204  VAL204      0.1561
     66  C          4.6230  -42.1110   15.9040 C.2   204  VAL204      0.2260
     67  O          3.6410  -42.7140   16.3590 O.2   204  VAL204     -0.2867
     68  CB         5.3360  -39.7590   16.0740 C.3   204  VAL204      0.0252
     69  CG1        5.2350  -38.3580   15.5230 C.3   204  VAL204      0.0019
     70  CG2        4.8780  -39.7340   17.5390 C.3   204  VAL204      0.0019
     71  N          5.7010  -44.3250   18.9720 N.3   206  PRO206     -0.2116
     72  CA         5.8800  -44.0660   20.4400 C.3   206  PRO206      0.1372
     73  C          7.2680  -44.5120   20.9760 C.2   206  PRO206      0.2244
     74  O          7.5590  -44.1410   22.0930 O.2   206  PRO206     -0.2868
     75  CB         4.8170  -44.9330   21.0690 C.3   206  PRO206      0.0268
     76  CG         4.5880  -46.1040   20.0850 C.3   206  PRO206      0.0207
     77  CD         4.6690  -45.3390   18.7280 C.3   206  PRO206      0.0892
     78  N         -2.6540  -38.4100   27.9070 N.3   244  HIS244     -0.1241
     79  CA        -1.8610  -39.3590   28.7270 C.3   244  HIS244      0.1621
     80  C         -1.9890  -39.0760   30.2010 C.2   244  HIS244      0.2264
     81  O         -1.3050  -39.7250   31.0640 O.2   244  HIS244     -0.2867
     82  CB        -0.4160  -39.4430   28.2090 C.3   244  HIS244      0.0745
     83  CG        -0.3350  -40.0920   26.8560 C.ar  244  HIS244      0.0817
     84  ND1        0.8030  -40.2350   26.1260 N.ar  244  HIS244     -0.2268
     85  CD2       -1.3280  -40.5590   26.0600 C.ar  244  HIS244      0.1154
     86  CE1        0.5450  -40.7920   24.9510 C.ar  244  HIS244      0.1986
     87  NE2       -0.7710  -41.0160   24.8670 N.ar  244  HIS244     -0.2212
     88  N         -1.8070  -54.4500   22.8370 N.3   288  THR288     -0.1203
     89  CA        -2.2710  -53.5240   21.8030 C.3   288  THR288      0.1994
     90  C         -1.0770  -52.9880   21.0770 C.2   288  THR288      0.2618
     91  O         -0.8620  -53.3010   19.9080 O.2   288  THR288     -0.2717
     92  CB        -3.1370  -52.4750   22.4460 C.3   288  THR288      0.1784
     93  OG1       -4.3070  -53.1060   23.0270 O.3   288  THR288     -0.2211
     94  CG2       -3.5970  -51.3770   21.4350 C.3   288  THR288      0.0376
     95  N         -0.3200  -52.0860   21.6970 N.am  289  SER289     -0.1951
     96  CA         0.8550  -51.4920   21.0840 C.3   289  SER289      0.1924
     97  C          2.1550  -52.2910   21.3930 C.2   289  SER289      0.2314
     98  O          3.1250  -52.0500   20.7700 O.2   289  SER289     -0.2863
     99  CB         1.1300  -50.0860   21.6400 C.3   289  SER289      0.2116
    100  OG         1.2640  -50.0690   23.0490 O.3   289  SER289     -0.2180
@<TRIPOS>BOND
     1    42    41    1
     2    42    36    1
     3    51    50    2
     4    48    49    1
     5    41    40    1
     6    59    58    2
     7    36    37    1
     8    50    49    1
     9    50    56   am
    10    49    52    1
    11    52    53    1
    12    53    54    1
    13    53    55    1
    14    58    57    1
    15    40    37    1
    16    56    57    1
    17    57    60    1
    18    37    38    1
    19    63    61    1
    20    29    28    2
    21    43    38   am
    22    43    44    1
    23    38    39    2
    24    60    62    1
    25    60    61    1
    26    64    65    1
    27    47    44    1
    28    65    66    1
    29    65    68    1
    30    69    68    1
    31    28    27    1
    32    44    45    1
    33    66    67    2
    34    68    70    1
    35    45    46    2
    36    27    30    1
    37    27    26    1
    38    30    31    1
    39    15    14    2
    40    25    24   ar
    41    25    23   ar
    42    32    31   ar
    43    32    34   ar
    44    31    33   ar
    45    24    22   ar
    46    26    14   am
    47    23    21   ar
    48    14    13    1
    49    34    35   ar
    50    33    35   ar
    51    22    19   ar
    52    77    71    1
    53    77    76    1
    54    21    19   ar
    55    21    20   ar
    56    71    72    1
    57    19    17   ar
    58    13    12    1
    59    13    16    1
    60    11     9    1
    61    20    18   ar
    62    91    90    2
    63    17    18   ar
    64    17    16    1
    65    76    75    1
    66     4     3    2
    67    72    73    1
    68    72    75    1
    69    98    97    2
    70     9     8    2
    71     9    10    1
    72    73    74    2
    73    90    95   am
    74    90    89    1
    75    96    97    1
    76    96    99    1
    77    96    95    1
    78     8     7    1
    79     3     2    1
    80    94    92    1
    81    99   100    1
    82    89    92    1
    83    89    88    1
    84     6     7    1
    85     6     5    1
    86    92    93    1
    87     2     5    1
    88     2     1    1
    89    87    86   ar
    90    87    85   ar
    91    86    84   ar
    92    85    83   ar
    93    84    83   ar
    94    83    82    1
    95    78    79    1
    96    82    79    1
    97    79    80    1
    98    80    81    2
