@<TRIPOS>MOLECULE
tmp/5symA00.pdb
 207 201 0 0 0
SMALL
GASTEIGER

@<TRIPOS>ATOM
      1  N        -16.2900  -20.9480   -4.0230 N.3    23  LEU23      -0.1245
      2  CA       -16.1960  -21.4620   -2.6500 C.3    23  LEU23       0.1561
      3  C        -17.4760  -22.1240   -2.2160 C.2    23  LEU23       0.2260
      4  O        -18.5600  -21.6010   -2.4680 O.2    23  LEU23      -0.2867
      5  CB       -15.9070  -20.3060   -1.6680 C.3    23  LEU23       0.0270
      6  CG       -15.6640  -20.6540   -0.2160 C.3    23  LEU23       0.0019
      7  CD1      -14.2300  -21.0530   -0.0120 C.3    23  LEU23       0.0001
      8  CD2      -15.9860  -19.4870    0.6930 C.3    23  LEU23       0.0001
      9  N        -10.0740  -18.0890    6.1530 N.3    56  LEU56      -0.1245
     10  CA       -11.0160  -16.9930    6.3060 C.3    56  LEU56       0.1561
     11  C        -12.1900  -17.3700    7.2110 C.2    56  LEU56       0.2260
     12  O        -12.7270  -16.5050    7.8830 O.2    56  LEU56      -0.2867
     13  CB       -11.5620  -16.6190    4.9250 C.3    56  LEU56       0.0270
     14  CG       -12.4400  -15.3730    4.8250 C.3    56  LEU56       0.0019
     15  CD1      -11.6030  -14.1490    4.7060 C.3    56  LEU56       0.0001
     16  CD2      -13.3620  -15.4450    3.5990 C.3    56  LEU56       0.0001
     17  N         -8.3040  -23.4940   -3.3950 N.3    66  PHE66      -0.1241
     18  CA        -7.1210  -23.0580   -2.6780 C.3    66  PHE66       0.1605
     19  C         -7.5820  -22.2940   -1.4340 C.2    66  PHE66       0.2264
     20  O         -8.7790  -21.9960   -1.3130 O.2    66  PHE66      -0.2867
     21  CB        -6.1830  -22.2110   -3.5890 C.3    66  PHE66       0.0534
     22  CG        -6.8350  -21.1090   -4.3800 C.ar   66  PHE66      -0.0203
     23  CD1       -7.1310  -19.8930   -3.7920 C.ar   66  PHE66      -0.0042
     24  CD2       -7.1880  -21.3020   -5.7050 C.ar   66  PHE66      -0.0042
     25  CE1       -7.6940  -18.8610   -4.5370 C.ar   66  PHE66      -0.0003
     26  CE2       -7.8400  -20.3080   -6.4140 C.ar   66  PHE66      -0.0003
     27  CZ        -8.0530  -19.0800   -5.8430 C.ar   66  PHE66      -0.0000
     28  N         -8.2270  -19.2530    1.3000 N.3    68  ILE68      -0.1231
     29  CA        -8.6170  -17.8510    1.2680 C.3    68  ILE68       0.1692
     30  C         -8.2360  -17.2720    2.6030 C.2    68  ILE68       0.2592
     31  O         -8.6230  -17.8220    3.6290 O.2    68  ILE68      -0.2718
     32  CB       -10.1370  -17.6580    0.9850 C.3    68  ILE68       0.0266
     33  CG1      -10.5860  -18.3210   -0.3290 C.3    68  ILE68       0.0019
     34  CG2      -10.4780  -16.1760    0.9960 C.3    68  ILE68       0.0020
     35  CD1       -9.8680  -17.7560   -1.6300 C.3    68  ILE68       0.0001
     36  N         -7.4610  -16.1870    2.6090 N.am   69  ILE69      -0.1966
     37  CA        -6.9860  -15.5760    3.8540 C.3    69  ILE69       0.1727
     38  C         -7.6450  -14.2140    4.1220 C.2    69  ILE69       0.2617
     39  O         -7.8340  -13.8520    5.2690 O.2    69  ILE69      -0.2715
     40  CB        -5.4460  -15.4880    3.7960 C.3    69  ILE69       0.0290
     41  CG1       -4.8540  -16.9260    3.7000 C.3    69  ILE69       0.0022
     42  CG2       -4.8510  -14.7510    5.0300 C.3    69  ILE69       0.0023
     43  CD1       -3.8990  -17.0720    2.7240 C.3    69  ILE69       0.0001
     44  N         -8.0080  -13.4690    3.0960 N.am   70  GLY70      -0.1940
     45  CA        -8.6560  -12.1870    3.3180 C.3    70  GLY70       0.2014
     46  C         -9.2820  -11.6730    2.0510 C.2    70  GLY70       0.2639
     47  O         -9.1540  -12.3100    1.0030 O.2    70  GLY70      -0.2714
     48  N         -9.9920  -10.5380    2.1670 N.am   71  LEU71      -0.1963
     49  CA       -10.7600   -9.9410    1.0840 C.3    71  LEU71       0.1728
     50  C        -10.3200   -8.5250    0.7260 C.2    71  LEU71       0.2617
     51  O        -10.9760   -7.9120   -0.1110 O.2    71  LEU71      -0.2715
     52  CB       -12.2330   -9.8590    1.5340 C.3    71  LEU71       0.0311
     53  CG       -12.8480  -11.0640    2.2170 C.3    71  LEU71       0.0022
     54  CD1      -14.2480  -10.7450    2.6900 C.3    71  LEU71       0.0001
     55  CD2      -12.8900  -12.2450    1.3090 C.3    71  LEU71       0.0001
     56  N         -9.2750   -7.9670    1.3720 N.am   72  SER72      -0.1936
     57  CA        -8.8680   -6.5700    1.1700 C.3    72  SER72       0.2040
     58  C         -7.6620   -6.4750    0.2420 C.2    72  SER72       0.2485
     59  O         -6.9700   -7.4740    0.0850 O.2    72  SER72      -0.2729
     60  CB        -8.5610   -5.9130    2.5160 C.3    72  SER72       0.2129
     61  OG        -7.2610   -6.2000    3.0060 O.3    72  SER72      -0.2179
     62  N         -7.3740   -5.3000   -0.3710 N.am   73  PRO73      -0.2726
     63  CA        -6.2110   -5.1940   -1.2790 C.3    73  PRO73       0.1402
     64  C         -4.8730   -5.6340   -0.6850 C.2    73  PRO73       0.2269
     65  O         -4.0730   -6.2250   -1.4140 O.2    73  PRO73      -0.2865
     66  CB        -6.1840   -3.7090   -1.6460 C.3    73  PRO73       0.0296
     67  CG        -7.5700   -3.2500   -1.4520 C.3    73  PRO73       0.0237
     68  CD        -8.0920   -4.0120   -0.2860 C.3    73  PRO73       0.0939
     69  N         -4.5550   -8.0000    1.5840 N.3    75  SER75      -0.1202
     70  CA        -4.6470   -9.3790    2.0770 C.3    75  SER75       0.2020
     71  C         -3.7300  -10.3290    1.3170 C.2    75  SER75       0.2619
     72  O         -3.5540  -10.1970    0.1090 O.2    75  SER75      -0.2717
     73  CB        -6.0810   -9.9050    1.9880 C.3    75  SER75       0.2103
     74  OG        -6.9850   -9.1270    2.7530 O.3    75  SER75      -0.2182
     75  N         -3.1370  -11.2790    2.0360 N.am   76  GLN76      -0.1965
     76  CA        -2.2560  -12.2910    1.4680 C.3    76  GLN76       0.1733
     77  C         -3.1000  -13.3110    0.7150 C.2    76  GLN76       0.2616
     78  O         -4.2680  -13.5080    1.0580 O.2    76  GLN76      -0.2715
     79  CB        -1.4660  -12.9690    2.6170 C.3    76  GLN76       0.0408
     80  CG        -0.4020  -14.0010    2.2140 C.3    76  GLN76       0.0908
     81  CD        -0.1440  -14.9700    3.3430 C.2    76  GLN76       0.2608
     82  OE1        0.8320  -14.8670    4.0830 O.2    76  GLN76      -0.2717
     83  NE2       -0.9460  -15.9950    3.4020 N.am   76  GLN76      -0.0878
     84  N         -2.5520  -13.8820   -0.3670 N.am   77  GLU77      -0.1977
     85  CA        -3.2190  -14.9400   -1.1240 C.3    77  GLU77       0.1602
     86  C         -2.3680  -16.1970   -0.9620 C.2    77  GLU77       0.2287
     87  O         -1.1910  -16.1220   -0.5650 O.2    77  GLU77      -0.2864
     88  CB        -3.4440  -14.5530   -2.5890 C.3    77  GLU77       0.0415
     89  CG        -4.5800  -13.5540   -2.7230 C.3    77  GLU77       0.1163
     90  CD        -4.9280  -13.2040   -4.1550 C.2    77  GLU77       0.3649
     91  OE1       -4.1140  -12.5150   -4.8140 O.co2  77  GLU77      -0.2457
     92  OE2       -6.0250  -13.6000   -4.6130 O.co2  77  GLU77      -0.2457
     93  N        -16.0720  -16.5770   -9.2420 N.3   112  SER112     -0.1202
     94  CA       -15.4280  -16.1530   -8.0080 C.3   112  SER112      0.2020
     95  C        -14.0240  -16.8280   -7.8980 C.2   112  SER112      0.2618
     96  O        -13.2440  -16.6700   -8.8380 O.2   112  SER112     -0.2717
     97  CB       -16.3730  -16.3750   -6.8300 C.3   112  SER112      0.2103
     98  OG       -16.0180  -15.5510   -5.7320 O.3   112  SER112     -0.2182
     99  N        -13.6720  -17.5700   -6.8290 N.am  113  GLN113     -0.1979
    100  CA       -12.3220  -18.1570   -6.7720 C.3   113  GLN113      0.1601
    101  C        -12.0520  -19.0600   -7.9810 C.2   113  GLN113      0.2287
    102  O        -10.9210  -19.1490   -8.4290 O.2   113  GLN113     -0.2864
    103  CB       -12.0670  -18.9080   -5.4600 C.3   113  GLN113      0.0394
    104  CG       -12.9000  -20.1510   -5.2340 C.3   113  GLN113      0.0908
    105  CD       -12.3100  -21.1940   -4.2950 C.2   113  GLN113      0.2608
    106  OE1      -12.8060  -22.3140   -4.2600 O.2   113  GLN113     -0.2717
    107  NE2      -11.2480  -20.9230   -3.5230 N.am  113  GLN113     -0.0878
    108  N        -11.5960  -11.9980   -9.6390 N.3   138  TRP138     -0.1227
    109  CA       -10.4420  -11.1220   -9.6310 C.3   138  TRP138      0.1737
    110  C         -9.2240  -11.8710  -10.1710 C.2   138  TRP138      0.2595
    111  O         -9.2550  -13.0950  -10.2620 O.2   138  TRP138     -0.2718
    112  CB       -10.2030  -10.6570   -8.1760 C.3   138  TRP138      0.0564
    113  CG        -9.7370  -11.7510   -7.2840 C.ar  138  TRP138      0.0003
    114  CD1       -8.4450  -12.0860   -7.0300 C.ar  138  TRP138      0.0946
    115  CD2      -10.5430  -12.7770   -6.6820 C.ar  138  TRP138      0.0152
    116  NE1       -8.3890  -13.2240   -6.2710 N.ar  138  TRP138     -0.2442
    117  CE2       -9.6670  -13.6360   -5.9860 C.ar  138  TRP138      0.0810
    118  CE3      -11.9230  -12.9800   -6.5500 C.ar  138  TRP138      0.0012
    119  CZ2      -10.1260  -14.7600   -5.2830 C.ar  138  TRP138      0.0191
    120  CZ3      -12.3710  -14.0770   -5.8290 C.ar  138  TRP138      0.0001
    121  CH2      -11.4790  -14.9460   -5.2110 C.ar  138  TRP138      0.0015
    122  N         -8.1450  -11.1490  -10.5110 N.am  139  LEU139     -0.1980
    123  CA        -6.8890  -11.7920  -10.9300 C.3   139  LEU139      0.1596
    124  C         -6.1160  -12.1050   -9.6700 C.2   139  LEU139      0.2287
    125  O         -5.7940  -11.1570   -8.9500 O.2   139  LEU139     -0.2864
    126  CB        -6.0610  -10.8950  -11.8610 C.3   139  LEU139      0.0297
    127  CG        -4.7020  -11.4380  -12.2760 C.3   139  LEU139      0.0022
    128  CD1       -4.8330  -12.6140  -13.2040 C.3   139  LEU139      0.0001
    129  CD2       -3.8860  -10.3690  -13.0020 C.3   139  LEU139      0.0001
    130  N         -1.8550  -10.9360   -8.4170 N.3   142  ARG142     -0.1245
    131  CA        -1.7130   -9.8990   -9.4370 C.3   142  ARG142      0.1563
    132  C         -0.3040   -9.2950   -9.4840 C.2   142  ARG142      0.2260
    133  O          0.1770   -9.0100  -10.5870 O.2   142  ARG142     -0.2867
    134  CB        -2.7690   -8.8120   -9.2350 C.3   142  ARG142      0.0307
    135  CG        -2.6210   -7.9760   -7.9840 C.3   142  ARG142      0.0489
    136  CD        -3.8980   -7.2100   -7.7400 C.3   142  ARG142      0.2205
    137  NE        -3.7650   -6.3340   -6.5830 N.pl3 142  ARG142     -0.0865
    138  CZ        -3.9140   -6.7060   -5.3180 C.cat 142  ARG142      0.5346
    139  NH1       -4.2290   -7.9670   -5.0170 N.pl3 142  ARG142      0.1354
    140  NH2       -3.7650   -5.8210   -4.3400 N.pl3 142  ARG142      0.1354
    141  N        -19.6650   -9.1580   -2.0730 N.3   169  LEU169     -0.1231
    142  CA       -18.5400   -9.9820   -1.6410 C.3   169  LEU169      0.1693
    143  C        -17.2640   -9.7190   -2.4350 C.2   169  LEU169      0.2592
    144  O        -16.2090   -9.5710   -1.8320 O.2   169  LEU169     -0.2718
    145  CB       -18.9640  -11.4520   -1.7600 C.3   169  LEU169      0.0284
    146  CG       -18.0300  -12.4850   -1.2000 C.3   169  LEU169      0.0019
    147  CD1      -17.7940  -12.2910    0.3180 C.3   169  LEU169      0.0001
    148  CD2      -18.5770  -13.8670   -1.4420 C.3   169  LEU169      0.0001
    149  N        -17.3350   -9.7090   -3.7730 N.am  170  VAL170     -0.1966
    150  CA       -16.2080   -9.3590   -4.6240 C.3   170  VAL170      0.1712
    151  C        -16.5580   -7.9870   -5.1760 C.2   170  VAL170      0.2458
    152  O        -17.3610   -7.9360   -6.1070 O.2   170  VAL170     -0.2730
    153  CB       -15.9000  -10.3640   -5.7700 C.3   170  VAL170      0.0289
    154  CG1      -14.6480   -9.9250   -6.5410 C.3   170  VAL170      0.0023
    155  CG2      -15.7180  -11.7820   -5.2300 C.3   170  VAL170      0.0023
    156  N        -16.0840   -6.8650   -4.5930 N.am  171  PRO171     -0.2727
    157  CA       -16.4490   -5.5410   -5.1270 C.3   171  PRO171      0.1402
    158  C        -16.3060   -5.3840   -6.6460 C.2   171  PRO171      0.2269
    159  O        -15.3510   -5.8930   -7.2430 O.2   171  PRO171     -0.2865
    160  CB       -15.4620   -4.6040   -4.4180 C.3   171  PRO171      0.0296
    161  CG       -15.1390   -5.2860   -3.1650 C.3   171  PRO171      0.0237
    162  CD       -15.1260   -6.7370   -3.4790 C.3   171  PRO171      0.0939
    163  N        -12.8960   -4.4710   -7.8160 N.3   174  PHE174     -0.1241
    164  CA       -11.8450   -5.4730   -8.0620 C.3   174  PHE174      0.1605
    165  C        -12.0220   -6.1160   -9.4120 C.2   174  PHE174      0.2264
    166  O        -11.0340   -6.4460  -10.0530 O.2   174  PHE174     -0.2867
    167  CB       -11.8020   -6.5500   -6.9770 C.3   174  PHE174      0.0534
    168  CG       -11.5210   -6.0800   -5.5630 C.ar  174  PHE174     -0.0203
    169  CD1      -11.0560   -4.7880   -5.3090 C.ar  174  PHE174     -0.0042
    170  CD2      -11.6640   -6.9440   -4.4930 C.ar  174  PHE174     -0.0042
    171  CE1      -10.7950   -4.3720   -4.0020 C.ar  174  PHE174     -0.0003
    172  CE2      -11.4210   -6.5200   -3.1940 C.ar  174  PHE174     -0.0003
    173  CZ       -10.9740   -5.2450   -2.9550 C.ar  174  PHE174     -0.0000
    174  N        -10.6090   -3.3210  -11.6790 N.3   177  LEU177     -0.1231
    175  CA        -9.1520   -3.2440  -11.5890 C.3   177  LEU177      0.1693
    176  C         -8.5310   -4.4520  -12.2620 C.2   177  LEU177      0.2592
    177  O         -7.4830   -4.3410  -12.8860 O.2   177  LEU177     -0.2718
    178  CB        -8.6720   -3.1210  -10.1480 C.3   177  LEU177      0.0284
    179  CG        -8.9780   -1.7970   -9.4430 C.3   177  LEU177      0.0019
    180  CD1       -8.7710   -1.9370   -7.9450 C.3   177  LEU177      0.0001
    181  CD2       -8.1180   -0.6620   -9.9810 C.3   177  LEU177      0.0001
    182  N         -9.1920   -5.6190  -12.1660 N.am  178  THR178     -0.1953
    183  CA        -8.6920   -6.8100  -12.8390 C.3   178  THR178      0.1897
    184  C         -8.7160   -6.6340  -14.3640 C.2   178  THR178      0.2313
    185  O         -7.7170   -6.9040  -15.0120 O.2   178  THR178     -0.2863
    186  CB        -9.5090   -8.0350  -12.4220 C.3   178  THR178      0.1794
    187  OG1       -9.2600   -8.3420  -11.0530 O.3   178  THR178     -0.2208
    188  CG2       -9.1890   -9.2860  -13.2840 C.3   178  THR178      0.0378
    189  N         -5.9920   -4.4810  -15.5920 N.3   181  LYS181     -0.1245
    190  CA        -4.7410   -5.2230  -15.5850 C.3   181  LYS181      0.1561
    191  C         -4.6970   -6.2360  -16.7380 C.2   181  LYS181      0.2260
    192  O         -3.6600   -6.3610  -17.3860 O.2   181  LYS181     -0.2867
    193  CB        -4.5460   -5.9190  -14.2340 C.3   181  LYS181      0.0271
    194  CG        -3.2570   -6.7160  -14.0850 C.3   181  LYS181      0.0035
    195  CD        -2.0270   -5.8470  -14.1760 C.3   181  LYS181      0.0206
    196  CE        -0.8170   -6.5870  -13.6720 C.3   181  LYS181      0.1093
    197  NZ         0.4180   -5.8070  -13.8950 N.3   181  LYS181     -0.1314
    198  N        -23.5260  -11.1900   -5.7980 N.3   201  HIS201     -0.1241
    199  CA       -22.5300  -12.2420   -6.0110 C.3   201  HIS201      0.1621
    200  C        -23.2820  -13.4690   -6.4430 C.2   201  HIS201      0.2264
    201  O        -23.5280  -14.3900   -5.6570 O.2   201  HIS201     -0.2867
    202  CB       -21.6950  -12.4900   -4.7590 C.3   201  HIS201      0.0745
    203  CG       -20.4640  -13.2770   -5.0410 C.ar  201  HIS201      0.0817
    204  ND1      -19.4870  -12.8000   -5.9000 N.ar  201  HIS201     -0.2268
    205  CD2      -20.0960  -14.5020   -4.6100 C.ar  201  HIS201      0.1154
    206  CE1      -18.5530  -13.7280   -5.9300 C.ar  201  HIS201      0.1986
    207  NE2      -18.8760  -14.7690   -5.1640 N.ar  201  HIS201     -0.2212
@<TRIPOS>BOND
     1   192   191    2
     2   191   190    1
     3   189   190    1
     4   190   193    1
     5   185   184    2
     6   184   183    1
     7   193   194    1
     8   195   194    1
     9   195   196    1
    10   197   196    1
    11   188   186    1
    12   128   127    1
    13   129   127    1
    14   177   176    2
    15   183   186    1
    16   183   182    1
    17   186   187    1
    18   127   126    1
    19   176   182   am
    20   176   175    1
    21   126   123    1
    22   174   175    1
    23   175   178    1
    24   123   122    1
    25   123   124    1
    26   133   132    2
    27   122   110   am
    28   111   110    2
    29   110   109    1
    30   178   179    1
    31   166   165    2
    32   181   179    1
    33   124   125    2
    34   108   109    1
    35   109   112    1
    36   132   131    1
    37   179   180    1
    38   131   134    1
    39   131   130    1
    40   165   164    1
    41    93    94    1
    42   134   135    1
    43    96    95    2
    44   102   101    2
    45   112   113    1
    46   164   163    1
    47   164   167    1
    48    94    95    1
    49    94    97    1
    50   135   136    1
    51   101   100    1
    52    95    99   am
    53   136   137    1
    54   113   114   ar
    55   113   115   ar
    56   159   158    2
    57   114   116   ar
    58   167   168    1
    59    97    98    1
    60    99   100    1
    61   100   103    1
    62   115   118   ar
    63   115   117   ar
    64   158   157    1
    65   137   138    2
    66   118   120   ar
    67   154   153    1
    68   200   199    1
    69   200   201    2
    70    26    27   ar
    71    26    24   ar
    72   116   117   ar
    73   152   151    2
    74   199   198    1
    75   199   202    1
    76   117   119   ar
    77   206   204   ar
    78   206   207   ar
    79   204   203   ar
    80    27    25   ar
    81   120   121   ar
    82   153   155    1
    83   153   150    1
    84    24    22   ar
    85   168   169   ar
    86   168   170   ar
    87   103   104    1
    88   138   139    1
    89   138   140    1
    90   169   171   ar
    91   119   121   ar
    92   104   105    1
    93   151   150    1
    94   151   156   am
    95   207   205   ar
    96   157   156    1
    97   157   160    1
    98   203   202    1
    99   203   205   ar
   100    91    90   ar
   101   150   149    1
   102    92    90   ar
   103   156   162    1
   104    25    23   ar
   105   170   172   ar
   106   160   161    1
   107    22    23   ar
   108    22    21    1
   109   105   106    2
   110   105   107   am
   111    90    89    1
   112     1     2    1
   113   171   173   ar
   114   149   143   am
   115    21    18    1
   116   162   161    1
   117    17    18    1
   118   172   173   ar
   119    89    88    1
   120    18    19    1
   121     2     3    1
   122     2     5    1
   123    88    85    1
   124     4     3    2
   125   143   144    2
   126   143   142    1
   127   141   142    1
   128   145   142    1
   129   145   146    1
   130     5     6    1
   131    66    67    1
   132    66    63    1
   133    35    33    1
   134    67    68    1
   135   148   146    1
   136    19    20    2
   137    65    64    2
   138    63    64    1
   139    63    62    1
   140   146   147    1
   141    85    86    1
   142    85    84    1
   143    86    87    2
   144    62    68    1
   145    62    58   am
   146    84    77   am
   147    33    32    1
   148     6     7    1
   149     6     8    1
   150    51    50    2
   151    59    58    2
   152    72    71    2
   153    58    57    1
   154    77    78    2
   155    77    76    1
   156    50    49    1
   157    50    56   am
   158    32    34    1
   159    32    29    1
   160    47    46    2
   161    49    52    1
   162    49    48    1
   163    57    56    1
   164    57    60    1
   165    29    28    1
   166    29    30    1
   167    55    53    1
   168    71    75   am
   169    71    70    1
   170    76    75    1
   171    76    79    1
   172    52    53    1
   173    69    70    1
   174    73    70    1
   175    73    74    1
   176    46    48   am
   177    46    45    1
   178    80    79    1
   179    80    81    1
   180    53    54    1
   181    60    61    1
   182    30    36   am
   183    30    31    2
   184    36    37    1
   185    43    41    1
   186    44    45    1
   187    44    38   am
   188    81    83   am
   189    81    82    2
   190    16    14    1
   191    41    40    1
   192    40    37    1
   193    40    42    1
   194    37    38    1
   195    38    39    2
   196    15    14    1
   197    14    13    1
   198    13    10    1
   199     9    10    1
   200    10    11    1
   201    11    12    2
