@<TRIPOS>MOLECULE
tmp/5synA00.pdb
 193 188 0 0 0
SMALL
GASTEIGER

@<TRIPOS>ATOM
      1  N         27.6470   -2.2220   53.7780 N.3    25  LEU25      -0.1245
      2  CA        28.7020   -3.1010   54.2860 C.3    25  LEU25       0.1561
      3  C         29.5480   -2.3740   55.3450 C.2    25  LEU25       0.2260
      4  O         29.9380   -1.2240   55.1280 O.2    25  LEU25      -0.2867
      5  CB        29.5970   -3.5490   53.1000 C.3    25  LEU25       0.0270
      6  CG        30.7950   -4.4110   53.3780 C.3    25  LEU25       0.0019
      7  CD1       30.3820   -5.8030   53.7550 C.3    25  LEU25       0.0001
      8  CD2       31.7510   -4.4090   52.2020 C.3    25  LEU25       0.0001
      9  N         35.6570  -11.1960   49.8450 N.3    58  LEU58      -0.1231
     10  CA        36.2960  -10.1140   49.1070 C.3    58  LEU58       0.1693
     11  C         37.2830   -9.2690   49.9520 C.2    58  LEU58       0.2592
     12  O         38.2820   -8.7950   49.4090 O.2    58  LEU58      -0.2718
     13  CB        35.2130   -9.2220   48.4910 C.3    58  LEU58       0.0284
     14  CG        35.5550   -8.4970   47.2070 C.3    58  LEU58       0.0019
     15  CD1       36.5150   -9.2710   46.3580 C.3    58  LEU58       0.0001
     16  CD2       34.3180   -8.1590   46.4190 C.3    58  LEU58       0.0001
     17  N         37.0480   -9.1360   51.2660 N.am   59  ASN59      -0.1974
     18  CA        37.9520   -8.4050   52.1490 C.3    59  ASN59       0.1688
     19  C         38.9230   -9.3580   52.8860 C.2    59  ASN59       0.2292
     20  O         39.1160   -9.2000   54.0910 O.2    59  ASN59      -0.2864
     21  CB        37.1500   -7.5750   53.1540 C.3    59  ASN59       0.1181
     22  CG        36.8170   -6.1820   52.6990 C.2    59  ASN59       0.2629
     23  OD1       37.6360   -5.2620   52.7860 O.2    59  ASN59      -0.2716
     24  ND2       35.5860   -5.9830   52.2560 N.am   59  ASN59      -0.0877
     25  N         30.3500  -11.3010   50.1120 N.3    70  LEU70      -0.1231
     26  CA        30.5640  -10.5940   48.8430 C.3    70  LEU70       0.1693
     27  C         31.8300  -11.1670   48.2080 C.2    70  LEU70       0.2592
     28  O         32.8020  -11.4170   48.9270 O.2    70  LEU70      -0.2718
     29  CB        30.6700   -9.0680   49.0100 C.3    70  LEU70       0.0284
     30  CG        29.5290   -8.3450   49.7180 C.3    70  LEU70       0.0019
     31  CD1       29.9620   -6.9490   50.0950 C.3    70  LEU70       0.0001
     32  CD2       28.2870   -8.2870   48.8470 C.3    70  LEU70       0.0001
     33  N         31.7920  -11.4330   46.8880 N.am   71  MET71      -0.1965
     34  CA        32.9060  -12.0790   46.1950 C.3    71  MET71       0.1736
     35  C         33.4590  -11.2810   45.0120 C.2    71  MET71       0.2617
     36  O         34.6710  -11.3440   44.7560 O.2    71  MET71      -0.2715
     37  CB        32.4980  -13.4870   45.7280 C.3    71  MET71       0.0427
     38  CG        32.3690  -14.4480   46.8980 C.3    71  MET71       0.0599
     39  SD        31.4180  -15.9160   46.5060 S.3    71  MET71      -0.1393
     40  CE        29.7970  -15.3500   46.8510 C.3    71  MET71       0.0692
     41  N         32.5980  -10.5790   44.2890 N.am   72  GLY72      -0.1940
     42  CA        33.0220   -9.7970   43.1320 C.3    72  GLY72       0.2014
     43  C         32.2580   -8.4960   42.9560 C.2    72  GLY72       0.2639
     44  O         31.2290   -8.2820   43.6070 O.2    72  GLY72      -0.2714
     45  N         32.7840   -7.6000   42.1030 N.am   73  LEU73      -0.1963
     46  CA        32.2180   -6.2680   41.8620 C.3    73  LEU73       0.1728
     47  C         31.5340   -6.1100   40.4800 C.2    73  LEU73       0.2617
     48  O         30.9620   -5.0490   40.2250 O.2    73  LEU73      -0.2715
     49  CB        33.3170   -5.2070   42.0040 C.3    73  LEU73       0.0311
     50  CG        33.6110   -4.7150   43.4210 C.3    73  LEU73       0.0022
     51  CD1       35.0740   -4.3930   43.5810 C.3    73  LEU73       0.0001
     52  CD2       32.7690   -3.4890   43.7620 C.3    73  LEU73       0.0001
     53  N         31.5710   -7.1480   39.6070 N.am   74  SER74      -0.1936
     54  CA        30.9350   -7.1040   38.2890 C.3    74  SER74       0.2040
     55  C         29.5460   -7.7610   38.3400 C.2    74  SER74       0.2485
     56  O         29.3410   -8.6470   39.1570 O.2    74  SER74      -0.2729
     57  CB        31.8220   -7.7460   37.2250 C.3    74  SER74       0.2129
     58  OG        31.9680   -9.1440   37.4200 O.3    74  SER74      -0.2179
     59  N         28.5850   -7.3670   37.4660 N.am   75  PRO75      -0.2726
     60  CA        27.2250   -7.9530   37.5400 C.3    75  PRO75       0.1402
     61  C         27.1610   -9.4790   37.3630 C.2    75  PRO75       0.2269
     62  O         26.1890  -10.1000   37.8000 O.2    75  PRO75      -0.2865
     63  CB        26.4760   -7.2590   36.3860 C.3    75  PRO75       0.0296
     64  CG        27.2240   -5.9980   36.1490 C.3    75  PRO75       0.0237
     65  CD        28.6620   -6.3320   36.4080 C.3    75  PRO75       0.0939
     66  N         29.5230  -11.5510   38.6240 N.3    77  ALA77      -0.1231
     67  CA        30.2870  -12.1580   39.7170 C.3    77  ALA77       0.1679
     68  C         29.4160  -13.1020   40.5380 C.2    77  ALA77       0.2434
     69  O         28.2030  -12.8850   40.6050 O.2    77  ALA77      -0.2733
     70  CB        30.8630  -11.0740   40.6140 C.3    77  ALA77       0.0304
     71  N         29.9780  -14.1750   41.1430 N.am   78  PRO78      -0.2718
     72  CA        29.1320  -15.0620   41.9610 C.3    78  PRO78       0.1535
     73  C         28.5670  -14.3160   43.1530 C.2    78  PRO78       0.2598
     74  O         29.2790  -13.5060   43.7380 O.2    78  PRO78      -0.2715
     75  CB        30.1020  -16.1560   42.4350 C.3    78  PRO78       0.0310
     76  CG        31.4460  -15.5670   42.3130 C.3    78  PRO78       0.0237
     77  CD        31.3890  -14.6120   41.1510 C.3    78  PRO78       0.0939
     78  N         27.2970  -14.5540   43.4830 N.am   79  GLU79      -0.1978
     79  CA        26.6960  -13.9520   44.6630 C.3    79  GLU79       0.1602
     80  C         26.3860  -15.0580   45.6480 C.2    79  GLU79       0.2287
     81  O         26.2770  -16.2340   45.2620 O.2    79  GLU79      -0.2864
     82  CB        25.4350  -13.1380   44.3330 C.3    79  GLU79       0.0415
     83  CG        25.6870  -11.8400   43.5780 C.3    79  GLU79       0.1163
     84  CD        24.4440  -10.9910   43.3770 C.2    79  GLU79       0.3649
     85  OE1       24.3200   -9.9450   44.0560 O.co2  79  GLU79      -0.2457
     86  OE2       23.6070  -11.3570   42.5210 O.co2  79  GLU79      -0.2457
     87  N         23.4430    0.7890   49.4330 N.3   114  SER114     -0.1202
     88  CA        24.3920   -0.1570   48.8390 C.3   114  SER114      0.2020
     89  C         24.0150   -1.6060   49.1610 C.2   114  SER114      0.2618
     90  O         22.9060   -2.0190   48.8010 O.2   114  SER114     -0.2717
     91  CB        25.8130    0.1890   49.2570 C.3   114  SER114      0.2103
     92  OG        26.7690   -0.4740   48.4510 O.3   114  SER114     -0.2182
     93  N         24.8480   -2.3570   49.9230 N.am  115  GLN115     -0.1979
     94  CA        24.5090   -3.7430   50.2390 C.3   115  GLN115      0.1601
     95  C         23.1110   -3.8540   50.9120 C.2   115  GLN115      0.2287
     96  O         22.3720   -4.7840   50.6120 O.2   115  GLN115     -0.2864
     97  CB        25.6040   -4.3890   51.1070 C.3   115  GLN115      0.0394
     98  CG        25.4480   -5.8890   51.2300 C.3   115  GLN115      0.0908
     99  CD        26.2200   -6.4070   52.4020 C.2   115  GLN115      0.2608
    100  OE1       26.1830   -5.8330   53.4940 O.2   115  GLN115     -0.2717
    101  NE2       26.9170   -7.5170   52.1820 N.am  115  GLN115     -0.0878
    102  N         22.0820   -2.3660   43.8660 N.3   140  TRP140     -0.1227
    103  CA        21.8480   -3.2830   42.7680 C.3   140  TRP140      0.1737
    104  C         20.8740   -4.3380   43.1990 C.2   140  TRP140      0.2595
    105  O         20.6650   -4.5220   44.4040 O.2   140  TRP140     -0.2718
    106  CB        23.1870   -3.9230   42.3680 C.3   140  TRP140      0.0564
    107  CG        23.6860   -4.9420   43.3750 C.ar  140  TRP140      0.0003
    108  CD1       23.4770   -6.2910   43.3430 C.ar  140  TRP140      0.0946
    109  CD2       24.3970   -4.6780   44.5910 C.ar  140  TRP140      0.0152
    110  NE1       24.1200   -6.8950   44.4050 N.ar  140  TRP140     -0.2442
    111  CE2       24.6110   -5.9230   45.2350 C.ar  140  TRP140      0.0810
    112  CE3       24.8820   -3.5080   45.2080 C.ar  140  TRP140      0.0012
    113  CZ2       25.3670   -6.0380   46.4140 C.ar  140  TRP140      0.0191
    114  CZ3       25.5570   -3.6180   46.4170 C.ar  140  TRP140      0.0001
    115  CH2       25.7940   -4.8680   47.0140 C.ar  140  TRP140      0.0015
    116  N         20.2930   -5.0580   42.2240 N.am  141  LEU141     -0.1980
    117  CA        19.3890   -6.1490   42.5210 C.3   141  LEU141      0.1596
    118  C         20.1760   -7.4480   42.6660 C.2   141  LEU141      0.2287
    119  O         20.7020   -7.9410   41.6520 O.2   141  LEU141     -0.2864
    120  CB        18.3260   -6.2820   41.3990 C.3   141  LEU141      0.0297
    121  CG        17.3600   -7.4850   41.5170 C.3   141  LEU141      0.0022
    122  CD1       16.5480   -7.4050   42.7850 C.3   141  LEU141      0.0001
    123  CD2       16.4200   -7.5370   40.3190 C.3   141  LEU141      0.0001
    124  N         19.8310  -11.0650   40.1130 N.3   144  HIS144     -0.1241
    125  CA        19.0820  -10.3510   39.0700 C.3   144  HIS144      0.1621
    126  C         18.5940  -11.2610   37.9340 C.2   144  HIS144      0.2264
    127  O         17.5140  -11.0120   37.3760 O.2   144  HIS144     -0.2867
    128  CB        19.9070   -9.1900   38.5080 C.3   144  HIS144      0.0745
    129  CG        21.0360   -9.5660   37.5870 C.ar  144  HIS144      0.0817
    130  ND1       22.2860   -9.9150   38.0780 N.ar  144  HIS144     -0.2268
    131  CD2       21.1000   -9.5000   36.2360 C.ar  144  HIS144      0.1154
    132  CE1       23.0470  -10.1140   37.0140 C.ar  144  HIS144      0.1986
    133  NE2       22.3820   -9.8510   35.8810 N.ar  144  HIS144     -0.2212
    134  N         32.1000    2.6080   43.6200 N.3   170  MET170     -0.1230
    135  CA        31.8510    1.2910   44.2560 C.3   170  MET170      0.1702
    136  C         30.7580    0.5110   43.5620 C.2   170  MET170      0.2592
    137  O         30.9020   -0.6990   43.3580 O.2   170  MET170     -0.2718
    138  CB        31.4870    1.4360   45.7300 C.3   170  MET170      0.0401
    139  CG        32.5640    2.0400   46.5930 C.3   170  MET170      0.0596
    140  SD        34.1580    1.1870   46.5010 S.3   170  MET170     -0.1393
    141  CE        33.7330   -0.3620   47.1830 C.3   170  MET170      0.0692
    142  N         29.6290    1.1880   43.3020 N.am  171  VAL171     -0.1980
    143  CA        28.4770    0.6790   42.5550 C.3   171  VAL171      0.1595
    144  C         28.3150    1.6490   41.3810 C.2   171  VAL171      0.2287
    145  O         27.6270    2.6520   41.5340 O.2   171  VAL171     -0.2864
    146  CB        27.1610    0.5080   43.3770 C.3   171  VAL171      0.0276
    147  CG1       26.0510   -0.0790   42.5120 C.3   171  VAL171      0.0022
    148  CG2       27.3800   -0.3710   44.5930 C.3   171  VAL171      0.0022
    149  N         25.2220    0.2480   36.7890 N.3   175  PHE175     -0.1241
    150  CA        24.6590   -0.9190   37.4690 C.3   175  PHE175      0.1605
    151  C         23.2990   -0.5670   38.0910 C.2   175  PHE175      0.2264
    152  O         22.4130   -1.4210   38.1390 O.2   175  PHE175     -0.2867
    153  CB        25.6260   -1.4840   38.5420 C.3   175  PHE175      0.0534
    154  CG        26.9520   -2.0110   38.0130 C.ar  175  PHE175     -0.0203
    155  CD1       27.1970   -2.0930   36.6420 C.ar  175  PHE175     -0.0042
    156  CD2       27.9380   -2.4520   38.8830 C.ar  175  PHE175     -0.0042
    157  CE1       28.4250   -2.5680   36.1590 C.ar  175  PHE175     -0.0003
    158  CE2       29.1640   -2.9290   38.3990 C.ar  175  PHE175     -0.0003
    159  CZ        29.4010   -2.9780   37.0480 C.ar  175  PHE175     -0.0000
    160  N         20.8520   -0.4850   35.1810 N.3   178  LEU178     -0.1231
    161  CA        20.4870   -1.8540   34.7940 C.3   178  LEU178      0.1693
    162  C         19.5190   -2.4430   35.8080 C.2   178  LEU178      0.2592
    163  O         18.6300   -3.1940   35.4310 O.2   178  LEU178     -0.2718
    164  CB        21.6940   -2.7700   34.6430 C.3   178  LEU178      0.0284
    165  CG        21.4560   -4.1910   34.1550 C.3   178  LEU178      0.0019
    166  CD1       21.0810   -4.2060   32.6780 C.3   178  LEU178      0.0001
    167  CD2       22.6930   -5.0540   34.3920 C.3   178  LEU178      0.0001
    168  N         19.7320   -2.1560   37.0940 N.am  179  THR179     -0.1953
    169  CA        18.8390   -2.6320   38.1730 C.3   179  THR179      0.1897
    170  C         17.4300   -2.0150   38.0000 C.2   179  THR179      0.2313
    171  O         16.4510   -2.7380   38.1370 O.2   179  THR179     -0.2863
    172  CB        19.4900   -2.3350   39.5430 C.3   179  THR179      0.1794
    173  OG1       20.5340   -3.2940   39.6960 O.3   179  THR179     -0.2208
    174  CG2       18.5140   -2.4110   40.7330 C.3   179  THR179      0.0378
    175  N         15.3750   -3.8320   35.4380 N.3   182  LYS182     -0.1245
    176  CA        14.9420   -5.0890   36.0270 C.3   182  LYS182      0.1561
    177  C         13.7660   -4.8850   36.9740 C.2   182  LYS182      0.2260
    178  O         12.8870   -5.7390   37.0250 O.2   182  LYS182     -0.2867
    179  CB        16.1060   -5.7640   36.7630 C.3   182  LYS182      0.0271
    180  CG        16.1160   -7.2680   36.6060 C.3   182  LYS182      0.0035
    181  CD        16.4380   -7.7110   35.1820 C.3   182  LYS182      0.0206
    182  CE        16.3260   -9.1970   35.0650 C.3   182  LYS182      0.1093
    183  NZ        16.7020   -9.6840   33.7280 N.3   182  LYS182     -0.1314
    184  N         29.8260    7.5530   46.3050 N.3   202  HIS202     -0.1241
    185  CA        29.2120    6.4670   47.0660 C.3   202  HIS202      0.1621
    186  C         28.8170    7.0280   48.4140 C.2   202  HIS202      0.2264
    187  O         29.5630    6.8970   49.4050 O.2   202  HIS202     -0.2867
    188  CB        30.1480    5.2470   47.2020 C.3   202  HIS202      0.0745
    189  CG        29.4240    4.0090   47.6690 C.ar  202  HIS202      0.0817
    190  ND1       28.3730    3.4620   46.9380 N.ar  202  HIS202     -0.2268
    191  CD2       29.5920    3.2810   48.8030 C.ar  202  HIS202      0.1154
    192  CE1       27.9870    2.3870   47.6110 C.ar  202  HIS202      0.1986
    193  NE2       28.6860    2.2410   48.7420 N.ar  202  HIS202     -0.2212
@<TRIPOS>BOND
     1   166   165    1
     2   183   182    1
     3   165   167    1
     4   165   164    1
     5   164   161    1
     6   161   160    1
     7   161   162    1
     8   182   181    1
     9   181   180    1
    10   163   162    2
    11   175   176    1
    12   162   168   am
    13   133   131   ar
    14   133   132   ar
    15   176   179    1
    16   176   177    1
    17    64    63    1
    18    64    65    1
    19   157   155   ar
    20   157   159   ar
    21   131   129   ar
    22    63    60    1
    23    65    59    1
    24   180   179    1
    25   155   154   ar
    26   149   150    1
    27   177   178    2
    28   132   130   ar
    29   159   158   ar
    30   168   169    1
    31    57    58    1
    32    57    54    1
    33    61    60    1
    34    61    62    2
    35   127   126    2
    36    59    60    1
    37    59    55   am
    38   150   151    1
    39   150   153    1
    40   129   130   ar
    41   129   128    1
    42   126   125    1
    43   170   171    2
    44   170   169    1
    45   154   153    1
    46   154   156   ar
    47   151   152    2
    48   169   172    1
    49    54    55    1
    50    54    53    1
    51    55    56    2
    52   158   156   ar
    53   128   125    1
    54    66    67    1
    55   125   124    1
    56   172   173    1
    57   172   174    1
    58    53    47   am
    59    67    68    1
    60    67    70    1
    61    48    47    2
    62   123   121    1
    63    47    46    1
    64    68    69    2
    65    68    71   am
    66    71    77    1
    67    71    72    1
    68    77    76    1
    69   144   145    2
    70   144   143    1
    71   120   121    1
    72   120   117    1
    73   121   122    1
    74   119   118    2
    75    46    49    1
    76    46    45    1
    77    72    75    1
    78    72    73    1
    79    49    50    1
    80    45    43   am
    81   116   117    1
    82   116   104   am
    83    76    75    1
    84   106   103    1
    85   106   107    1
    86   147   146    1
    87   117   118    1
    88    86    84   ar
    89   143   142    1
    90   143   146    1
    91   103   104    1
    92   103   102    1
    93    43    42    1
    94    43    44    2
    95    42    41    1
    96    73    78   am
    97    73    74    2
    98   104   105    2
    99   142   136   am
   100   108   107   ar
   101   108   110   ar
   102   137   136    2
   103   107   109   ar
   104   146   148    1
   105    84    83    1
   106    84    85   ar
   107    50    51    1
   108    50    52    1
   109    78    79    1
   110   136   135    1
   111    83    82    1
   112   134   135    1
   113   135   138    1
   114    41    35   am
   115    82    79    1
   116   110   111   ar
   117   109   112   ar
   118   109   111   ar
   119    79    80    1
   120    36    35    2
   121    35    34    1
   122   112   114   ar
   123   111   113   ar
   124    81    80    2
   125    37    34    1
   126    37    38    1
   127   138   139    1
   128    34    33    1
   129   184   185    1
   130    15    14    1
   131   113   115   ar
   132   114   115   ar
   133    16    14    1
   134   140   139    1
   135   140   141    1
   136    39    40    1
   137    39    38    1
   138    33    27   am
   139   190   192   ar
   140   190   189   ar
   141   185   188    1
   142   185   186    1
   143   188   189    1
   144    14    13    1
   145   192   193   ar
   146   189   191   ar
   147    27    26    1
   148    27    28    2
   149   186   187    2
   150    92    91    1
   151    13    10    1
   152   193   191   ar
   153    90    89    2
   154    88    89    1
   155    88    91    1
   156    88    87    1
   157    26    29    1
   158    26    25    1
   159    32    30    1
   160    29    30    1
   161    10     9    1
   162    10    11    1
   163    89    93   am
   164    12    11    2
   165    30    31    1
   166    93    94    1
   167    11    17   am
   168    94    95    1
   169    94    97    1
   170    96    95    2
   171    97    98    1
   172    98    99    1
   173    17    18    1
   174    18    19    1
   175    18    21    1
   176   101    99   am
   177     8     6    1
   178    24    22   am
   179    99   100    2
   180    22    23    2
   181    22    21    1
   182    19    20    2
   183     5     6    1
   184     5     2    1
   185     6     7    1
   186     1     2    1
   187     2     3    1
   188     4     3    2
