@<TRIPOS>MOLECULE
tmp/5sysB00.pdb
 216 204 0 0 0
SMALL
GASTEIGER

@<TRIPOS>ATOM
      1  N          1.0200   77.4730  -34.6580 N.3    16  LEU16      -0.1231
      2  CA         1.2070   76.8890  -33.3190 C.3    16  LEU16       0.1693
      3  C          2.4870   77.3460  -32.6050 C.2    16  LEU16       0.2592
      4  O          2.4310   77.7570  -31.4400 O.2    16  LEU16      -0.2718
      5  CB         1.1840   75.3600  -33.4170 C.3    16  LEU16       0.0284
      6  CG        -0.0690   74.7020  -34.0300 C.3    16  LEU16       0.0019
      7  CD1        0.1890   73.2530  -34.4010 C.3    16  LEU16       0.0001
      8  CD2       -1.2510   74.7830  -33.0760 C.3    16  LEU16       0.0001
      9  N          3.6270   77.2500  -33.2910 N.am   17  GLY17      -0.1957
     10  CA         4.9160   77.6170  -32.7090 C.3    17  GLY17       0.1869
     11  C          5.9540   78.0090  -33.7450 C.2    17  GLY17       0.2309
     12  O          6.0700   77.3510  -34.7760 O.2    17  GLY17      -0.2863
     13  N         14.5510   77.5640  -36.1960 N.3    21  PHE21      -0.1241
     14  CA        14.4910   76.4150  -37.1320 C.3    21  PHE21       0.1605
     15  C         13.3710   76.4800  -38.1880 C.2    21  PHE21       0.2264
     16  O         13.3900   75.6910  -39.1270 O.2    21  PHE21      -0.2867
     17  CB        14.4020   75.0610  -36.3720 C.3    21  PHE21       0.0534
     18  CG        13.1850   74.8940  -35.4870 C.ar   21  PHE21      -0.0203
     19  CD1       12.0130   74.2960  -35.9720 C.ar   21  PHE21      -0.0042
     20  CD2       13.2290   75.2750  -34.1460 C.ar   21  PHE21      -0.0042
     21  CE1       10.9070   74.1280  -35.1480 C.ar   21  PHE21      -0.0003
     22  CE2       12.1240   75.1020  -33.3160 C.ar   21  PHE21      -0.0003
     23  CZ        10.9620   74.5290  -33.8190 C.ar   21  PHE21      -0.0000
     24  N          5.7110   75.4570  -37.0310 N.3    24  CYS24      -0.1235
     25  CA         4.7860   74.2980  -37.1930 C.3    24  CYS24       0.1677
     26  C          3.2980   74.6790  -37.0720 C.2    24  CYS24       0.2270
     27  O          2.9510   75.6000  -36.3410 O.2    24  CYS24      -0.2867
     28  CB         5.1650   73.1340  -36.2440 C.3    24  CYS24       0.0956
     29  SG         4.4560   73.1090  -34.5570 S.3    24  CYS24      -0.0801
     30  N         -0.4950   67.4890  -38.4820 N.3    36  ALA36      -0.1231
     31  CA         0.4970   68.4600  -38.0170 C.3    36  ALA36       0.1694
     32  C          1.6000   68.5650  -39.0610 C.2    36  ALA36       0.2592
     33  O          1.9650   67.5660  -39.6960 O.2    36  ALA36      -0.2718
     34  CB         1.0800   68.0390  -36.6780 C.3    36  ALA36       0.0304
     35  N          2.1120   69.7870  -39.2240 N.am   37  ILE37      -0.1966
     36  CA         3.0710   70.1340  -40.2770 C.3    37  ILE37       0.1727
     37  C          4.1940   70.9980  -39.6940 C.2    37  ILE37       0.2616
     38  O          3.9240   71.9100  -38.9240 O.2    37  ILE37      -0.2715
     39  CB         2.3850   70.9330  -41.4120 C.3    37  ILE37       0.0290
     40  CG1        1.1960   70.1570  -42.0130 C.3    37  ILE37       0.0022
     41  CG2        3.3870   71.2840  -42.5100 C.3    37  ILE37       0.0023
     42  CD1        0.1570   71.0460  -42.6680 C.3    37  ILE37       0.0001
     43  N          5.4370   70.7000  -40.0750 N.am   38  LYS38      -0.1977
     44  CA         6.6170   71.4570  -39.6530 C.3    38  LYS38       0.1596
     45  C          7.3000   72.0560  -40.8850 C.2    38  LYS38       0.2287
     46  O          7.6860   71.3210  -41.7980 O.2    38  LYS38      -0.2864
     47  CB         7.5880   70.5310  -38.9170 C.3    38  LYS38       0.0298
     48  CG         8.9460   71.1290  -38.5850 C.3    38  LYS38       0.0038
     49  CD         9.7980   70.1450  -37.7940 C.3    38  LYS38       0.0206
     50  CE        10.8310   70.8350  -36.9090 C.3    38  LYS38       0.1093
     51  NZ        11.5720   69.8810  -36.0340 N.3    38  LYS38      -0.1314
     52  N         16.1400   64.6670  -40.3260 N.3    53  GLU53      -0.1245
     53  CA        15.0680   64.4210  -39.3570 C.3    53  GLU53       0.1567
     54  C         14.0210   63.4400  -39.8980 C.2    53  GLU53       0.2260
     55  O         13.7200   62.4330  -39.2660 O.2    53  GLU53      -0.2867
     56  CB        14.3950   65.7460  -38.9570 C.3    53  GLU53       0.0388
     57  CG        13.2580   65.6090  -37.9380 C.3    53  GLU53       0.1160
     58  CD        12.7590   66.9330  -37.4000 C.2    53  GLU53       0.3649
     59  OE1       13.5220   67.9240  -37.4170 O.co2  53  GLU53      -0.2457
     60  OE2       11.5970   66.9770  -36.9460 O.co2  53  GLU53      -0.2457
     61  N         15.0540   59.6810  -40.4520 N.3    56  VAL56      -0.1231
     62  CA        14.9450   58.8720  -39.2330 C.3    56  VAL56       0.1692
     63  C         13.4890   58.4470  -38.9990 C.2    56  VAL56       0.2591
     64  O         13.2120   57.2690  -38.7760 O.2    56  VAL56      -0.2718
     65  CB        15.5200   59.6410  -38.0030 C.3    56  VAL56       0.0266
     66  CG1       15.2400   58.9170  -36.6870 C.3    56  VAL56       0.0020
     67  CG2       17.0250   59.8630  -38.1670 C.3    56  VAL56       0.0020
     68  N         12.5690   59.4100  -39.0830 N.am   57  MET57      -0.1979
     69  CA        11.1210   59.1610  -38.9250 C.3    57  MET57       0.1605
     70  C         10.5780   58.1540  -39.9250 C.2    57  MET57       0.2287
     71  O          9.6070   57.4740  -39.6410 O.2    57  MET57      -0.2864
     72  CB        10.3310   60.4620  -39.0310 C.3    57  MET57       0.0413
     73  CG        10.6290   61.4170  -37.8760 C.3    57  MET57       0.0598
     74  SD         9.4910   62.7900  -37.7590 S.3    57  MET57      -0.1393
     75  CE         8.0510   62.0030  -37.0590 C.3    57  MET57       0.0692
     76  N         11.2200   54.5330  -38.5370 N.3    60  LEU60      -0.1245
     77  CA        10.5430   54.2510  -37.2540 C.3    60  LEU60       0.1561
     78  C          9.0140   54.2900  -37.3830 C.2    60  LEU60       0.2260
     79  O          8.4480   55.3410  -37.7040 O.2    60  LEU60      -0.2867
     80  CB        10.9770   55.2660  -36.1960 C.3    60  LEU60       0.0270
     81  CG        12.4770   55.3870  -35.9310 C.3    60  LEU60       0.0019
     82  CD1       12.7370   56.5330  -34.9640 C.3    60  LEU60       0.0001
     83  CD2       13.0660   54.0880  -35.3880 C.3    60  LEU60       0.0001
     84  N          4.9910   56.1070  -31.1110 N.3    65  LEU65      -0.1231
     85  CA         5.8180   57.1380  -31.7150 C.3    65  LEU65       0.1693
     86  C          4.9230   57.9270  -32.6510 C.2    65  LEU65       0.2591
     87  O          3.9640   57.3850  -33.2060 O.2    65  LEU65      -0.2718
     88  CB         7.0000   56.5260  -32.4790 C.3    65  LEU65       0.0284
     89  CG         8.3330   56.4270  -31.7310 C.3    65  LEU65       0.0019
     90  CD1        8.1730   55.8320  -30.3260 C.3    65  LEU65       0.0001
     91  CD2        9.3430   55.6410  -32.5690 C.3    65  LEU65       0.0001
     92  N          5.2520   59.2060  -32.8240 N.am   66  VAL66      -0.1980
     93  CA         4.5010   60.0960  -33.7020 C.3    66  VAL66       0.1595
     94  C          4.7540   59.6630  -35.1380 C.2    66  VAL66       0.2287
     95  O          5.9100   59.4690  -35.5410 O.2    66  VAL66      -0.2864
     96  CB         4.9490   61.5650  -33.5520 C.3    66  VAL66       0.0276
     97  CG1        4.1990   62.4700  -34.5440 C.3    66  VAL66       0.0022
     98  CG2        4.7730   62.0510  -32.1110 C.3    66  VAL66       0.0022
     99  N          7.5520   68.7050  -43.3790 N.3    79  ILE79      -0.1245
    100  CA         7.4900   67.3720  -42.7910 C.3    79  ILE79       0.1561
    101  C          6.1160   67.2960  -42.1390 C.2    79  ILE79       0.2260
    102  O          5.7160   68.2210  -41.4300 O.2    79  ILE79      -0.2867
    103  CB         8.6030   67.1170  -41.7590 C.3    79  ILE79       0.0252
    104  CG1        9.9820   67.4630  -42.3440 C.3    79  ILE79       0.0019
    105  CG2        8.5780   65.6540  -41.3130 C.3    79  ILE79       0.0019
    106  CD1       11.1470   67.2020  -41.4040 C.3    79  ILE79       0.0001
    107  N          3.4120   64.9540  -40.0040 N.3    81  THR81      -0.1203
    108  CA         3.0790   63.8460  -39.1340 C.3    81  THR81       0.1994
    109  C          1.5890   63.8600  -38.8890 C.2    81  THR81       0.2618
    110  O          0.8870   64.7420  -39.3820 O.2    81  THR81      -0.2717
    111  CB         3.7900   63.9960  -37.7820 C.3    81  THR81       0.1784
    112  OG1        3.3280   65.1840  -37.1260 O.3    81  THR81      -0.2211
    113  CG2        5.3030   64.0820  -37.9710 C.3    81  THR81       0.0376
    114  N          1.1070   62.9010  -38.1040 N.am   82  GLU82      -0.1965
    115  CA        -0.2580   62.9620  -37.5650 C.3    82  GLU82       0.1733
    116  C         -0.4470   64.1660  -36.6480 C.2    82  GLU82       0.2616
    117  O          0.5140   64.8690  -36.3310 O.2    82  GLU82      -0.2715
    118  CB        -0.6100   61.6830  -36.8040 C.3    82  GLU82       0.0429
    119  CG         0.1010   61.4970  -35.4790 C.3    82  GLU82       0.1163
    120  CD        -0.0810   60.0960  -34.9310 C.2    82  GLU82       0.3649
    121  OE1        0.8410   59.2800  -35.1070 O.co2  82  GLU82      -0.2457
    122  OE2       -1.1500   59.8200  -34.3310 O.co2  82  GLU82      -0.2457
    123  N         -1.6940   64.3970  -36.2420 N.am   83  TYR83      -0.1960
    124  CA        -2.0330   65.4630  -35.3080 C.3    83  TYR83       0.1771
    125  C         -2.5090   64.8700  -34.0040 C.2    83  TYR83       0.2619
    126  O         -3.3340   63.9500  -33.9940 O.2    83  TYR83      -0.2715
    127  CB        -3.1420   66.3400  -35.8460 C.3    83  TYR83       0.0574
    128  CG        -3.5310   67.4390  -34.8900 C.ar   83  TYR83      -0.0198
    129  CD1       -2.6660   68.4980  -34.6330 C.ar   83  TYR83      -0.0009
    130  CD2       -4.7560   67.4120  -34.2260 C.ar   83  TYR83      -0.0009
    131  CE1       -3.0150   69.5130  -33.7600 C.ar   83  TYR83       0.0417
    132  CE2       -5.1210   68.4210  -33.3500 C.ar   83  TYR83       0.0417
    133  CZ        -4.2440   69.4660  -33.1150 C.ar   83  TYR83       0.1957
    134  OH        -4.6010   70.4770  -32.2440 O.3    83  TYR83      -0.2866
    135  N         -2.0020   65.4230  -32.9060 N.am   84  MET84      -0.1977
    136  CA        -2.3510   64.9700  -31.5740 C.3    84  MET84       0.1605
    137  C         -3.1830   66.0430  -30.9110 C.2    84  MET84       0.2287
    138  O         -2.7420   67.1790  -30.7450 O.2    84  MET84      -0.2864
    139  CB        -1.0810   64.6930  -30.7770 C.3    84  MET84       0.0413
    140  CG        -0.1690   63.6410  -31.4060 C.3    84  MET84       0.0598
    141  SD        -0.9920   62.0440  -31.6200 S.3    84  MET84      -0.1393
    142  CE        -1.2740   61.5780  -29.9120 C.3    84  MET84       0.0692
    143  N         -1.8900   68.5130  -27.4860 N.3    87  GLY87      -0.1210
    144  CA        -0.6190   69.2500  -27.3560 C.3    87  GLY87       0.1956
    145  C          0.4350   68.5320  -26.5310 C.2    87  GLY87       0.2612
    146  O          0.3200   67.3170  -26.3100 O.2    87  GLY87      -0.2717
    147  N          1.4510   69.2650  -26.0610 N.am   88  SER88      -0.1952
    148  CA         2.5370   68.6360  -25.2920 C.3    88  SER88       0.1924
    149  C          2.0640   68.1800  -23.9070 C.2    88  SER88       0.2314
    150  O          1.1760   68.7900  -23.3030 O.2    88  SER88      -0.2863
    151  CB         3.7680   69.5520  -25.1480 C.3    88  SER88       0.2116
    152  OG         3.6550   70.4430  -24.0460 O.3    88  SER88      -0.2180
    153  N          2.4130   70.8220  -21.3340 N.3    91  ASP91      -0.1239
    154  CA         1.2350   71.7100  -21.4000 C.3    91  ASP91       0.1674
    155  C         -0.0110   71.0760  -20.7830 C.2    91  ASP91       0.2266
    156  O         -0.8440   71.7600  -20.1850 O.2    91  ASP91      -0.2867
    157  CB         0.8890   72.0870  -22.8570 C.3    91  ASP91       0.1410
    158  CG         1.8370   73.0930  -23.4450 C.2    91  ASP91       0.3668
    159  OD1        3.0640   72.9060  -23.2990 O.co2  91  ASP91      -0.2456
    160  OD2        1.3460   74.0680  -24.0630 O.co2  91  ASP91      -0.2456
    161  N         12.2900   51.9020  -29.1820 N.3   120  VAL120     -0.1245
    162  CA        13.5300   52.6060  -29.5740 C.3   120  VAL120      0.1561
    163  C         14.7530   51.7820  -29.1400 C.2   120  VAL120      0.2260
    164  O         15.7290   51.6190  -29.8900 O.2   120  VAL120     -0.2867
    165  CB        13.5850   54.0430  -28.9860 C.3   120  VAL120      0.0252
    166  CG1       14.9250   54.7070  -29.2430 C.3   120  VAL120      0.0019
    167  CG2       12.4700   54.9040  -29.5530 C.3   120  VAL120      0.0019
    168  N         17.3460   58.6010  -28.2160 N.3   127  HIS127     -0.1241
    169  CA        16.5410   59.8120  -28.2930 C.3   127  HIS127      0.1621
    170  C         17.3050   61.0690  -27.9150 C.2   127  HIS127      0.2264
    171  O         17.1520   62.0980  -28.5640 O.2   127  HIS127     -0.2867
    172  CB        15.3180   59.6930  -27.3880 C.3   127  HIS127      0.0745
    173  CG        14.2550   60.6870  -27.7090 C.ar  127  HIS127      0.0817
    174  ND1       14.3530   62.0190  -27.3680 N.ar  127  HIS127     -0.2268
    175  CD2       13.0860   60.5530  -28.3770 C.ar  127  HIS127      0.1154
    176  CE1       13.2820   62.6590  -27.7940 C.ar  127  HIS127      0.1986
    177  NE2       12.4990   61.7930  -28.4140 N.ar  127  HIS127     -0.2212
    178  N          3.6780   63.9110  -26.6870 N.3   136  LEU136     -0.1245
    179  CA         2.3860   64.4200  -27.1390 C.3   136  LEU136      0.1561
    180  C          1.2900   63.5430  -26.5440 C.2   136  LEU136      0.2260
    181  O          1.5190   62.3660  -26.2460 O.2   136  LEU136     -0.2867
    182  CB         2.3120   64.4260  -28.6780 C.3   136  LEU136      0.0270
    183  CG         3.2040   65.4670  -29.3870 C.3   136  LEU136      0.0019
    184  CD1        3.6090   65.0130  -30.7830 C.3   136  LEU136      0.0001
    185  CD2        2.5560   66.8540  -29.4240 C.3   136  LEU136      0.0001
    186  N          5.9900   59.6720  -28.4030 N.3   145  VAL145     -0.1231
    187  CA         7.3170   60.2540  -28.3010 C.3   145  VAL145      0.1692
    188  C          7.5850   61.1230  -29.5250 C.2   145  VAL145      0.2592
    189  O          7.3450   60.6910  -30.6620 O.2   145  VAL145     -0.2718
    190  CB         8.3720   59.1390  -28.2120 C.3   145  VAL145      0.0266
    191  CG1        9.7630   59.7280  -28.0050 C.3   145  VAL145      0.0020
    192  CG2        8.0070   58.1630  -27.0920 C.3   145  VAL145      0.0020
    193  N          8.0870   62.3350  -29.2810 N.am  146  ALA146     -0.1966
    194  CA         8.4280   63.2930  -30.3390 C.3   146  ALA146      0.1728
    195  C          9.8800   63.7600  -30.1730 C.2   146  ALA146      0.2616
    196  O         10.5790   63.2510  -29.3280 O.2   146  ALA146     -0.2715
    197  CB         7.4630   64.4670  -30.2820 C.3   146  ALA146      0.0334
    198  N         10.3280   64.7080  -30.9890 N.am  147  ASP147     -0.1957
    199  CA        11.6360   65.3570  -30.8110 C.3   147  ASP147      0.1840
    200  C         11.6680   66.6060  -31.6990 C.2   147  ASP147      0.2622
    201  O         11.6000   66.4910  -32.9190 O.2   147  ASP147     -0.2715
    202  CB        12.8120   64.4170  -31.1390 C.3   147  ASP147      0.1450
    203  CG        14.2030   65.0720  -30.8970 C.2   147  ASP147      0.3671
    204  OD1       14.3180   65.9830  -30.0430 O.co2 147  ASP147     -0.2456
    205  OD2       15.1940   64.6630  -31.5520 O.co2 147  ASP147     -0.2456
    206  N         11.7620   67.7840  -31.0720 N.am  148  PHE148     -0.1974
    207  CA        11.6020   69.0830  -31.7460 C.3   148  PHE148      0.1639
    208  C         12.9400   69.7970  -31.9980 C.2   148  PHE148      0.2290
    209  O         13.1750   70.2840  -33.1070 O.2   148  PHE148     -0.2864
    210  CB        10.6620   69.9870  -30.9270 C.3   148  PHE148      0.0560
    211  CG         9.3190   69.3520  -30.5950 C.ar  148  PHE148     -0.0200
    212  CD1        8.8110   69.3670  -29.2970 C.ar  148  PHE148     -0.0042
    213  CD2        8.5440   68.7610  -31.6000 C.ar  148  PHE148     -0.0042
    214  CE1        7.5710   68.7990  -29.0120 C.ar  148  PHE148     -0.0003
    215  CE2        7.3060   68.1940  -31.3150 C.ar  148  PHE148     -0.0003
    216  CZ         6.8150   68.2210  -30.0210 C.ar  148  PHE148     -0.0000
@<TRIPOS>BOND
     1    99   100    1
     2   100   101    1
     3   100   103    1
     4    42    40    1
     5    41    39    1
     6   104   103    1
     7   104   106    1
     8   101   102    2
     9    40    39    1
    10    46    45    2
    11   103   105    1
    12    39    36    1
    13    45    44    1
    14    61    62    1
    15    52    53    1
    16    36    37    1
    17    36    35    1
    18    43    37   am
    19    43    44    1
    20   107   108    1
    21    70    71    2
    22    70    69    1
    23    54    53    1
    24    54    55    2
    25    33    32    2
    26    37    38    2
    27    44    47    1
    28   110   109    2
    29    53    56    1
    30    62    63    1
    31    62    65    1
    32    35    32   am
    33   108   109    1
    34   108   111    1
    35    16    15    2
    36    68    63   am
    37    68    69    1
    38    32    31    1
    39    72    69    1
    40    72    73    1
    41    63    64    2
    42    56    57    1
    43    47    48    1
    44   109   114   am
    45    48    49    1
    46    76    77    1
    47    30    31    1
    48    15    14    1
    49    67    65    1
    50   114   115    1
    51    31    34    1
    52    65    66    1
    53   113   111    1
    54    57    58    1
    55    73    74    1
    56    49    50    1
    57   111   112    1
    58    74    75    1
    59    79    78    2
    60   115   118    1
    61   115   116    1
    62    59    58   ar
    63    58    60   ar
    64    78    77    1
    65    77    80    1
    66    25    26    1
    67    25    24    1
    68    25    28    1
    69    14    17    1
    70    14    13    1
    71    26    27    2
    72    50    51    1
    73   118   119    1
    74   116   117    2
    75   116   123   am
    76    17    18    1
    77    28    29    1
    78   123   124    1
    79    80    81    1
    80    19    18   ar
    81    19    21   ar
    82    81    83    1
    83    81    82    1
    84   127   124    1
    85   127   128    1
    86    95    94    2
    87    18    20   ar
    88   119   120    1
    89   124   125    1
    90    21    23   ar
    91    94    93    1
    92   121   120   ar
    93   120   122   ar
    94   128   129   ar
    95   128   130   ar
    96    12    11    2
    97     1     2    1
    98   129   131   ar
    99    97    96    1
   100     7     6    1
   101   130   132   ar
   102    20    22   ar
   103     6     5    1
   104     6     8    1
   105   125   126    2
   106   125   135   am
   107    23    22   ar
   108   131   133   ar
   109    11    10    1
   110    93    96    1
   111    93    92    1
   112    96    98    1
   113     5     2    1
   114   132   133   ar
   115     2     3    1
   116     9    10    1
   117     9     3   am
   118    87    86    2
   119   133   134    1
   120   209   208    2
   121   201   200    2
   122   135   136    1
   123    92    86   am
   124    86    85    1
   125     3     4    2
   126    91    89    1
   127    88    89    1
   128    88    85    1
   129   208   207    1
   130   207   206    1
   131   207   210    1
   132    89    90    1
   133    85    84    1
   134   200   206   am
   135   200   199    1
   136   141   140    1
   137   141   142    1
   138   213   215   ar
   139   213   211   ar
   140   136   137    1
   141   136   139    1
   142   205   203   ar
   143   140   139    1
   144   215   216   ar
   145   202   203    1
   146   202   199    1
   147   198   199    1
   148   198   195   am
   149   210   211    1
   150   137   138    2
   151   203   204   ar
   152   184   183    1
   153   189   188    2
   154   211   212   ar
   155   194   197    1
   156   194   195    1
   157   194   193    1
   158   195   196    2
   159   216   214   ar
   160   164   163    2
   161   162   161    1
   162   162   163    1
   163   162   165    1
   164   167   165    1
   165   188   193   am
   166   188   187    1
   167   185   183    1
   168   183   182    1
   169   212   214   ar
   170   166   165    1
   171   182   179    1
   172   171   170    2
   173   177   175   ar
   174   177   176   ar
   175   186   187    1
   176   175   173   ar
   177   187   190    1
   178   169   168    1
   179   169   170    1
   180   169   172    1
   181   190   191    1
   182   190   192    1
   183   176   174   ar
   184   173   172    1
   185   173   174   ar
   186   143   144    1
   187   144   145    1
   188   179   178    1
   189   179   180    1
   190   180   181    2
   191   145   146    2
   192   145   147   am
   193   147   148    1
   194   148   151    1
   195   148   149    1
   196   151   152    1
   197   160   158   ar
   198   149   150    2
   199   158   159   ar
   200   158   157    1
   201   157   154    1
   202   154   153    1
   203   154   155    1
   204   155   156    2
