@<TRIPOS>MOLECULE
tmp/5sytA11.pdb
 92 88 0 0 0
SMALL
GASTEIGER

@<TRIPOS>ATOM
      1  N       -138.1910 -266.3430   35.2050 N.3    83  ILE83      -0.1245
      2  CA      -138.6820 -267.6010   35.7780 C.3    83  ILE83       0.1561
      3  C       -138.4080 -267.6530   37.2680 C.2    83  ILE83       0.2260
      4  O       -139.2650 -268.0410   38.0660 O.2    83  ILE83      -0.2867
      5  CB      -138.0360 -268.8000   35.0510 C.3    83  ILE83       0.0252
      6  CG1     -138.6230 -268.8830   33.6450 C.3    83  ILE83       0.0019
      7  CG2     -138.2370 -270.1010   35.8900 C.3    83  ILE83       0.0019
      8  CD1     -137.9350 -269.8750   32.7290 C.3    83  ILE83       0.0001
      9  N       -141.6030 -269.5530   38.2210 N.3    88  GLY88      -0.1210
     10  CA      -142.0450 -270.4090   37.1350 C.3    88  GLY88       0.1956
     11  C       -141.9160 -271.8830   37.4520 C.2    88  GLY88       0.2611
     12  O       -142.7130 -272.6900   36.9810 O.2    88  GLY88      -0.2717
     13  N       -140.9230 -272.2370   38.2530 N.am   89  ILE89      -0.1979
     14  CA      -140.6360 -273.5990   38.6310 C.3    89  ILE89       0.1595
     15  C       -141.6970 -274.1190   39.6100 C.2    89  ILE89       0.2287
     16  O       -142.2540 -275.2040   39.3800 O.2    89  ILE89      -0.2864
     17  CB      -139.2130 -273.6870   39.2010 C.3    89  ILE89       0.0276
     18  CG1     -138.2000 -273.4660   38.0720 C.3    89  ILE89       0.0022
     19  CG2     -138.9670 -275.0480   39.7700 C.3    89  ILE89       0.0022
     20  CD1     -136.7810 -273.2290   38.6150 C.3    89  ILE89       0.0001
     21  N       -144.6730 -272.8930   39.7610 N.3    91  TYR91      -0.1227
     22  CA      -145.8510 -272.9070   38.9020 C.3    91  TYR91       0.1736
     23  C       -145.9310 -274.1880   38.0710 C.2    91  TYR91       0.2595
     24  O       -146.9930 -274.8220   37.9840 O.2    91  TYR91      -0.2718
     25  CB      -145.8380 -271.7000   37.9820 C.3    91  TYR91       0.0548
     26  CG      -146.9370 -271.7780   36.9670 C.ar   91  TYR91      -0.0200
     27  CD1     -148.2350 -271.5270   37.3320 C.ar   91  TYR91      -0.0009
     28  CD2     -146.6840 -272.1610   35.6630 C.ar   91  TYR91      -0.0009
     29  CE1     -149.2550 -271.6130   36.4270 C.ar   91  TYR91       0.0417
     30  CE2     -147.7050 -272.2540   34.7510 C.ar   91  TYR91       0.0417
     31  CZ      -148.9910 -271.9660   35.1490 C.ar   91  TYR91       0.1957
     32  OH      -150.0450 -272.0410   34.2750 O.3    91  TYR91      -0.2866
     33  N       -144.8250 -274.5550   37.4040 N.am   92  LEU92      -0.1980
     34  CA      -144.8380 -275.7230   36.5250 C.3    92  LEU92       0.1596
     35  C       -145.0650 -276.9900   37.3430 C.2    92  LEU92       0.2287
     36  O       -145.8030 -277.8830   36.9190 O.2    92  LEU92      -0.2864
     37  CB      -143.5350 -275.8220   35.7310 C.3    92  LEU92       0.0297
     38  CG      -143.5130 -276.9160   34.6770 C.3    92  LEU92       0.0022
     39  CD1     -144.5160 -276.6040   33.5880 C.3    92  LEU92       0.0001
     40  CD2     -142.1120 -277.0830   34.0680 C.3    92  LEU92       0.0001
     41  N       -143.4550 -283.2280   35.4670 N.3   117  PHE117     -0.1241
     42  CA      -142.6300 -282.0220   35.5010 C.3   117  PHE117      0.1605
     43  C       -141.4250 -282.1560   34.5760 C.2   117  PHE117      0.2264
     44  O       -141.0760 -281.2240   33.8360 O.2   117  PHE117     -0.2867
     45  CB      -142.1950 -281.7570   36.9500 C.3   117  PHE117      0.0534
     46  CG      -141.2690 -280.5830   37.1150 C.ar  117  PHE117     -0.0203
     47  CD1     -141.7650 -279.3020   37.3030 C.ar  117  PHE117     -0.0042
     48  CD2     -139.9080 -280.7720   37.1600 C.ar  117  PHE117     -0.0042
     49  CE1     -140.9060 -278.2510   37.4640 C.ar  117  PHE117     -0.0003
     50  CE2     -139.0460 -279.7330   37.3180 C.ar  117  PHE117     -0.0003
     51  CZ      -139.5400 -278.4580   37.4820 C.ar  117  PHE117     -0.0000
     52  N       -140.9330 -279.5780   31.5710 N.3   121  ALA121     -0.1245
     53  CA      -139.7480 -278.7370   31.6420 C.3   121  ALA121      0.1562
     54  C       -138.8830 -278.9130   30.4100 C.2   121  ALA121      0.2260
     55  O       -138.4420 -277.9330   29.7940 O.2   121  ALA121     -0.2867
     56  CB      -138.9710 -279.0680   32.9260 C.3   121  ALA121      0.0290
     57  N       -140.8630 -277.3910   27.4150 N.3   124  PHE124     -0.1227
     58  CA      -140.7360 -275.9380   27.4510 C.3   124  PHE124      0.1736
     59  C       -139.3810 -275.4980   26.9280 C.2   124  PHE124      0.2596
     60  O       -139.2790 -274.6210   26.0760 O.2   124  PHE124     -0.2718
     61  CB      -140.9270 -275.4390   28.8840 C.3   124  PHE124      0.0547
     62  CG      -140.6470 -273.9600   29.0630 C.ar  124  PHE124     -0.0202
     63  CD1     -141.6300 -273.0240   28.8110 C.ar  124  PHE124     -0.0042
     64  CD2     -139.4120 -273.5170   29.4940 C.ar  124  PHE124     -0.0042
     65  CE1     -141.3920 -271.6780   28.9840 C.ar  124  PHE124     -0.0003
     66  CE2     -139.1670 -272.1930   29.6600 C.ar  124  PHE124     -0.0003
     67  CZ      -140.1570 -271.2680   29.4010 C.ar  124  PHE124     -0.0000
     68  N       -138.3210 -276.0710   27.4610 N.am  125  SER125     -0.1952
     69  CA      -137.0060 -275.7130   26.9850 C.3   125  SER125      0.1924
     70  C       -136.8320 -276.0660   25.4970 C.2   125  SER125      0.2314
     71  O       -136.2750 -275.2750   24.7250 O.2   125  SER125     -0.2863
     72  CB      -135.9690 -276.4180   27.8410 C.3   125  SER125      0.2116
     73  OG      -134.7270 -276.3670   27.1620 O.3   125  SER125     -0.2180
     74  N       -132.7360 -280.3970   41.2620 N.3   353  LEU353     -0.1245
     75  CA      -132.7080 -279.1960   40.4460 C.3   353  LEU353      0.1561
     76  C       -132.0450 -278.0240   41.1690 C.2   353  LEU353      0.2260
     77  O       -131.1280 -277.3990   40.6280 O.2   353  LEU353     -0.2867
     78  CB      -134.1370 -278.8240   40.0280 C.3   353  LEU353      0.0270
     79  CG      -134.2210 -277.5160   39.2060 C.3   353  LEU353      0.0019
     80  CD1     -133.2950 -277.5770   37.9630 C.3   353  LEU353      0.0001
     81  CD2     -135.6670 -277.3370   38.7960 C.3   353  LEU353      0.0001
     82  N       -128.5290 -274.6510   40.9100 N.3   358  PHE358     -0.1241
     83  CA      -128.4480 -273.3100   41.5450 C.3   358  PHE358      0.1605
     84  C       -127.3450 -273.2620   42.5980 C.2   358  PHE358      0.2264
     85  O       -126.3720 -272.5260   42.4550 O.2   358  PHE358     -0.2867
     86  CB      -129.8170 -272.9540   42.1550 C.3   358  PHE358      0.0534
     87  CG      -130.9260 -272.9010   41.1140 C.ar  358  PHE358     -0.0203
     88  CD1     -130.6200 -272.7890   39.7910 C.ar  358  PHE358     -0.0042
     89  CD2     -132.2470 -272.9720   41.4640 C.ar  358  PHE358     -0.0042
     90  CE1     -131.6120 -272.7350   38.8170 C.ar  358  PHE358     -0.0003
     91  CE2     -133.2310 -272.9520   40.4870 C.ar  358  PHE358     -0.0003
     92  CZ      -132.8890 -272.8480   39.1600 C.ar  358  PHE358     -0.0000
@<TRIPOS>BOND
     1    71    70    2
     2    70    69    1
     3    60    59    2
     4    59    58    1
     5    59    68   am
     6    69    68    1
     7    69    72    1
     8    73    72    1
     9    57    58    1
    10    58    61    1
    11    63    65   ar
    12    63    62   ar
    13    61    62    1
    14    65    67   ar
    15    62    64   ar
    16    67    66   ar
    17    64    66   ar
    18    55    54    2
    19    54    53    1
    20    52    53    1
    21    53    56    1
    22     8     6    1
    23    39    38    1
    24     6     5    1
    25    44    43    2
    26    40    38    1
    27    32    31    1
    28    43    42    1
    29    38    37    1
    30    30    31   ar
    31    30    28   ar
    32     5     2    1
    33     5     7    1
    34    31    29   ar
    35     1     2    1
    36    41    42    1
    37    42    45    1
    38    28    26   ar
    39    37    34    1
    40     2     3    1
    41    29    27   ar
    42    34    35    1
    43    34    33    1
    44    36    35    2
    45    45    46    1
    46    26    27   ar
    47    26    25    1
    48    12    11    2
    49    46    48   ar
    50    46    47   ar
    51    10    11    1
    52    10     9    1
    53    48    50   ar
    54     3     4    2
    55    47    49   ar
    56    50    51   ar
    57    33    23   am
    58    11    13   am
    59    49    51   ar
    60    80    79    1
    61    25    22    1
    62    24    23    2
    63    23    22    1
    64    18    20    1
    65    18    17    1
    66    13    14    1
    67    14    17    1
    68    14    15    1
    69    81    79    1
    70    90    92   ar
    71    90    88   ar
    72    22    21    1
    73    92    91   ar
    74    17    19    1
    75    79    78    1
    76    16    15    2
    77    88    87   ar
    78    78    75    1
    79    75    76    1
    80    75    74    1
    81    91    89   ar
    82    77    76    2
    83    82    83    1
    84    87    89   ar
    85    87    86    1
    86    83    86    1
    87    83    84    1
    88    85    84    2
