@<TRIPOS>MOLECULE
tmp/5sytA03.pdb
 109 109 0 0 0
SMALL
GASTEIGER

@<TRIPOS>ATOM
      1  N       -121.4370 -262.8340   12.2730 N.3    64  ASP64      -0.1239
      2  CA      -122.8620 -263.1420   12.3740 C.3    64  ASP64       0.1674
      3  C       -123.1480 -264.0540   13.5690 C.2    64  ASP64       0.2266
      4  O       -124.1140 -263.8270   14.3150 O.2    64  ASP64      -0.2867
      5  CB      -123.3530 -263.7870   11.0760 C.3    64  ASP64       0.1410
      6  CG      -123.6790 -262.7650    9.9680 C.2    64  ASP64       0.3668
      7  OD1     -123.8170 -261.5500   10.2420 O.co2  64  ASP64      -0.2456
      8  OD2     -123.8460 -263.2130    8.8180 O.co2  64  ASP64      -0.2456
      9  N       -122.9930 -261.9110   16.7750 N.3    67  THR67      -0.1203
     10  CA      -124.2100 -261.1240   16.9490 C.3    67  THR67       0.1994
     11  C       -125.3690 -262.0010   17.4020 C.2    67  THR67       0.2617
     12  O       -126.1530 -261.6040   18.2620 O.2    67  THR67      -0.2717
     13  CB      -124.5440 -260.3880   15.6480 C.3    67  THR67       0.1784
     14  OG1     -123.4020 -259.6350   15.2670 O.3    67  THR67      -0.2211
     15  CG2     -125.7280 -259.4390   15.8030 C.3    67  THR67       0.0376
     16  N       -125.5210 -263.1800   16.8090 N.am   68  PHE68      -0.1975
     17  CA      -126.5780 -264.0980   17.2290 C.3    68  PHE68       0.1639
     18  C       -126.3730 -264.5360   18.6650 C.2    68  PHE68       0.2290
     19  O       -127.3250 -264.6360   19.4390 O.2    68  PHE68      -0.2864
     20  CB      -126.5830 -265.3130   16.3030 C.3    68  PHE68       0.0560
     21  CG      -127.5820 -266.3550   16.6510 C.ar   68  PHE68      -0.0200
     22  CD1     -128.8970 -266.2320   16.2730 C.ar   68  PHE68      -0.0042
     23  CD2     -127.1990 -267.4890   17.3110 C.ar   68  PHE68      -0.0042
     24  CE1     -129.7940 -267.2440   16.5620 C.ar   68  PHE68      -0.0003
     25  CE2     -128.1100 -268.4730   17.6050 C.ar   68  PHE68      -0.0003
     26  CZ      -129.3930 -268.3400   17.2240 C.ar   68  PHE68      -0.0000
     27  N       -127.6110 -261.8520   21.2670 N.3    71  TRP71      -0.1241
     28  CA      -129.0520 -261.8620   21.4860 C.3    71  TRP71       0.1605
     29  C       -129.5050 -263.1390   22.1860 C.2    71  TRP71       0.2264
     30  O       -130.3860 -263.0910   23.0440 O.2    71  TRP71      -0.2867
     31  CB      -129.7800 -261.7000   20.1550 C.3    71  TRP71       0.0550
     32  CG      -129.5840 -260.3570   19.5290 C.ar   71  TRP71       0.0003
     33  CD1     -128.8990 -260.0820   18.4180 C.ar   71  TRP71       0.0946
     34  CD2     -130.0660 -259.1020   20.0350 C.ar   71  TRP71       0.0152
     35  NE1     -128.9230 -258.7170   18.1680 N.ar   71  TRP71      -0.2442
     36  CE2     -129.6430 -258.1040   19.1520 C.ar   71  TRP71       0.0810
     37  CE3     -130.8270 -258.7430   21.1470 C.ar   71  TRP71       0.0012
     38  CZ2     -129.9440 -256.7430   19.3470 C.ar   71  TRP71       0.0191
     39  CZ3     -131.1390 -257.3890   21.3370 C.ar   71  TRP71       0.0001
     40  CH2     -130.6960 -256.4150   20.4440 C.ar   71  TRP71       0.0015
     41  N       -131.4550 -263.0690   25.7380 N.3    75  TYR75      -0.1241
     42  CA      -132.7750 -263.6410   25.9280 C.3    75  TYR75       0.1605
     43  C       -132.7320 -264.7240   27.0000 C.2    75  TYR75       0.2264
     44  O       -133.5800 -264.7660   27.8960 O.2    75  TYR75      -0.2867
     45  CB      -133.3060 -264.2230   24.6290 C.3    75  TYR75       0.0534
     46  CG      -134.4510 -265.1740   24.8580 C.ar   75  TYR75      -0.0201
     47  CD1     -134.2250 -266.5230   25.1510 C.ar   75  TYR75      -0.0009
     48  CD2     -135.7670 -264.7100   24.8480 C.ar   75  TYR75      -0.0009
     49  CE1     -135.2590 -267.3790   25.3830 C.ar   75  TYR75       0.0417
     50  CE2     -136.8230 -265.5740   25.0690 C.ar   75  TYR75       0.0417
     51  CZ      -136.5560 -266.9020   25.3480 C.ar   75  TYR75       0.1957
     52  OH      -137.6040 -267.7380   25.5750 O.3    75  TYR75      -0.2866
     53  N       -137.1500 -271.4430   17.9930 N.3   131  PRO131     -0.2102
     54  CA      -136.9460 -270.2630   17.1310 C.3   131  PRO131      0.1504
     55  C       -135.4790 -269.9580   16.8960 C.2   131  PRO131      0.2575
     56  O       -135.0550 -269.6490   15.7790 O.2   131  PRO131     -0.2718
     57  CB      -137.6330 -269.1480   17.9250 C.3   131  PRO131      0.0282
     58  CG      -138.5030 -269.8010   18.8150 C.3   131  PRO131      0.0208
     59  CD      -137.9410 -271.1080   19.1800 C.3   131  PRO131      0.0893
     60  N       -134.6830 -270.0510   17.9480 N.am  132  TRP132     -0.1977
     61  CA      -133.2640 -269.7620   17.8290 C.3   132  TRP132      0.1640
     62  C       -132.5410 -270.7720   16.9570 C.2   132  TRP132      0.2290
     63  O       -131.7160 -270.3950   16.1240 O.2   132  TRP132     -0.2864
     64  CB      -132.6660 -269.7350   19.2200 C.3   132  TRP132      0.0576
     65  CG      -133.3430 -268.6910   20.0590 C.ar  132  TRP132      0.0006
     66  CD1     -134.4640 -268.8460   20.8530 C.ar  132  TRP132      0.0946
     67  CD2     -132.9620 -267.3180   20.1590 C.ar  132  TRP132      0.0152
     68  NE1     -134.7950 -267.6390   21.4380 N.ar  132  TRP132     -0.2442
     69  CE2     -133.8870 -266.6880   21.0390 C.ar  132  TRP132      0.0810
     70  CE3     -131.9380 -266.5580   19.5930 C.ar  132  TRP132      0.0012
     71  CZ2     -133.8070 -265.3470   21.3550 C.ar  132  TRP132      0.0191
     72  CZ3     -131.8540 -265.2060   19.9200 C.ar  132  TRP132      0.0001
     73  CH2     -132.7930 -264.6160   20.7880 C.ar  132  TRP132      0.0015
     74  N       -133.4400 -270.2130   13.2960 N.3   135  TYR135     -0.1241
     75  CA      -132.7340 -269.0640   12.7510 C.3   135  TYR135      0.1605
     76  C       -131.2750 -269.3810   12.5000 C.2   135  TYR135      0.2264
     77  O       -130.7190 -269.0100   11.4640 O.2   135  TYR135     -0.2867
     78  CB      -132.8480 -267.8840   13.7050 C.3   135  TYR135      0.0534
     79  CG      -132.3250 -266.6170   13.1300 C.ar  135  TYR135     -0.0201
     80  CD1     -130.9880 -266.2860   13.2480 C.ar  135  TYR135     -0.0009
     81  CD2     -133.1740 -265.7290   12.4860 C.ar  135  TYR135     -0.0009
     82  CE1     -130.5120 -265.1040   12.7320 C.ar  135  TYR135      0.0417
     83  CE2     -132.6960 -264.5510   11.9700 C.ar  135  TYR135      0.0417
     84  CZ      -131.3710 -264.2520   12.1080 C.ar  135  TYR135      0.1957
     85  OH      -130.8890 -263.0920   11.5820 O.3   135  TYR135     -0.2866
     86  N       -131.0080 -269.3980    8.5940 N.3   139  VAL139     -0.1231
     87  CA      -130.5510 -268.0700    8.1950 C.3   139  VAL139      0.1692
     88  C       -129.0260 -268.0460    8.2320 C.2   139  VAL139      0.2591
     89  O       -128.3650 -267.9020    7.1930 O.2   139  VAL139     -0.2718
     90  CB      -131.1640 -266.9690    9.1080 C.3   139  VAL139      0.0266
     91  CG1     -130.7660 -265.5660    8.6490 C.3   139  VAL139      0.0020
     92  CG2     -132.6840 -267.0740    9.1540 C.3   139  VAL139      0.0020
     93  N       -128.4340 -268.2170    9.4180 N.am  140  ILE140     -0.1980
     94  CA      -126.9870 -268.0140    9.5290 C.3   140  ILE140      0.1595
     95  C       -126.2600 -269.0590    8.7110 C.2   140  ILE140      0.2287
     96  O       -125.4700 -268.7300    7.8270 O.2   140  ILE140     -0.2864
     97  CB      -126.5180 -268.0270   10.9940 C.3   140  ILE140      0.0276
     98  CG1     -127.0890 -266.8340   11.7740 C.3   140  ILE140      0.0022
     99  CG2     -124.9630 -268.0040   11.0590 C.3   140  ILE140      0.0022
    100  CD1     -126.6960 -266.8290   13.2220 C.3   140  ILE140      0.0001
    101  N       -126.9500 -268.8200    4.9730 N.3   143  LYS143     -0.1245
    102  CA      -126.3200 -267.6530    4.3770 C.3   143  LYS143      0.1561
    103  C       -124.8420 -267.8870    4.1100 C.2   143  LYS143      0.2260
    104  O       -124.3190 -267.4620    3.0720 O.2   143  LYS143     -0.2867
    105  CB      -126.5060 -266.4220    5.2770 C.3   143  LYS143      0.0271
    106  CG      -125.6740 -265.2620    4.8140 C.3   143  LYS143      0.0035
    107  CD      -126.0500 -263.9990    5.5800 C.3   143  LYS143      0.0206
    108  CE      -125.0230 -262.9120    5.4180 C.3   143  LYS143      0.1093
    109  NZ      -125.2130 -261.9540    6.5070 N.3   143  LYS143     -0.1314
@<TRIPOS>BOND
     1   104   103    2
     2   103   102    1
     3   102   101    1
     4   102   105    1
     5   106   105    1
     6   106   107    1
     7   108   107    1
     8   108   109    1
     9    89    88    2
    10    96    95    2
    11    87    88    1
    12    87    86    1
    13    87    90    1
    14    88    93   am
    15    91    90    1
    16    95    94    1
    17     8     6   ar
    18    90    92    1
    19    93    94    1
    20    94    97    1
    21     6     7   ar
    22     6     5    1
    23    97    99    1
    24    97    98    1
    25     5     2    1
    26    77    76    2
    27    85    84    1
    28    98   100    1
    29    83    84   ar
    30    83    81   ar
    31    84    82   ar
    32     1     2    1
    33     2     3    1
    34    81    79   ar
    35    76    75    1
    36    82    80   ar
    37    75    74    1
    38    75    78    1
    39    79    80   ar
    40    79    78    1
    41     3     4    2
    42    14    13    1
    43    13    15    1
    44    13    10    1
    45    56    55    2
    46    63    62    2
    47    22    24   ar
    48    22    21   ar
    49    20    21    1
    50    20    17    1
    51    24    26   ar
    52    21    23   ar
    53     9    10    1
    54    16    17    1
    55    16    11   am
    56    55    54    1
    57    55    60   am
    58    10    11    1
    59    62    61    1
    60    54    57    1
    61    54    53    1
    62    26    25   ar
    63    17    18    1
    64    23    25   ar
    65    11    12    2
    66    61    60    1
    67    61    64    1
    68    57    58    1
    69    53    59    1
    70    35    33   ar
    71    35    36   ar
    72    33    32   ar
    73    18    19    2
    74    58    59    1
    75    36    38   ar
    76    36    34   ar
    77    64    65    1
    78    38    40   ar
    79    32    34   ar
    80    32    31    1
    81    70    72   ar
    82    70    67   ar
    83    72    73   ar
    84    34    37   ar
    85    65    67   ar
    86    65    66   ar
    87    31    28    1
    88    67    69   ar
    89    40    39   ar
    90    73    71   ar
    91    66    68   ar
    92    69    71   ar
    93    69    68   ar
    94    37    39   ar
    95    27    28    1
    96    28    29    1
    97    29    30    2
    98    45    46    1
    99    45    42    1
   100    48    46   ar
   101    48    50   ar
   102    46    47   ar
   103    50    51   ar
   104    47    49   ar
   105    51    49   ar
   106    51    52    1
   107    41    42    1
   108    42    43    1
   109    43    44    2
