@<TRIPOS>MOLECULE
tmp/5sytA08.pdb
 91 85 0 0 0
SMALL
GASTEIGER

@<TRIPOS>ATOM
      1  N       -138.6580 -280.1610   30.0040 N.3   122  THR122     -0.1203
      2  CA      -137.8830 -280.4030   28.7950 C.3   122  THR122      0.1994
      3  C       -138.6430 -279.9720   27.5460 C.2   122  THR122      0.2617
      4  O       -138.0350 -279.4590   26.6030 O.2   122  THR122     -0.2717
      5  CB      -137.4620 -281.8810   28.6940 C.3   122  THR122      0.1784
      6  OG1     -138.6100 -282.7270   28.6260 O.3   122  THR122     -0.2211
      7  CG2     -136.6150 -282.2850   29.9130 C.3   122  THR122      0.0376
      8  N       -139.9640 -280.1250   27.5260 N.am  123  LEU123     -0.1979
      9  CA      -140.7240 -279.6120   26.3940 C.3   123  LEU123      0.1596
     10  C       -140.6080 -278.0870   26.3020 C.2   123  LEU123      0.2287
     11  O       -140.2510 -277.5400   25.2540 O.2   123  LEU123     -0.2864
     12  CB      -142.1840 -280.0310   26.5360 C.3   123  LEU123      0.0297
     13  CG      -143.0870 -279.5780   25.4020 C.3   123  LEU123      0.0022
     14  CD1     -142.6360 -280.1800   24.0940 C.3   123  LEU123      0.0001
     15  CD2     -144.5230 -279.9600   25.7210 C.3   123  LEU123      0.0001
     16  N       -137.3490 -277.2180   25.0590 N.3   126  ALA126     -0.1231
     17  CA      -137.2630 -277.5500   23.6370 C.3   126  ALA126      0.1694
     18  C       -138.0060 -276.5240   22.7980 C.2   126  ALA126      0.2591
     19  O       -137.5290 -276.1030   21.7360 O.2   126  ALA126     -0.2718
     20  CB      -137.8230 -278.9510   23.3550 C.3   126  ALA126      0.0304
     21  N       -139.1860 -276.1230   23.2430 N.am  127  LEU127     -0.1980
     22  CA      -139.9500 -275.1650   22.4590 C.3   127  LEU127      0.1596
     23  C       -139.2930 -273.7890   22.4570 C.2   127  LEU127      0.2287
     24  O       -139.2520 -273.1350   21.4200 O.2   127  LEU127     -0.2864
     25  CB      -141.3880 -275.0700   22.9680 C.3   127  LEU127      0.0297
     26  CG      -142.1990 -276.3760   22.8100 C.3   127  LEU127      0.0022
     27  CD1     -143.6390 -276.2020   23.2140 C.3   127  LEU127      0.0001
     28  CD2     -142.1470 -276.8370   21.3820 C.3   127  LEU127      0.0001
     29  N       -136.4680 -273.4940   19.9970 N.3   130  LEU130     -0.1245
     30  CA      -136.7120 -273.8100   18.5870 C.3   130  LEU130      0.1561
     31  C       -136.5680 -272.5920   17.6800 C.2   130  LEU130      0.2260
     32  O       -135.9390 -272.7020   16.6100 O.2   130  LEU130     -0.2867
     33  CB      -138.1030 -274.4240   18.4420 C.3   130  LEU130      0.0270
     34  CG      -138.3880 -275.5480   17.4530 C.3   130  LEU130      0.0019
     35  CD1     -137.2180 -275.9480   16.6050 C.3   130  LEU130      0.0001
     36  CD2     -138.8820 -276.7540   18.2550 C.3   130  LEU130      0.0001
     37  N       -137.3160 -280.7480   11.3870 N.3   155  MET155     -0.1245
     38  CA      -138.3850 -281.0210   12.3270 C.3   155  MET155      0.1570
     39  C       -138.5090 -282.5180   12.6130 C.2   155  MET155      0.2261
     40  O       -138.7250 -282.9170   13.7600 O.2   155  MET155     -0.2867
     41  CB      -139.7000 -280.4700   11.7870 C.3   155  MET155      0.0387
     42  CG      -139.7500 -278.9710   11.6330 C.3   155  MET155      0.0595
     43  SD      -139.2470 -278.0170   13.1190 S.3   155  MET155     -0.1393
     44  CE      -139.9950 -278.9060   14.4940 C.3   155  MET155      0.0692
     45  N       -135.8550 -283.1630   15.0810 N.3   158  ALA158     -0.1231
     46  CA      -136.0530 -282.5620   16.4030 C.3   158  ALA158      0.1694
     47  C       -137.0250 -283.3770   17.2370 C.2   158  ALA158      0.2591
     48  O       -136.7840 -283.6320   18.4150 O.2   158  ALA158     -0.2718
     49  CB      -136.5550 -281.1270   16.2640 C.3   158  ALA158      0.0304
     50  N       -138.1290 -283.7980   16.6300 N.am  159  ILE159     -0.1980
     51  CA      -139.1020 -284.6340   17.3030 C.3   159  ILE159      0.1595
     52  C       -138.4990 -285.9740   17.7160 C.2   159  ILE159      0.2287
     53  O       -138.7620 -286.4580   18.8130 O.2   159  ILE159     -0.2864
     54  CB      -140.3160 -284.8240   16.3860 C.3   159  ILE159      0.0276
     55  CG1     -140.9780 -283.4750   16.1460 C.3   159  ILE159      0.0022
     56  CG2     -141.2690 -285.8080   17.0130 C.3   159  ILE159      0.0022
     57  CD1     -141.9830 -283.5110   15.0700 C.3   159  ILE159      0.0001
     58  N       -135.3220 -286.7400   18.2880 N.3   161  LYS161     -0.1231
     59  CA      -134.4080 -286.5440   19.3990 C.3   161  LYS161      0.1693
     60  C       -135.1900 -286.3210   20.6950 C.2   161  LYS161      0.2592
     61  O       -134.8110 -286.8470   21.7430 O.2   161  LYS161     -0.2718
     62  CB      -133.4720 -285.3700   19.1100 C.3   161  LYS161      0.0285
     63  CG      -132.6400 -285.3790   17.8410 C.3   161  LYS161      0.0035
     64  CD      -131.6300 -284.2330   17.8870 C.3   161  LYS161      0.0206
     65  CE      -130.2100 -284.7770   17.9460 C.3   161  LYS161      0.1093
     66  NZ      -129.7430 -285.1730   16.5820 N.3   161  LYS161     -0.1314
     67  N       -136.3110 -285.5850   20.6360 N.am  162  PHE162     -0.1962
     68  CA      -137.0720 -285.3210   21.8520 C.3   162  PHE162      0.1771
     69  C       -137.7170 -286.6020   22.3920 C.2   162  PHE162      0.2619
     70  O       -137.6660 -286.8720   23.5980 O.2   162  PHE162     -0.2715
     71  CB      -138.1470 -284.2710   21.6090 C.3   162  PHE162      0.0574
     72  CG      -138.8930 -283.9030   22.8530 C.ar  162  PHE162     -0.0200
     73  CD1     -138.3970 -282.9440   23.7120 C.ar  162  PHE162     -0.0042
     74  CD2     -140.0740 -284.5460   23.1760 C.ar  162  PHE162     -0.0042
     75  CE1     -139.0870 -282.6100   24.8930 C.ar  162  PHE162     -0.0003
     76  CE2     -140.7640 -284.2330   24.3470 C.ar  162  PHE162     -0.0003
     77  CZ      -140.2650 -283.2540   25.2020 C.ar  162  PHE162     -0.0000
     78  N       -138.3200 -287.3980   21.5010 N.am  163  VAL163     -0.1977
     79  CA      -138.9440 -288.6580   21.8760 C.3   163  VAL163      0.1596
     80  C       -137.9230 -289.6160   22.4480 C.2   163  VAL163      0.2287
     81  O       -138.1590 -290.2580   23.4790 O.2   163  VAL163     -0.2864
     82  CB      -139.6530 -289.2780   20.6700 C.3   163  VAL163      0.0276
     83  CG1     -140.0930 -290.6850   20.9920 C.3   163  VAL163      0.0022
     84  CG2     -140.8400 -288.4470   20.3070 C.3   163  VAL163      0.0022
     85  N       -135.0890 -289.0660   23.7780 N.3   165  THR165     -0.1218
     86  CA      -134.6710 -288.5480   25.0700 C.3   165  THR165      0.1862
     87  C       -135.6560 -288.9310   26.1700 C.2   165  THR165      0.2287
     88  O       -135.2430 -289.3370   27.2620 O.2   165  THR165     -0.2866
     89  CB      -134.5180 -287.0180   24.9640 C.3   165  THR165      0.1770
     90  OG1     -133.3370 -286.7440   24.2040 O.3   165  THR165     -0.2211
     91  CG2     -134.3960 -286.3740   26.3030 C.3   165  THR165      0.0375
@<TRIPOS>BOND
     1    37    38    1
     2    42    41    1
     3    42    43    1
     4    41    38    1
     5    38    39    1
     6    39    40    2
     7    43    44    1
     8    57    55    1
     9    45    46    1
    10    55    54    1
    11    49    46    1
    12    54    56    1
    13    54    51    1
    14    46    47    1
    15    66    65    1
    16    35    34    1
    17    32    31    2
    18    50    47   am
    19    50    51    1
    20    47    48    2
    21    51    52    1
    22    34    36    1
    23    34    33    1
    24    31    30    1
    25    52    53    2
    26    63    64    1
    27    63    62    1
    28    64    65    1
    29    58    59    1
    30    33    30    1
    31    30    29    1
    32    62    59    1
    33    59    60    1
    34    84    82    1
    35    67    60   am
    36    67    68    1
    37    82    83    1
    38    82    79    1
    39    60    61    2
    40    28    26    1
    41    24    23    2
    42    78    79    1
    43    78    69   am
    44    71    68    1
    45    71    72    1
    46    19    18    2
    47    68    69    1
    48    79    80    1
    49    69    70    2
    50    80    81    2
    51    23    22    1
    52    22    25    1
    53    22    21    1
    54    18    21   am
    55    18    17    1
    56    26    25    1
    57    26    27    1
    58    72    74   ar
    59    72    73   ar
    60    74    76   ar
    61    20    17    1
    62    17    16    1
    63    73    75   ar
    64    85    86    1
    65    14    13    1
    66    90    89    1
    67    76    77   ar
    68    75    77   ar
    69    89    86    1
    70    89    91    1
    71    86    87    1
    72    11    10    2
    73    13    15    1
    74    13    12    1
    75    87    88    2
    76    10     9    1
    77     9    12    1
    78     9     8    1
    79     4     3    2
    80     8     3   am
    81     3     2    1
    82     6     5    1
    83     5     2    1
    84     5     7    1
    85     2     1    1
