@<TRIPOS>MOLECULE
tmp/5sytA12.pdb
 125 118 0 0 0
SMALL
GASTEIGER

@<TRIPOS>ATOM
      1  N       -127.9480 -266.7050   44.3640 N.3    14  VAL14      -0.1231
      2  CA      -127.9730 -267.4520   43.1110 C.3    14  VAL14       0.1692
      3  C       -128.2300 -266.4860   41.9650 C.2    14  VAL14       0.2591
      4  O       -127.5730 -266.5360   40.9140 O.2    14  VAL14      -0.2718
      5  CB      -129.0290 -268.5740   43.1710 C.3    14  VAL14       0.0266
      6  CG1     -129.2950 -269.1230   41.7880 C.3    14  VAL14       0.0020
      7  CG2     -128.5870 -269.7080   44.1450 C.3    14  VAL14       0.0020
      8  N       -129.1530 -265.5550   42.1690 N.am   15  LEU15      -0.1980
      9  CA      -129.5040 -264.6670   41.0740 C.3    15  LEU15       0.1596
     10  C       -128.3760 -263.6850   40.7910 C.2    15  LEU15       0.2287
     11  O       -128.0470 -263.4320   39.6370 O.2    15  LEU15      -0.2864
     12  CB      -130.8040 -263.9460   41.3820 C.3    15  LEU15       0.0297
     13  CG      -131.3790 -263.0900   40.2770 C.3    15  LEU15       0.0022
     14  CD1     -131.1570 -263.7210   38.8920 C.3    15  LEU15       0.0001
     15  CD2     -132.8370 -262.9330   40.5420 C.3    15  LEU15       0.0001
     16  N       -125.1810 -264.2220   41.3700 N.3    17  PHE17      -0.1227
     17  CA      -124.0950 -264.9570   40.7210 C.3    17  PHE17       0.1736
     18  C       -124.3810 -265.1530   39.2430 C.2    17  PHE17       0.2596
     19  O       -123.4910 -264.9770   38.4030 O.2    17  PHE17      -0.2718
     20  CB      -123.8780 -266.3140   41.3850 C.3    17  PHE17       0.0547
     21  CG      -122.7100 -267.0520   40.8330 C.ar   17  PHE17      -0.0202
     22  CD1     -121.4160 -266.5900   41.0390 C.ar   17  PHE17      -0.0042
     23  CD2     -122.8890 -268.2090   40.0930 C.ar   17  PHE17      -0.0042
     24  CE1     -120.3250 -267.2660   40.4980 C.ar   17  PHE17      -0.0003
     25  CE2     -121.8070 -268.8870   39.5510 C.ar   17  PHE17      -0.0003
     26  CZ      -120.5280 -268.4380   39.7610 C.ar   17  PHE17      -0.0000
     27  N       -125.6320 -265.4790   38.9080 N.am   18  SER18      -0.1952
     28  CA      -126.0380 -265.5940   37.5180 C.3    18  SER18       0.1924
     29  C       -125.7340 -264.3310   36.7210 C.2    18  SER18       0.2314
     30  O       -125.1830 -264.3900   35.6160 O.2    18  SER18      -0.2863
     31  CB      -127.5280 -265.8720   37.4460 C.3    18  SER18       0.2116
     32  OG      -127.7930 -266.3410   36.1310 O.3    18  SER18      -0.2180
     33  N       -121.8790 -263.7660   36.2850 N.3    21  VAL21      -0.1245
     34  CA      -121.3350 -264.5770   35.2040 C.3    21  VAL21       0.1561
     35  C       -121.7620 -264.0160   33.8610 C.2    21  VAL21       0.2260
     36  O       -120.9690 -263.9510   32.9120 O.2    21  VAL21      -0.2867
     37  CB      -121.7950 -266.0370   35.3400 C.3    21  VAL21       0.0252
     38  CG1     -121.2880 -266.8720   34.1210 C.3    21  VAL21       0.0019
     39  CG2     -121.3610 -266.6360   36.6600 C.3    21  VAL21       0.0019
     40  N       -131.7110 -265.5620   26.9650 N.3    76  SER76      -0.1202
     41  CA      -131.5930 -266.6410   27.9330 C.3    76  SER76       0.2020
     42  C       -131.4330 -266.1010   29.3570 C.2    76  SER76       0.2618
     43  O       -132.0530 -266.6070   30.2870 O.2    76  SER76      -0.2717
     44  CB      -130.4270 -267.5670   27.5200 C.3    76  SER76       0.2103
     45  OG      -130.1970 -268.5410   28.5090 O.3    76  SER76      -0.2182
     46  N       -130.6210 -265.0710   29.5600 N.am   77  GLU77      -0.1979
     47  CA      -130.5000 -264.4970   30.9120 C.3    77  GLU77       0.1602
     48  C       -131.8050 -263.8510   31.3850 C.2    77  GLU77       0.2287
     49  O       -132.1950 -264.0080   32.5470 O.2    77  GLU77      -0.2864
     50  CB      -129.3840 -263.4740   30.9930 C.3    77  GLU77       0.0415
     51  CG      -129.0060 -263.0700   32.3780 C.3    77  GLU77       0.1163
     52  CD      -128.3540 -264.1860   33.1770 C.2    77  GLU77       0.3649
     53  OE1     -127.9530 -265.1990   32.5850 O.co2  77  GLU77      -0.2457
     54  OE2     -128.2680 -264.0850   34.4260 O.co2  77  GLU77      -0.2457
     55  N       -134.9920 -264.6890   30.3810 N.3    79  GLU79      -0.1231
     56  CA      -135.9600 -265.7540   30.6300 C.3    79  GLU79       0.1699
     57  C       -135.6920 -266.4420   31.9590 C.2    79  GLU79       0.2593
     58  O       -136.6140 -266.7070   32.7350 O.2    79  GLU79      -0.2718
     59  CB      -135.9090 -266.7750   29.4850 C.3    79  GLU79       0.0402
     60  CG      -136.6560 -268.0800   29.7380 C.3    79  GLU79       0.1161
     61  CD      -136.3110 -269.1540   28.6950 C.2    79  GLU79       0.3649
     62  OE1     -135.1430 -269.6200   28.6880 O.co2  79  GLU79      -0.2457
     63  OE2     -137.1940 -269.4990   27.8670 O.co2  79  GLU79      -0.2457
     64  N       -134.4280 -266.7560   32.2290 N.am   80  GLY80      -0.1942
     65  CA      -134.0860 -267.3650   33.5000 C.3    80  GLY80       0.2014
     66  C       -134.3600 -266.4660   34.7030 C.2    80  GLY80       0.2639
     67  O       -134.8160 -266.9400   35.7450 O.2    80  GLY80      -0.2714
     68  N       -133.9900 -265.1840   34.6070 N.am   81  THR81      -0.1950
     69  CA      -134.2890 -264.1970   35.6460 C.3    81  THR81       0.1897
     70  C       -135.7830 -264.1180   35.9210 C.2    81  THR81       0.2313
     71  O       -136.2170 -264.0790   37.0730 O.2    81  THR81      -0.2863
     72  CB      -133.7370 -262.8320   35.1930 C.3    81  THR81       0.1794
     73  OG1     -132.3220 -262.8960   35.2080 O.3    81  THR81      -0.2208
     74  CG2     -134.1760 -261.6770   36.1350 C.3    81  THR81       0.0378
     75  N       -138.1910 -266.3430   35.2050 N.3    83  ILE83      -0.1231
     76  CA      -138.6820 -267.6010   35.7780 C.3    83  ILE83       0.1692
     77  C       -138.4080 -267.6530   37.2680 C.2    83  ILE83       0.2591
     78  O       -139.2650 -268.0410   38.0660 O.2    83  ILE83      -0.2718
     79  CB      -138.0360 -268.8000   35.0510 C.3    83  ILE83       0.0266
     80  CG1     -138.6230 -268.8830   33.6450 C.3    83  ILE83       0.0019
     81  CG2     -138.2370 -270.1010   35.8900 C.3    83  ILE83       0.0020
     82  CD1     -137.9350 -269.8750   32.7290 C.3    83  ILE83       0.0001
     83  N       -137.1850 -267.3240   37.6630 N.am   84  LEU84      -0.1980
     84  CA      -136.8580 -267.2820   39.0740 C.3    84  LEU84       0.1596
     85  C       -137.6590 -266.2180   39.8320 C.2    84  LEU84       0.2287
     86  O       -138.1460 -266.4770   40.9410 O.2    84  LEU84      -0.2864
     87  CB      -135.3600 -267.0290   39.2510 C.3    84  LEU84       0.0297
     88  CG      -134.3910 -268.1680   39.0000 C.3    84  LEU84       0.0022
     89  CD1     -133.0550 -267.7910   39.6110 C.3    84  LEU84       0.0001
     90  CD2     -134.8420 -269.4850   39.5980 C.3    84  LEU84       0.0001
     91  N       -128.1150 -277.4070   39.9790 N.3   357  GLN357     -0.1231
     92  CA      -128.1080 -276.2670   39.0680 C.3   357  GLN357      0.1698
     93  C       -127.9110 -274.9110   39.7530 C.2   357  GLN357      0.2592
     94  O       -127.2240 -274.0550   39.1980 O.2   357  GLN357     -0.2718
     95  CB      -129.4150 -276.2080   38.2650 C.3   357  GLN357      0.0381
     96  CG      -129.6780 -277.3630   37.3350 C.3   357  GLN357      0.0905
     97  CD      -128.4820 -277.6580   36.4500 C.2   357  GLN357      0.2608
     98  OE1     -128.1100 -278.8160   36.2580 O.2   357  GLN357     -0.2717
     99  NE2     -127.8590 -276.5970   35.9210 N.am  357  GLN357     -0.0878
    100  N       -128.5290 -274.6510   40.9100 N.am  358  PHE358     -0.1976
    101  CA      -128.4480 -273.3100   41.5450 C.3   358  PHE358      0.1639
    102  C       -127.3450 -273.2620   42.5980 C.2   358  PHE358      0.2290
    103  O       -126.3720 -272.5260   42.4550 O.2   358  PHE358     -0.2864
    104  CB      -129.8170 -272.9540   42.1550 C.3   358  PHE358      0.0560
    105  CG      -130.9260 -272.9010   41.1140 C.ar  358  PHE358     -0.0200
    106  CD1     -130.6200 -272.7890   39.7910 C.ar  358  PHE358     -0.0042
    107  CD2     -132.2470 -272.9720   41.4640 C.ar  358  PHE358     -0.0042
    108  CE1     -131.6120 -272.7350   38.8170 C.ar  358  PHE358     -0.0003
    109  CE2     -133.2310 -272.9520   40.4870 C.ar  358  PHE358     -0.0003
    110  CZ      -132.8890 -272.8480   39.1600 C.ar  358  PHE358     -0.0000
    111  N       -123.7970 -273.8960   41.4130 N.3   361  SER361     -0.1217
    112  CA      -123.4330 -272.8560   40.4180 C.3   361  SER361      0.1889
    113  C       -121.9540 -272.4390   40.4200 C.2   361  SER361      0.2288
    114  O       -121.2660 -272.5850   39.4020 O.2   361  SER361     -0.2866
    115  CB      -124.2990 -271.5940   40.6550 C.3   361  SER361      0.2089
    116  OG      -125.5330 -271.6970   39.9700 O.3   361  SER361     -0.2183
    117  N       -119.0980 -273.6200   37.6420 N.3   365  GLU365     -0.1245
    118  CA      -118.3620 -272.6940   36.7910 C.3   365  GLU365      0.1567
    119  C       -116.8680 -272.9020   36.9240 C.2   365  GLU365      0.2260
    120  O       -116.1390 -272.8810   35.9280 O.2   365  GLU365     -0.2867
    121  CB      -118.7040 -271.2260   37.1300 C.3   365  GLU365      0.0388
    122  CG      -120.1090 -270.8100   36.7160 C.3   365  GLU365      0.1160
    123  CD      -120.3150 -270.7220   35.2280 C.2   365  GLU365      0.3649
    124  OE1     -119.3910 -270.2840   34.4830 O.co2 365  GLU365     -0.2457
    125  OE2     -121.4420 -271.0760   34.8060 O.co2 365  GLU365     -0.2457
@<TRIPOS>BOND
     1    40    41    1
     2    44    41    1
     3    44    45    1
     4    63    61   ar
     5    41    42    1
     6    62    61   ar
     7    61    60    1
     8    42    46   am
     9    42    43    2
    10    59    60    1
    11    59    56    1
    12    46    47    1
    13    55    56    1
    14    56    57    1
    15    47    50    1
    16    47    48    1
    17    50    51    1
    18    48    49    2
    19    57    64   am
    20    57    58    2
    21    64    65    1
    22    51    52    1
    23    53    52   ar
    24    82    80    1
    25    36    35    2
    26    52    54   ar
    27    65    66    1
    28    80    79    1
    29    35    34    1
    30    38    37    1
    31   124   123   ar
    32    68    66   am
    33    68    69    1
    34    66    67    2
    35   125   123   ar
    36    79    76    1
    37    79    81    1
    38    72    73    1
    39    72    69    1
    40    72    74    1
    41    34    37    1
    42    34    33    1
    43    75    76    1
    44   123   122    1
    45    37    39    1
    46    30    29    2
    47    69    70    1
    48    76    77    1
    49    99    97   am
    50    70    71    2
    51   120   119    2
    52    32    31    1
    53    98    97    2
    54    97    96    1
    55   122   121    1
    56    29    28    1
    57   118   119    1
    58   118   121    1
    59   118   117    1
    60    77    83   am
    61    77    78    2
    62    96    95    1
    63    31    28    1
    64    28    27    1
    65    83    84    1
    66    95    92    1
    67    19    18    2
    68   108   110   ar
    69   108   106   ar
    70    14    13    1
    71    27    18   am
    72    88    87    1
    73    88    90    1
    74    88    89    1
    75    92    93    1
    76    92    91    1
    77    84    87    1
    78    84    85    1
    79   110   109   ar
    80    94    93    2
    81    18    17    1
    82   114   113    2
    83    25    26   ar
    84    25    23   ar
    85    11    10    2
    86    93   100   am
    87    26    24   ar
    88   106   105   ar
    89    85    86    2
    90   116   115    1
    91    23    21   ar
    92    13    15    1
    93    13    12    1
    94   112   113    1
    95   112   115    1
    96   112   111    1
    97   109   107   ar
    98    24    22   ar
    99    17    16    1
   100    17    20    1
   101    10     9    1
   102    21    22   ar
   103    21    20    1
   104   100   101    1
   105     4     3    2
   106     9    12    1
   107     9     8    1
   108   105   107   ar
   109   105   104    1
   110   101   104    1
   111   101   102    1
   112     6     5    1
   113     3     8   am
   114     3     2    1
   115   103   102    2
   116     2     5    1
   117     2     1    1
   118     5     7    1
