@<TRIPOS>MOLECULE
tmp/5sytA00.pdb
 99 94 0 0 0
SMALL
GASTEIGER

@<TRIPOS>ATOM
      1  N       -130.1140 -266.9260   50.0780 N.3    10  ILE10      -0.1245
      2  CA      -129.8700 -267.9910   49.1200 C.3    10  ILE10       0.1561
      3  C       -130.3700 -267.5980   47.7470 C.2    10  ILE10       0.2260
      4  O       -129.6510 -267.7270   46.7470 O.2    10  ILE10      -0.2867
      5  CB      -130.5290 -269.3070   49.5630 C.3    10  ILE10       0.0252
      6  CG1     -129.8690 -269.8040   50.8220 C.3    10  ILE10       0.0019
      7  CG2     -130.3760 -270.3660   48.4260 C.3    10  ILE10       0.0019
      8  CD1     -130.7150 -270.8680   51.5500 C.3    10  ILE10       0.0001
      9  N       -128.3650 -264.7460   46.2670 N.3    13  ALA13      -0.1231
     10  CA      -126.9960 -265.0470   45.8700 C.3    13  ALA13       0.1694
     11  C       -126.9620 -265.8540   44.5790 C.2    13  ALA13       0.2591
     12  O       -126.0540 -265.6880   43.7630 O.2    13  ALA13      -0.2718
     13  CB      -126.2640 -265.8070   46.9680 C.3    13  ALA13       0.0304
     14  N       -127.9480 -266.7050   44.3640 N.am   14  VAL14      -0.1980
     15  CA      -127.9730 -267.4520   43.1110 C.3    14  VAL14       0.1595
     16  C       -128.2300 -266.4860   41.9650 C.2    14  VAL14       0.2287
     17  O       -127.5730 -266.5360   40.9140 O.2    14  VAL14      -0.2864
     18  CB      -129.0290 -268.5740   43.1710 C.3    14  VAL14       0.0276
     19  CG1     -129.2950 -269.1230   41.7880 C.3    14  VAL14       0.0022
     20  CG2     -128.5870 -269.7080   44.1450 C.3    14  VAL14       0.0022
     21  N       -125.1810 -264.2220   41.3700 N.3    17  PHE17      -0.1241
     22  CA      -124.0950 -264.9570   40.7210 C.3    17  PHE17       0.1605
     23  C       -124.3810 -265.1530   39.2430 C.2    17  PHE17       0.2264
     24  O       -123.4910 -264.9770   38.4030 O.2    17  PHE17      -0.2867
     25  CB      -123.8780 -266.3140   41.3850 C.3    17  PHE17       0.0534
     26  CG      -122.7100 -267.0520   40.8330 C.ar   17  PHE17      -0.0203
     27  CD1     -121.4160 -266.5900   41.0390 C.ar   17  PHE17      -0.0042
     28  CD2     -122.8890 -268.2090   40.0930 C.ar   17  PHE17      -0.0042
     29  CE1     -120.3250 -267.2660   40.4980 C.ar   17  PHE17      -0.0003
     30  CE2     -121.8070 -268.8870   39.5510 C.ar   17  PHE17      -0.0003
     31  CZ      -120.5280 -268.4380   39.7610 C.ar   17  PHE17      -0.0000
     32  N       -126.9120 -281.5790   51.8740 N.3   330  LEU330     -0.1245
     33  CA      -127.7320 -280.3810   51.7950 C.3   330  LEU330      0.1561
     34  C       -129.2100 -280.6410   51.6740 C.2   330  LEU330      0.2260
     35  O       -130.0140 -279.6990   51.8220 O.2   330  LEU330     -0.2867
     36  CB      -127.3680 -279.5210   50.5890 C.3   330  LEU330      0.0270
     37  CG      -126.0590 -278.7700   50.6210 C.3   330  LEU330      0.0019
     38  CD1     -125.7510 -278.2820   49.2340 C.3   330  LEU330      0.0001
     39  CD2     -126.1800 -277.6180   51.5420 C.3   330  LEU330      0.0001
     40  N       -131.9670 -279.4510   54.1350 N.3   333  ARG333     -0.1245
     41  CA      -132.0890 -278.0330   54.5220 C.3   333  ARG333      0.1563
     42  C       -133.3280 -277.4290   53.8640 C.2   333  ARG333      0.2260
     43  O       -133.2980 -277.0110   52.7100 O.2   333  ARG333     -0.2867
     44  CB      -130.8650 -277.2190   54.1350 C.3   333  ARG333      0.0307
     45  CG      -129.4680 -277.5630   54.6930 C.3   333  ARG333      0.0489
     46  CD      -129.4950 -278.0610   56.0560 C.3   333  ARG333      0.2205
     47  NE      -129.8150 -277.0560   57.0710 N.pl3 333  ARG333     -0.0865
     48  CZ      -128.9310 -276.2270   57.6180 C.cat 333  ARG333      0.5346
     49  NH1     -127.6550 -276.2510   57.2370 N.pl3 333  ARG333      0.1354
     50  NH2     -129.3320 -275.3640   58.5400 N.pl3 333  ARG333      0.1354
     51  N       -134.6070 -274.6050   54.0640 N.3   335  GLU335     -0.1231
     52  CA      -134.4830 -273.2360   53.5720 C.3   335  GLU335      0.1699
     53  C       -134.1080 -273.1990   52.0900 C.2   335  GLU335      0.2592
     54  O       -134.4800 -272.2440   51.3930 O.2   335  GLU335     -0.2718
     55  CB      -133.4690 -272.4560   54.4180 C.3   335  GLU335      0.0402
     56  CG      -132.0480 -272.9790   54.4000 C.3   335  GLU335      0.1161
     57  CD      -131.7550 -273.9820   55.4820 C.2   335  GLU335      0.3649
     58  OE1     -132.7090 -274.5830   56.0480 O.co2 335  GLU335     -0.2457
     59  OE2     -130.5430 -274.1610   55.7610 O.co2 335  GLU335     -0.2457
     60  N       -133.4380 -274.2520   51.5760 N.am  336  LEU336     -0.1980
     61  CA      -133.0330 -274.2850   50.1700 C.3   336  LEU336      0.1596
     62  C       -134.2500 -274.3400   49.2700 C.2   336  LEU336      0.2287
     63  O       -134.3140 -273.6610   48.2360 O.2   336  LEU336     -0.2864
     64  CB      -132.1410 -275.4910   49.9330 C.3   336  LEU336      0.0297
     65  CG      -130.6140 -275.3510   49.9650 C.3   336  LEU336      0.0022
     66  CD1     -130.0770 -274.1320   50.6780 C.3   336  LEU336      0.0001
     67  CD2     -130.0260 -276.6000   50.5790 C.3   336  LEU336      0.0001
     68  N       -128.5290 -274.6510   40.9100 N.3   358  PHE358     -0.1227
     69  CA      -128.4480 -273.3100   41.5450 C.3   358  PHE358      0.1736
     70  C       -127.3450 -273.2620   42.5980 C.2   358  PHE358      0.2595
     71  O       -126.3720 -272.5260   42.4550 O.2   358  PHE358     -0.2718
     72  CB      -129.8170 -272.9540   42.1550 C.3   358  PHE358      0.0547
     73  CG      -130.9260 -272.9010   41.1140 C.ar  358  PHE358     -0.0202
     74  CD1     -130.6200 -272.7890   39.7910 C.ar  358  PHE358     -0.0042
     75  CD2     -132.2470 -272.9720   41.4640 C.ar  358  PHE358     -0.0042
     76  CE1     -131.6120 -272.7350   38.8170 C.ar  358  PHE358     -0.0003
     77  CE2     -133.2310 -272.9520   40.4870 C.ar  358  PHE358     -0.0003
     78  CZ      -132.8890 -272.8480   39.1600 C.ar  358  PHE358     -0.0000
     79  N       -127.4560 -274.0850   43.6320 N.am  359  ILE359     -0.1980
     80  CA      -126.5180 -274.0490   44.7510 C.3   359  ILE359      0.1595
     81  C       -125.1120 -274.4050   44.3070 C.2   359  ILE359      0.2287
     82  O       -124.1380 -273.8030   44.7840 O.2   359  ILE359     -0.2864
     83  CB      -126.9970 -274.9850   45.8810 C.3   359  ILE359      0.0276
     84  CG1     -128.3880 -274.6400   46.3850 C.3   359  ILE359      0.0022
     85  CG2     -126.0910 -274.9170   47.0580 C.3   359  ILE359      0.0022
     86  CD1     -128.6240 -273.1570   46.6930 C.3   359  ILE359      0.0001
     87  N       -123.7970 -273.8960   41.4130 N.3   361  SER361     -0.1203
     88  CA      -123.4330 -272.8560   40.4180 C.3   361  SER361      0.2005
     89  C       -121.9540 -272.4390   40.4200 C.2   361  SER361      0.2460
     90  O       -121.2660 -272.5850   39.4020 O.2   361  SER361     -0.2732
     91  CB      -124.2990 -271.5940   40.6550 C.3   361  SER361      0.2103
     92  OG      -125.5330 -271.6970   39.9700 O.3   361  SER361     -0.2182
     93  N       -121.4230 -271.8910   41.5210 N.am  362  PRO362     -0.2728
     94  CA      -120.0020 -271.4980   41.5070 C.3   362  PRO362      0.1401
     95  C       -119.0360 -272.6460   41.2950 C.2   362  PRO362      0.2269
     96  O       -118.0150 -272.4800   40.6300 O.2   362  PRO362     -0.2865
     97  CB      -119.7990 -270.8640   42.8860 C.3   362  PRO362      0.0296
     98  CG      -121.1700 -270.4650   43.3150 C.3   362  PRO362      0.0237
     99  CD      -122.0830 -271.4750   42.7750 C.3   362  PRO362      0.0939
@<TRIPOS>BOND
     1    24    23    2
     2    76    78   ar
     3    76    74   ar
     4    78    77   ar
     5    23    22    1
     6    90    89    2
     7    30    31   ar
     8    30    28   ar
     9    31    29   ar
    10    74    73   ar
    11    92    91    1
    12    28    26   ar
    13    88    89    1
    14    88    91    1
    15    88    87    1
    16    89    93   am
    17    77    75   ar
    18    29    27   ar
    19    96    95    2
    20    22    21    1
    21    22    25    1
    22    26    27   ar
    23    26    25    1
    24    68    69    1
    25    17    16    2
    26    73    75   ar
    27    73    72    1
    28    95    94    1
    29    94    93    1
    30    94    97    1
    31    93    99    1
    32    69    72    1
    33    69    70    1
    34    19    18    1
    35    16    15    1
    36    71    70    2
    37    70    79   am
    38    99    98    1
    39    97    98    1
    40    15    18    1
    41    15    14    1
    42    18    20    1
    43    79    80    1
    44    12    11    2
    45    81    80    1
    46    81    82    2
    47    14    11   am
    48    11    10    1
    49    80    83    1
    50    10     9    1
    51    10    13    1
    52    83    84    1
    53    83    85    1
    54    84    86    1
    55     4     3    2
    56     3     2    1
    57    63    62    2
    58     7     5    1
    59     2     5    1
    60     2     1    1
    61    38    37    1
    62    62    61    1
    63     5     6    1
    64    64    65    1
    65    64    61    1
    66    65    67    1
    67    65    66    1
    68    61    60    1
    69    36    37    1
    70    36    33    1
    71    37    39    1
    72     6     8    1
    73    54    53    2
    74    60    53   am
    75    34    33    1
    76    34    35    2
    77    33    32    1
    78    53    52    1
    79    43    42    2
    80    52    51    1
    81    52    55    1
    82    42    41    1
    83    40    41    1
    84    44    41    1
    85    44    45    1
    86    56    55    1
    87    56    57    1
    88    45    46    1
    89    57    59   ar
    90    57    58   ar
    91    46    47    1
    92    47    48    2
    93    49    48    1
    94    48    50    1
