@<TRIPOS>MOLECULE
tmp/5sytA07.pdb
 129 122 0 0 0
SMALL
GASTEIGER

@<TRIPOS>ATOM
      1  N       -123.6540 -294.1590   37.4130 N.3   196  LEU196     -0.1245
      2  CA      -122.5000 -294.7250   36.7270 C.3   196  LEU196      0.1561
      3  C       -122.8910 -295.8710   35.7880 C.2   196  LEU196      0.2260
      4  O       -122.3690 -295.9680   34.6750 O.2   196  LEU196     -0.2867
      5  CB      -121.4710 -295.2000   37.7510 C.3   196  LEU196      0.0270
      6  CG      -120.2190 -295.8410   37.1900 C.3   196  LEU196      0.0019
      7  CD1     -119.0690 -295.6060   38.1080 C.3   196  LEU196      0.0001
      8  CD2     -120.4530 -297.2950   37.0730 C.3   196  LEU196      0.0001
      9  N       -124.8130 -294.5910   32.8510 N.3   199  SER199     -0.1202
     10  CA      -123.8790 -293.9180   31.9620 C.3   199  SER199      0.2020
     11  C       -123.0940 -294.9330   31.1430 C.2   199  SER199      0.2618
     12  O       -122.8780 -294.7500   29.9420 O.2   199  SER199     -0.2717
     13  CB      -122.9100 -293.0480   32.7660 C.3   199  SER199      0.2103
     14  OG      -123.5570 -291.9750   33.3990 O.3   199  SER199     -0.2182
     15  N       -122.6490 -296.0000   31.7890 N.am  200  LEU200     -0.1979
     16  CA      -121.9060 -297.0640   31.1170 C.3   200  LEU200      0.1596
     17  C       -122.7550 -297.7710   30.0640 C.2   200  LEU200      0.2287
     18  O       -122.2950 -298.0270   28.9400 O.2   200  LEU200     -0.2864
     19  CB      -121.4160 -298.0470   32.1620 C.3   200  LEU200      0.0297
     20  CG      -120.6980 -299.2730   31.6140 C.3   200  LEU200      0.0022
     21  CD1     -119.4430 -298.7810   30.8730 C.3   200  LEU200      0.0001
     22  CD2     -120.3820 -300.2680   32.7550 C.3   200  LEU200      0.0001
     23  N       -123.4150 -295.4420   27.0440 N.3   203  VAL203     -0.1245
     24  CA      -122.2590 -295.2490   26.1860 C.3   203  VAL203      0.1561
     25  C       -121.9650 -296.5380   25.4120 C.2   203  VAL203      0.2260
     26  O       -121.4930 -296.5070   24.2670 O.2   203  VAL203     -0.2867
     27  CB      -121.1060 -294.7800   27.0930 C.3   203  VAL203      0.0252
     28  CG1     -119.7760 -295.0060   26.4610 C.3   203  VAL203      0.0019
     29  CG2     -121.3110 -293.3240   27.4740 C.3   203  VAL203      0.0019
     30  N       -105.3280 -289.3780   21.8770 N.3   303  HIS303     -0.1241
     31  CA      -106.2100 -289.3150   23.0350 C.3   303  HIS303      0.1621
     32  C       -106.3720 -290.7000   23.6570 C.2   303  HIS303      0.2264
     33  O       -106.5990 -290.8310   24.8630 O.2   303  HIS303     -0.2867
     34  CB      -107.5660 -288.7590   22.6190 C.3   303  HIS303      0.0745
     35  CG      -107.5690 -287.2980   22.2550 C.ar  303  HIS303      0.0817
     36  ND1     -106.9420 -286.3370   23.0090 N.ar  303  HIS303     -0.2268
     37  CD2     -108.1980 -286.6380   21.2560 C.ar  303  HIS303      0.1154
     38  CE1     -107.1650 -285.1470   22.4790 C.ar  303  HIS303      0.1986
     39  NE2     -107.9420 -285.2990   21.4230 N.ar  303  HIS303     -0.2212
     40  N       -106.1960 -290.0770   27.7820 N.3   308  HIS308     -0.1226
     41  CA      -107.0220 -288.8990   28.0520 C.3   308  HIS308      0.1752
     42  C       -108.4740 -289.2760   28.2620 C.2   308  HIS308      0.2596
     43  O       -109.1740 -288.6750   29.0950 O.2   308  HIS308     -0.2718
     44  CB      -106.9440 -287.8930   26.8980 C.3   308  HIS308      0.0759
     45  CG      -105.5980 -287.2940   26.6990 C.ar  308  HIS308      0.0818
     46  ND1     -105.2140 -286.7430   25.4950 N.ar  308  HIS308     -0.2268
     47  CD2     -104.5460 -287.1480   27.5390 C.ar  308  HIS308      0.1154
     48  CE1     -103.9850 -286.2690   25.6050 C.ar  308  HIS308      0.1986
     49  NE2     -103.5490 -286.5170   26.8300 N.ar  308  HIS308     -0.2212
     50  N       -108.9680 -290.2160   27.4660 N.am  309  THR309     -0.1953
     51  CA      -110.3560 -290.6260   27.6050 C.3   309  THR309      0.1897
     52  C       -110.6050 -291.2640   28.9560 C.2   309  THR309      0.2313
     53  O       -111.6940 -291.1340   29.5090 O.2   309  THR309     -0.2863
     54  CB      -110.7300 -291.6080   26.5030 C.3   309  THR309      0.1794
     55  OG1     -110.4740 -290.9920   25.2460 O.3   309  THR309     -0.2208
     56  CG2     -112.2120 -291.9870   26.5940 C.3   309  THR309      0.0378
     57  N       -110.7330 -288.4800   31.5700 N.3   312  ASN312     -0.1225
     58  CA      -112.0070 -287.7670   31.5580 C.3   312  ASN312      0.1785
     59  C       -113.1110 -288.5510   32.2370 C.2   312  ASN312      0.2597
     60  O       -113.9680 -287.9620   32.9030 O.2   312  ASN312     -0.2718
     61  CB      -112.4430 -287.4260   30.1430 C.3   312  ASN312      0.1169
     62  CG      -111.5500 -286.3780   29.4880 C.2   312  ASN312      0.2627
     63  OD1     -111.3520 -286.3960   28.2700 O.2   312  ASN312     -0.2716
     64  ND2     -110.9910 -285.4830   30.2850 N.am  312  ASN312     -0.0877
     65  N       -113.1330 -289.8780   32.0510 N.am  313  ILE313     -0.1980
     66  CA      -114.1560 -290.7100   32.6720 C.3   313  ILE313      0.1595
     67  C       -113.9970 -290.6950   34.1780 C.2   313  ILE313      0.2287
     68  O       -114.9750 -290.5950   34.9310 O.2   313  ILE313     -0.2864
     69  CB      -114.0570 -292.1430   32.1300 C.3   313  ILE313      0.0276
     70  CG1     -114.4010 -292.1930   30.6490 C.3   313  ILE313      0.0022
     71  CG2     -114.9810 -293.0420   32.8990 C.3   313  ILE313      0.0022
     72  CD1     -114.0470 -293.5360   30.0190 C.3   313  ILE313      0.0001
     73  N       -115.1290 -287.3640   35.6170 N.3   316  SER316     -0.1202
     74  CA      -116.5750 -287.1660   35.6540 C.3   316  SER316      0.2020
     75  C       -117.2260 -287.9940   36.7450 C.2   316  SER316      0.2618
     76  O       -118.2080 -287.5470   37.3570 O.2   316  SER316     -0.2717
     77  CB      -117.1980 -287.4960   34.2960 C.3   316  SER316      0.2103
     78  OG      -117.0030 -288.8220   33.9490 O.3   316  SER316     -0.2182
     79  N       -116.7010 -289.1890   37.0240 N.am  317  GLN317     -0.1979
     80  CA      -117.3170 -290.0070   38.0790 C.3   317  GLN317      0.1601
     81  C       -116.8920 -289.5700   39.4700 C.2   317  GLN317      0.2287
     82  O       -117.6690 -289.7120   40.4200 O.2   317  GLN317     -0.2864
     83  CB      -116.9970 -291.5070   37.8660 C.3   317  GLN317      0.0394
     84  CG      -117.5730 -292.0630   36.5890 C.3   317  GLN317      0.0908
     85  CD      -119.0770 -291.9690   36.5560 C.2   317  GLN317      0.2608
     86  OE1     -119.7230 -292.1650   37.5620 O.2   317  GLN317     -0.2717
     87  NE2     -119.6380 -291.6480   35.4130 N.am  317  GLN317     -0.0878
     88  N       -111.8780 -277.7450   33.4090 N.3   371  LEU371     -0.1245
     89  CA      -111.8870 -278.7730   32.3750 C.3   371  LEU371      0.1561
     90  C       -111.4780 -278.1950   31.0310 C.2   371  LEU371      0.2260
     91  O       -110.9030 -278.9010   30.1920 O.2   371  LEU371     -0.2867
     92  CB      -113.2770 -279.4230   32.2960 C.3   371  LEU371      0.0270
     93  CG      -113.6990 -280.3250   33.4830 C.3   371  LEU371      0.0019
     94  CD1     -115.1920 -280.7520   33.4450 C.3   371  LEU371      0.0001
     95  CD2     -112.8410 -281.5590   33.5430 C.3   371  LEU371      0.0001
     96  N       -107.6810 -278.0300   31.0270 N.3   374  LEU374     -0.1231
     97  CA      -107.1720 -279.3930   30.8680 C.3   374  LEU374      0.1693
     98  C       -107.3040 -279.8620   29.4230 C.2   374  LEU374      0.2592
     99  O       -106.3660 -280.4150   28.8390 O.2   374  LEU374     -0.2718
    100  CB      -107.9260 -280.3290   31.8020 C.3   374  LEU374      0.0284
    101  CG      -107.5360 -281.7850   31.6300 C.3   374  LEU374      0.0019
    102  CD1     -106.0440 -281.9500   31.8870 C.3   374  LEU374      0.0001
    103  CD2     -108.3530 -282.6430   32.5730 C.3   374  LEU374      0.0001
    104  N       -108.4750 -279.6360   28.8420 N.am  375  SER375     -0.1952
    105  CA      -108.7460 -279.9630   27.4550 C.3   375  SER375      0.1924
    106  C       -107.7040 -279.3680   26.5110 C.2   375  SER375      0.2314
    107  O       -107.1930 -280.0500   25.6210 O.2   375  SER375     -0.2863
    108  CB      -110.1520 -279.4660   27.1210 C.3   375  SER375      0.2116
    109  OG      -110.4520 -279.5730   25.7710 O.3   375  SER375     -0.2180
    110  N       -104.5970 -281.4130   26.8090 N.3   378  PHE378     -0.1227
    111  CA      -104.7000 -282.6940   26.1120 C.3   378  PHE378      0.1736
    112  C       -104.5720 -282.5200   24.6110 C.2   378  PHE378      0.2595
    113  O       -103.9980 -283.3750   23.9150 O.2   378  PHE378     -0.2718
    114  CB      -106.0330 -283.3570   26.4600 C.3   378  PHE378      0.0547
    115  CG      -106.0710 -283.9690   27.8260 C.ar  378  PHE378     -0.0202
    116  CD1     -104.9490 -283.9940   28.6330 C.ar  378  PHE378     -0.0042
    117  CD2     -107.2460 -284.5250   28.3030 C.ar  378  PHE378     -0.0042
    118  CE1     -104.9940 -284.5640   29.8790 C.ar  378  PHE378     -0.0003
    119  CE2     -107.3030 -285.1140   29.5500 C.ar  378  PHE378     -0.0003
    120  CZ      -106.1780 -285.1280   30.3460 C.ar  378  PHE378     -0.0000
    121  N       -105.1080 -281.4270   24.0810 N.am  379  GLU379     -0.1979
    122  CA      -105.0010 -281.2090   22.6440 C.3   379  GLU379      0.1602
    123  C       -103.5530 -281.0060   22.2170 C.2   379  GLU379      0.2287
    124  O       -103.1170 -281.5650   21.2010 O.2   379  GLU379     -0.2864
    125  CB      -105.8740 -280.0320   22.2380 C.3   379  GLU379      0.0415
    126  CG      -107.3360 -280.4270   22.1850 C.3   379  GLU379      0.1163
    127  CD      -107.6180 -281.3740   21.0430 C.2   379  GLU379      0.3649
    128  OE1     -107.7150 -280.9270   19.8780 O.co2 379  GLU379     -0.2457
    129  OE2     -107.7270 -282.5660   21.3010 O.co2 379  GLU379     -0.2457
@<TRIPOS>BOND
     1   128   127   ar
     2   127   129   ar
     3   127   126    1
     4   124   123    2
     5    37    39   ar
     6    37    35   ar
     7    39    38   ar
     8    30    31    1
     9   126   125    1
    10   123   122    1
    11   125   122    1
    12    35    34    1
    13    35    36   ar
    14    38    36   ar
    15    34    31    1
    16   122   121    1
    17    31    32    1
    18    32    33    2
    19   113   112    2
    20   121   112   am
    21    26    25    2
    22   112   111    1
    23    55    54    1
    24    25    24    1
    25    46    48   ar
    26    46    45   ar
    27    48    49   ar
    28   107   106    2
    29   109   108    1
    30   111   114    1
    31   111   110    1
    32    24    23    1
    33    24    27    1
    34   114   115    1
    35    28    27    1
    36    54    56    1
    37    54    51    1
    38   106   105    1
    39    45    44    1
    40    45    47   ar
    41    49    47   ar
    42    44    41    1
    43    27    29    1
    44   108   105    1
    45   105   104    1
    46    50    51    1
    47    50    42   am
    48    51    52    1
    49    40    41    1
    50   115   117   ar
    51   115   116   ar
    52    41    42    1
    53    42    43    2
    54    63    62    2
    55   117   119   ar
    56   116   118   ar
    57    99    98    2
    58   104    98   am
    59    18    17    2
    60    52    53    2
    61    98    97    1
    62    62    61    1
    63    62    64   am
    64   119   120   ar
    65   118   120   ar
    66    12    11    2
    67    72    70    1
    68    17    16    1
    69    61    58    1
    70    91    90    2
    71    70    69    1
    72    97    96    1
    73    97   100    1
    74    21    20    1
    75    90    89    1
    76    16    15    1
    77    16    19    1
    78    11    15   am
    79    11    10    1
    80    58    57    1
    81    58    59    1
    82    20    19    1
    83    20    22    1
    84   101   100    1
    85   101   102    1
    86   101   103    1
    87    10    13    1
    88    10     9    1
    89    65    59   am
    90    65    66    1
    91    69    66    1
    92    69    71    1
    93    59    60    2
    94    92    89    1
    95    92    93    1
    96    89    88    1
    97    66    67    1
    98    13    14    1
    99    94    93    1
   100    93    95    1
   101    78    77    1
   102    67    68    2
   103    77    74    1
   104     4     3    2
   105    87    85   am
   106    73    74    1
   107    74    75    1
   108     3     2    1
   109    85    84    1
   110    85    86    2
   111    84    83    1
   112     2     1    1
   113     2     5    1
   114    75    79   am
   115    75    76    2
   116    79    80    1
   117     8     6    1
   118     6     5    1
   119     6     7    1
   120    83    80    1
   121    80    81    1
   122    81    82    2
