@<TRIPOS>MOLECULE
tmp/5sytA13.pdb
 95 87 0 0 0
SMALL
GASTEIGER

@<TRIPOS>ATOM
      1  N       -138.3210 -276.0710   27.4610 N.3   125  SER125     -0.1202
      2  CA      -137.0060 -275.7130   26.9850 C.3   125  SER125      0.2020
      3  C       -136.8320 -276.0660   25.4970 C.2   125  SER125      0.2618
      4  O       -136.2750 -275.2750   24.7250 O.2   125  SER125     -0.2717
      5  CB      -135.9690 -276.4180   27.8410 C.3   125  SER125      0.2103
      6  OG      -134.7270 -276.3670   27.1620 O.3   125  SER125     -0.2182
      7  N       -137.3490 -277.2180   25.0590 N.am  126  ALA126     -0.1979
      8  CA      -137.2630 -277.5500   23.6370 C.3   126  ALA126      0.1597
      9  C       -138.0060 -276.5240   22.7980 C.2   126  ALA126      0.2287
     10  O       -137.5290 -276.1030   21.7360 O.2   126  ALA126     -0.2864
     11  CB      -137.8230 -278.9510   23.3550 C.3   126  ALA126      0.0319
     12  N       -136.1960 -273.0740   22.7110 N.3   129  GLY129     -0.1210
     13  CA      -134.9850 -273.1410   21.9090 C.3   129  GLY129      0.1956
     14  C       -135.2370 -273.1660   20.4150 C.2   129  GLY129      0.2611
     15  O       -134.3310 -272.8350   19.6330 O.2   129  GLY129     -0.2717
     16  N       -136.4680 -273.4940   19.9970 N.am  130  LEU130     -0.1979
     17  CA      -136.7120 -273.8100   18.5870 C.3   130  LEU130      0.1596
     18  C       -136.5680 -272.5920   17.6800 C.2   130  LEU130      0.2287
     19  O       -135.9390 -272.7020   16.6100 O.2   130  LEU130     -0.2864
     20  CB      -138.1030 -274.4240   18.4420 C.3   130  LEU130      0.0297
     21  CG      -138.3880 -275.5480   17.4530 C.3   130  LEU130      0.0022
     22  CD1     -137.2180 -275.9480   16.6050 C.3   130  LEU130      0.0001
     23  CD2     -138.8820 -276.7540   18.2550 C.3   130  LEU130      0.0001
     24  N       -132.8070 -272.0590   17.1570 N.3   133  SER133     -0.1217
     25  CA      -132.1680 -273.1030   16.3620 C.3   133  SER133      0.1889
     26  C       -132.5660 -273.0140   14.8950 C.2   133  SER133      0.2288
     27  O       -131.7400 -273.2420   13.9990 O.2   133  SER133     -0.2866
     28  CB      -132.5490 -274.4790   16.9590 C.3   133  SER133      0.2089
     29  OG      -132.2920 -275.4990   16.0270 O.3   133  SER133     -0.2183
     30  N       -129.9100 -272.2930   11.8880 N.3   137  THR137     -0.1218
     31  CA      -129.7450 -273.2700   10.8300 C.3   137  THR137      0.1862
     32  C       -130.1380 -272.6910    9.4710 C.2   137  THR137      0.2287
     33  O       -129.4010 -272.8470    8.4870 O.2   137  THR137     -0.2866
     34  CB      -130.5480 -274.5260   11.1410 C.3   137  THR137      0.1770
     35  OG1     -130.0220 -275.1260   12.3290 O.3   137  THR137     -0.2211
     36  CG2     -130.4300 -275.5340   10.0180 C.3   137  THR137      0.0375
     37  N       -129.7640 -279.0830    5.0550 N.3   149  GLN149     -0.1245
     38  CA      -130.9950 -279.7900    5.3170 C.3   149  GLN149      0.1566
     39  C       -132.2090 -278.9270    5.0250 C.2   149  GLN149      0.2260
     40  O       -132.1500 -277.7020    5.0730 O.2   149  GLN149     -0.2867
     41  CB      -131.0300 -280.2830    6.7660 C.3   149  GLN149      0.0367
     42  CG      -131.1960 -279.1960    7.8300 C.3   149  GLN149      0.0905
     43  CD      -130.5900 -279.6180    9.1190 C.2   149  GLN149      0.2608
     44  OE1     -129.3720 -279.6000    9.3110 O.2   149  GLN149     -0.2717
     45  NE2     -131.4300 -280.0320   10.0090 N.am  149  GLN149     -0.0878
     46  N       -135.3040 -281.1180    9.4260 N.3   154  PHE154     -0.1241
     47  CA      -134.9860 -280.4920   10.6980 C.3   154  PHE154      0.1605
     48  C       -136.0280 -280.8320   11.7520 C.2   154  PHE154      0.2264
     49  O       -135.6780 -281.1560   12.8930 O.2   154  PHE154     -0.2867
     50  CB      -134.8760 -278.9780   10.4980 C.3   154  PHE154      0.0534
     51  CG      -134.6170 -278.2140   11.7590 C.ar  154  PHE154     -0.0203
     52  CD1     -135.6550 -277.9000   12.6210 C.ar  154  PHE154     -0.0042
     53  CD2     -133.3370 -277.7930   12.0790 C.ar  154  PHE154     -0.0042
     54  CE1     -135.4130 -277.2050   13.7800 C.ar  154  PHE154     -0.0003
     55  CE2     -133.0950 -277.0910   13.2340 C.ar  154  PHE154     -0.0003
     56  CZ      -134.1270 -276.7980   14.0850 C.ar  154  PHE154     -0.0000
     57  N       -136.0770 -284.5920   12.6340 N.3   157  ASP157     -0.1225
     58  CA      -134.9470 -284.8210   13.5140 C.3   157  ASP157      0.1805
     59  C       -135.2440 -284.3420   14.9410 C.2   157  ASP157      0.2597
     60  O       -134.9760 -285.0590   15.9130 O.2   157  ASP157     -0.2718
     61  CB      -133.7470 -284.1140   12.9070 C.3   157  ASP157      0.1424
     62  CG      -132.4350 -284.4520   13.5870 C.2   157  ASP157      0.3668
     63  OD1     -132.0770 -285.6350   13.6890 O.co2 157  ASP157     -0.2456
     64  OD2     -131.7190 -283.5200   13.9770 O.co2 157  ASP157     -0.2456
     65  N       -135.8550 -283.1630   15.0810 N.am  158  ALA158     -0.1979
     66  CA      -136.0530 -282.5620   16.4030 C.3   158  ALA158      0.1597
     67  C       -137.0250 -283.3770   17.2370 C.2   158  ALA158      0.2287
     68  O       -136.7840 -283.6320   18.4150 O.2   158  ALA158     -0.2864
     69  CB      -136.5550 -281.1270   16.2640 C.3   158  ALA158      0.0319
     70  N       -135.3220 -286.7400   18.2880 N.3   161  LYS161     -0.1245
     71  CA      -134.4080 -286.5440   19.3990 C.3   161  LYS161      0.1561
     72  C       -135.1900 -286.3210   20.6950 C.2   161  LYS161      0.2260
     73  O       -134.8110 -286.8470   21.7430 O.2   161  LYS161     -0.2867
     74  CB      -133.4720 -285.3700   19.1100 C.3   161  LYS161      0.0271
     75  CG      -132.6400 -285.3790   17.8410 C.3   161  LYS161      0.0035
     76  CD      -131.6300 -284.2330   17.8870 C.3   161  LYS161      0.0206
     77  CE      -130.2100 -284.7770   17.9460 C.3   161  LYS161      0.1093
     78  NZ      -129.7430 -285.1730   16.5820 N.3   161  LYS161     -0.1314
     79  N       -126.6630 -283.0950    6.8780 N.3   251  ARG251     -0.1231
     80  CA      -126.9850 -281.9590    7.7380 C.3   251  ARG251      0.1694
     81  C       -126.2610 -280.6770    7.3370 C.2   251  ARG251      0.2592
     82  O       -126.8750 -279.6090    7.3070 O.2   251  ARG251     -0.2718
     83  CB      -126.6130 -282.2790    9.1790 C.3   251  ARG251      0.0321
     84  CG      -127.4180 -283.4400    9.7870 C.3   251  ARG251      0.0489
     85  CD      -126.7600 -283.9980   11.0630 C.3   251  ARG251      0.2205
     86  NE      -127.5420 -285.1390   11.5830 N.pl3 251  ARG251     -0.0865
     87  CZ      -128.6790 -285.0030   12.2450 C.cat 251  ARG251      0.5346
     88  NH1     -129.1700 -283.7980   12.5300 N.pl3 251  ARG251      0.1354
     89  NH2     -129.3260 -286.0670   12.6410 N.pl3 251  ARG251      0.1354
     90  N       -124.9730 -280.7740    7.0320 N.am  252  SER252     -0.1952
     91  CA      -124.0750 -279.6370    7.0600 C.3   252  SER252      0.1924
     92  C       -122.8050 -279.9980    6.3050 C.2   252  SER252      0.2314
     93  O       -122.4000 -281.1640    6.2950 O.2   252  SER252     -0.2863
     94  CB      -123.7450 -279.2830    8.5000 C.3   252  SER252      0.2116
     95  OG      -122.8220 -278.2080    8.5620 O.3   252  SER252     -0.2180
@<TRIPOS>BOND
     1    39    40    2
     2    39    38    1
     3    37    38    1
     4    38    41    1
     5    93    92    2
     6    92    91    1
     7    41    42    1
     8    79    80    1
     9    90    91    1
    10    90    81   am
    11    91    94    1
    12    82    81    2
    13    81    80    1
    14    80    83    1
    15    42    43    1
    16    33    32    2
    17    94    95    1
    18    43    44    2
    19    43    45   am
    20    83    84    1
    21    46    47    1
    22    32    31    1
    23    84    85    1
    24    36    34    1
    25    50    47    1
    26    50    51    1
    27    47    48    1
    28    31    34    1
    29    31    30    1
    30    85    86    1
    31    34    35    1
    32    86    87    2
    33    48    49    2
    34    51    53   ar
    35    51    52   ar
    36    53    55   ar
    37    87    88    1
    38    87    89    1
    39    52    54   ar
    40    57    58    1
    41    61    58    1
    42    61    62    1
    43    55    56   ar
    44    58    59    1
    45    62    63   ar
    46    62    64   ar
    47    54    56   ar
    48    27    26    2
    49    26    25    1
    50    59    65   am
    51    59    60    2
    52    65    66    1
    53    29    28    1
    54    69    66    1
    55    25    28    1
    56    25    24    1
    57    66    67    1
    58    78    77    1
    59    22    21    1
    60    19    18    2
    61    67    68    2
    62    21    23    1
    63    21    20    1
    64    18    17    1
    65    75    76    1
    66    75    74    1
    67    76    77    1
    68    70    71    1
    69    20    17    1
    70    17    16    1
    71    74    71    1
    72    71    72    1
    73    15    14    2
    74    16    14   am
    75    14    13    1
    76    72    73    2
    77    10     9    2
    78    13    12    1
    79     9     8    1
    80    11     8    1
    81     8     7    1
    82     4     3    2
    83     7     3   am
    84     3     2    1
    85     2     1    1
    86     2     5    1
    87     6     5    1
