@<TRIPOS>MOLECULE
tmp/5sytA06.pdb
 172 163 0 0 0
SMALL
GASTEIGER

@<TRIPOS>ATOM
      1  N       -143.4550 -283.2280   35.4670 N.3   117  PHE117     -0.1227
      2  CA      -142.6300 -282.0220   35.5010 C.3   117  PHE117      0.1736
      3  C       -141.4250 -282.1560   34.5760 C.2   117  PHE117      0.2595
      4  O       -141.0760 -281.2240   33.8360 O.2   117  PHE117     -0.2718
      5  CB      -142.1950 -281.7570   36.9500 C.3   117  PHE117      0.0547
      6  CG      -141.2690 -280.5830   37.1150 C.ar  117  PHE117     -0.0202
      7  CD1     -141.7650 -279.3020   37.3030 C.ar  117  PHE117     -0.0042
      8  CD2     -139.9080 -280.7720   37.1600 C.ar  117  PHE117     -0.0042
      9  CE1     -140.9060 -278.2510   37.4640 C.ar  117  PHE117     -0.0003
     10  CE2     -139.0460 -279.7330   37.3180 C.ar  117  PHE117     -0.0003
     11  CZ      -139.5400 -278.4580   37.4820 C.ar  117  PHE117     -0.0000
     12  N       -140.7500 -283.2960   34.6320 N.am  118  LEU118     -0.1980
     13  CA      -139.6120 -283.5400   33.7330 C.3   118  LEU118      0.1596
     14  C       -140.0300 -283.4480   32.2680 C.2   118  LEU118      0.2287
     15  O       -139.3340 -282.8460   31.4290 O.2   118  LEU118     -0.2864
     16  CB      -139.0150 -284.9120   34.0490 C.3   118  LEU118      0.0297
     17  CG      -137.5180 -285.1880   34.2190 C.3   118  LEU118      0.0022
     18  CD1     -136.7130 -284.0210   34.6830 C.3   118  LEU118      0.0001
     19  CD2     -137.3610 -286.2690   35.2160 C.3   118  LEU118      0.0001
     20  N       -140.9330 -279.5780   31.5710 N.3   121  ALA121     -0.1231
     21  CA      -139.7480 -278.7370   31.6420 C.3   121  ALA121      0.1694
     22  C       -138.8830 -278.9130   30.4100 C.2   121  ALA121      0.2592
     23  O       -138.4420 -277.9330   29.7940 O.2   121  ALA121     -0.2718
     24  CB      -138.9710 -279.0680   32.9260 C.3   121  ALA121      0.0304
     25  N       -138.6580 -280.1610   30.0040 N.am  122  THR122     -0.1953
     26  CA      -137.8830 -280.4030   28.7950 C.3   122  THR122      0.1897
     27  C       -138.6430 -279.9720   27.5460 C.2   122  THR122      0.2313
     28  O       -138.0350 -279.4590   26.6030 O.2   122  THR122     -0.2863
     29  CB      -137.4620 -281.8810   28.6940 C.3   122  THR122      0.1794
     30  OG1     -138.6100 -282.7270   28.6260 O.3   122  THR122     -0.2208
     31  CG2     -136.6150 -282.2850   29.9130 C.3   122  THR122      0.0378
     32  N       -138.3210 -276.0710   27.4610 N.3   125  SER125     -0.1217
     33  CA      -137.0060 -275.7130   26.9850 C.3   125  SER125      0.1889
     34  C       -136.8320 -276.0660   25.4970 C.2   125  SER125      0.2288
     35  O       -136.2750 -275.2750   24.7250 O.2   125  SER125     -0.2866
     36  CB      -135.9690 -276.4180   27.8410 C.3   125  SER125      0.2089
     37  OG      -134.7270 -276.3670   27.1620 O.3   125  SER125     -0.2183
     38  N       -133.9590 -293.6090   39.6340 N.3   176  LEU176     -0.1245
     39  CA      -133.0170 -292.8050   40.4130 C.3   176  LEU176      0.1561
     40  C       -133.7190 -292.1210   41.5710 C.2   176  LEU176      0.2260
     41  O       -133.1680 -292.0530   42.6800 O.2   176  LEU176     -0.2867
     42  CB      -132.3500 -291.7510   39.5260 C.3   176  LEU176      0.0270
     43  CG      -131.4610 -290.7350   40.2590 C.3   176  LEU176      0.0019
     44  CD1     -130.3790 -291.4280   40.9510 C.3   176  LEU176      0.0001
     45  CD2     -130.8670 -289.6900   39.3000 C.3   176  LEU176      0.0001
     46  N       -126.1380 -294.0840   38.6060 N.3   195  THR195     -0.1218
     47  CA      -125.8950 -293.2020   37.4700 C.3   195  THR195      0.1862
     48  C       -124.6510 -293.6290   36.7110 C.2   195  THR195      0.2287
     49  O       -124.5810 -293.4550   35.4920 O.2   195  THR195     -0.2866
     50  CB      -125.7880 -291.7240   37.9060 C.3   195  THR195      0.1770
     51  OG1     -124.6430 -291.5270   38.7410 O.3   195  THR195     -0.2211
     52  CG2     -126.9870 -291.3750   38.6950 C.3   195  THR195      0.0375
     53  N       -115.1290 -287.3640   35.6170 N.3   316  SER316     -0.1217
     54  CA      -116.5750 -287.1660   35.6540 C.3   316  SER316      0.1889
     55  C       -117.2260 -287.9940   36.7450 C.2   316  SER316      0.2288
     56  O       -118.2080 -287.5470   37.3570 O.2   316  SER316     -0.2866
     57  CB      -117.1980 -287.4960   34.2960 C.3   316  SER316      0.2089
     58  OG      -117.0030 -288.8220   33.9490 O.3   316  SER316     -0.2183
     59  N       -116.3670 -286.4220   40.1580 N.3   319  ASN319     -0.1225
     60  CA      -117.2230 -285.2590   40.3130 C.3   319  ASN319      0.1785
     61  C       -118.6420 -285.6840   40.6350 C.2   319  ASN319      0.2597
     62  O       -119.3120 -285.0750   41.4850 O.2   319  ASN319     -0.2718
     63  CB      -117.1970 -284.3840   39.0380 C.3   319  ASN319      0.1169
     64  CG      -118.2530 -283.2850   39.0730 C.2   319  ASN319      0.2627
     65  OD1     -118.1380 -282.3390   39.8430 O.2   319  ASN319     -0.2716
     66  ND2     -119.3030 -283.4350   38.2720 N.am  319  ASN319     -0.0877
     67  N       -119.1250 -286.7240   39.9650 N.am  320  SER320     -0.1952
     68  CA      -120.4810 -287.1850   40.2430 C.3   320  SER320      0.1924
     69  C       -120.5880 -287.6850   41.6820 C.2   320  SER320      0.2314
     70  O       -121.5960 -287.4510   42.3710 O.2   320  SER320     -0.2863
     71  CB      -120.8770 -288.2750   39.2420 C.3   320  SER320      0.2116
     72  OG      -122.1240 -288.8690   39.5800 O.3   320  SER320     -0.2180
     73  N       -120.6990 -284.5540   44.0910 N.3   323  CYS323     -0.1221
     74  CA      -121.9770 -283.8500   44.0680 C.3   323  CYS323      0.1808
     75  C       -123.0900 -284.6290   44.7480 C.2   323  CYS323      0.2601
     76  O       -123.9470 -284.0240   45.4090 O.2   323  CYS323     -0.2717
     77  CB      -122.3610 -283.5450   42.6390 C.3   323  CYS323      0.0970
     78  SG      -121.2210 -282.2990   41.9120 S.3   323  CYS323     -0.0800
     79  N       -123.1250 -285.9670   44.5790 N.am  324  PHE324     -0.1976
     80  CA      -124.1460 -286.7570   45.2760 C.3   324  PHE324      0.1639
     81  C       -123.9080 -286.7320   46.7800 C.2   324  PHE324      0.2290
     82  O       -124.8550 -286.6480   47.5640 O.2   324  PHE324     -0.2864
     83  CB      -124.1890 -288.2070   44.7600 C.3   324  PHE324      0.0560
     84  CG      -125.1280 -288.4080   43.5950 C.ar  324  PHE324     -0.0200
     85  CD1     -126.4770 -288.1260   43.7100 C.ar  324  PHE324     -0.0042
     86  CD2     -124.6530 -288.8390   42.3740 C.ar  324  PHE324     -0.0042
     87  CE1     -127.3380 -288.2840   42.6440 C.ar  324  PHE324     -0.0003
     88  CE2     -125.5290 -289.0380   41.3070 C.ar  324  PHE324     -0.0003
     89  CZ      -126.8590 -288.7760   41.4490 C.ar  324  PHE324     -0.0000
     90  N       -136.9890 -284.3060   43.2980 N.3   349  LEU349     -0.1245
     91  CA      -136.4920 -283.8660   42.0180 C.3   349  LEU349      0.1561
     92  C       -136.2020 -282.3730   42.0460 C.2   349  LEU349      0.2260
     93  O       -135.1770 -281.9060   41.5090 O.2   349  LEU349     -0.2867
     94  CB      -137.5230 -284.1800   40.9470 C.3   349  LEU349      0.0270
     95  CG      -137.1360 -283.7310   39.5290 C.3   349  LEU349      0.0019
     96  CD1     -135.9680 -284.5190   39.0460 C.3   349  LEU349      0.0001
     97  CD2     -138.2810 -283.8760   38.5490 C.3   349  LEU349      0.0001
     98  N       -133.0020 -281.9490   43.5820 N.3   352  LEU352     -0.1231
     99  CA      -131.8630 -282.1400   42.6930 C.3   352  LEU352      0.1693
    100  C       -131.6480 -280.9030   41.8430 C.2   352  LEU352      0.2591
    101  O       -130.5180 -280.4370   41.6750 O.2   352  LEU352     -0.2718
    102  CB      -132.0850 -283.3460   41.7960 C.3   352  LEU352      0.0284
    103  CG      -132.0030 -284.6960   42.5090 C.3   352  LEU352      0.0019
    104  CD1     -132.5900 -285.7170   41.6100 C.3   352  LEU352      0.0001
    105  CD2     -130.5330 -285.0090   42.8190 C.3   352  LEU352      0.0001
    106  N       -132.7360 -280.3970   41.2620 N.am  353  LEU353     -0.1980
    107  CA      -132.7080 -279.1960   40.4460 C.3   353  LEU353      0.1596
    108  C       -132.0450 -278.0240   41.1690 C.2   353  LEU353      0.2287
    109  O       -131.1280 -277.3990   40.6280 O.2   353  LEU353     -0.2864
    110  CB      -134.1370 -278.8240   40.0280 C.3   353  LEU353      0.0297
    111  CG      -134.2210 -277.5160   39.2060 C.3   353  LEU353      0.0022
    112  CD1     -133.2950 -277.5770   37.9630 C.3   353  LEU353      0.0001
    113  CD2     -135.6670 -277.3370   38.7960 C.3   353  LEU353      0.0001
    114  N       -128.1050 -279.0390   42.3580 N.3   356  PHE356     -0.1227
    115  CA      -127.1480 -279.2830   41.2760 C.3   356  PHE356      0.1736
    116  C       -127.0040 -278.0720   40.3470 C.2   356  PHE356      0.2595
    117  O       -125.8890 -277.7420   39.9490 O.2   356  PHE356     -0.2718
    118  CB      -127.5670 -280.4990   40.4640 C.3   356  PHE356      0.0547
    119  CG      -127.0850 -281.8280   41.0220 C.ar  356  PHE356     -0.0202
    120  CD1     -127.6940 -282.4170   42.1170 C.ar  356  PHE356     -0.0042
    121  CD2     -126.0610 -282.5230   40.4140 C.ar  356  PHE356     -0.0042
    122  CE1     -127.2660 -283.6430   42.6170 C.ar  356  PHE356     -0.0003
    123  CE2     -125.6450 -283.7620   40.9200 C.ar  356  PHE356     -0.0003
    124  CZ      -126.2700 -284.3120   42.0310 C.ar  356  PHE356     -0.0000
    125  N       -128.1150 -277.4070   39.9790 N.am  357  GLN357     -0.1979
    126  CA      -128.1080 -276.2670   39.0680 C.3   357  GLN357      0.1601
    127  C       -127.9110 -274.9110   39.7530 C.2   357  GLN357      0.2287
    128  O       -127.2240 -274.0550   39.1980 O.2   357  GLN357     -0.2864
    129  CB      -129.4150 -276.2080   38.2650 C.3   357  GLN357      0.0394
    130  CG      -129.6780 -277.3630   37.3350 C.3   357  GLN357      0.0908
    131  CD      -128.4820 -277.6580   36.4500 C.2   357  GLN357      0.2608
    132  OE1     -128.1100 -278.8160   36.2580 O.2   357  GLN357     -0.2717
    133  NE2     -127.8590 -276.5970   35.9210 N.am  357  GLN357     -0.0878
    134  N       -124.9620 -275.4300   43.4470 N.3   360  PHE360     -0.1241
    135  CA      -123.6230 -275.8160   43.0050 C.3   360  PHE360      0.1605
    136  C       -123.0380 -274.9010   41.9110 C.2   360  PHE360      0.2264
    137  O       -121.8890 -275.1220   41.5230 O.2   360  PHE360     -0.2867
    138  CB      -123.5960 -277.2760   42.4910 C.3   360  PHE360      0.0534
    139  CG      -123.7700 -278.3360   43.5570 C.ar  360  PHE360     -0.0203
    140  CD1     -123.8930 -278.0080   44.8980 C.ar  360  PHE360     -0.0042
    141  CD2     -123.8180 -279.6780   43.1960 C.ar  360  PHE360     -0.0042
    142  CE1     -124.0440 -278.9970   45.8470 C.ar  360  PHE360     -0.0003
    143  CE2     -123.9870 -280.6700   44.1540 C.ar  360  PHE360     -0.0003
    144  CZ      -124.1070 -280.3060   45.4800 C.ar  360  PHE360     -0.0000
    145  N       -119.2860 -273.7870   41.9080 N.3   363  TYR363     -0.1227
    146  CA      -118.4420 -274.9400   41.6680 C.3   363  TYR363      0.1736
    147  C       -118.5350 -275.4010   40.2140 C.2   363  TYR363      0.2595
    148  O       -117.5270 -275.7080   39.5840 O.2   363  TYR363     -0.2718
    149  CB      -118.8610 -276.0510   42.6420 C.3   363  TYR363      0.0548
    150  CG      -118.2990 -277.3890   42.2750 C.ar  363  TYR363     -0.0200
    151  CD1     -116.9910 -277.7240   42.6040 C.ar  363  TYR363     -0.0009
    152  CD2     -119.0550 -278.3090   41.5800 C.ar  363  TYR363     -0.0009
    153  CE1     -116.4660 -278.9550   42.2750 C.ar  363  TYR363      0.0417
    154  CE2     -118.5220 -279.5570   41.2400 C.ar  363  TYR363      0.0417
    155  CZ      -117.2250 -279.8640   41.5950 C.ar  363  TYR363      0.1957
    156  OH      -116.6660 -281.0990   41.2520 O.3   363  TYR363     -0.2866
    157  N       -119.7460 -275.4650   39.6700 N.am  364  ASN364     -0.1974
    158  CA      -119.9200 -275.8360   38.2730 C.3   364  ASN364      0.1688
    159  C       -119.1290 -274.9230   37.3520 C.2   364  ASN364      0.2292
    160  O       -118.5530 -275.3850   36.3640 O.2   364  ASN364     -0.2864
    161  CB      -121.4140 -275.7980   37.8970 C.3   364  ASN364      0.1181
    162  CG      -122.2820 -276.8170   38.6980 C.2   364  ASN364      0.2629
    163  OD1     -121.7670 -277.7470   39.3250 O.2   364  ASN364     -0.2716
    164  ND2     -123.6060 -276.6310   38.6540 N.am  364  ASN364     -0.0877
    165  N       -115.2960 -275.6010   37.8340 N.3   367  LEU367     -0.1245
    166  CA      -114.9420 -276.8780   37.2060 C.3   367  LEU367      0.1561
    167  C       -114.9990 -276.8000   35.6890 C.2   367  LEU367      0.2260
    168  O       -114.1220 -277.3540   35.0270 O.2   367  LEU367     -0.2867
    169  CB      -115.8510 -278.0190   37.7170 C.3   367  LEU367      0.0270
    170  CG      -115.5380 -279.4530   37.2750 C.3   367  LEU367      0.0019
    171  CD1     -114.1020 -279.8550   37.6760 C.3   367  LEU367      0.0001
    172  CD2     -116.5270 -280.4730   37.8140 C.3   367  LEU367      0.0001
@<TRIPOS>BOND
     1    35    34    2
     2    34    33    1
     3    28    27    2
     4    33    32    1
     5    33    36    1
     6    37    36    1
     7    27    26    1
     8    30    29    1
     9    29    26    1
    10    29    31    1
    11    26    25    1
    12    23    22    2
    13    25    22   am
    14    22    21    1
    15    15    14    2
    16    20    21    1
    17    21    24    1
    18    14    13    1
    19    13    16    1
    20    13    12    1
    21     4     3    2
    22    58    57    1
    23    16    17    1
    24    17    18    1
    25    17    19    1
    26    57    54    1
    27     3    12   am
    28     3     2    1
    29   168   167    2
    30     1     2    1
    31    49    48    2
    32     2     5    1
    33    53    54    1
    34    54    55    1
    35   167   166    1
    36   133   131   am
    37   132   131    2
    38   160   159    2
    39   131   130    1
    40    48    47    1
    41    55    56    2
    42     5     6    1
    43     6     8   ar
    44     6     7   ar
    45     8    10   ar
    46   166   169    1
    47   166   165    1
    48   170   171    1
    49   170   169    1
    50   170   172    1
    51     7     9   ar
    52    10    11   ar
    53   130   129    1
    54   159   158    1
    55     9    11   ar
    56    47    50    1
    57    47    46    1
    58   161   158    1
    59   161   162    1
    60    50    52    1
    61    50    51    1
    62   112   111    1
    63   129   126    1
    64    66    64   am
    65   158   157    1
    66    97    95    1
    67   164   162   am
    68   162   163    2
    69   113   111    1
    70    63    64    1
    71    63    60    1
    72    96    95    1
    73   126   127    1
    74   126   125    1
    75    64    65    2
    76   128   127    2
    77   111   110    1
    78    71    72    1
    79    71    68    1
    80    45    43    1
    81    42    43    1
    82    42    39    1
    83    95    94    1
    84   148   147    2
    85    38    39    1
    86   157   147   am
    87   117   116    2
    88    67    68    1
    89    67    61   am
    90   125   116   am
    91   110   107    1
    92    59    60    1
    93   147   146    1
    94    68    69    1
    95    43    44    1
    96    60    61    1
    97   116   115    1
    98    39    40    1
    99   121   123   ar
   100   121   119   ar
   101   107   108    1
   102   107   106    1
   103   118   119    1
   104   118   115    1
   105   109   108    2
   106    61    62    2
   107   123   124   ar
   108    94    91    1
   109   119   120   ar
   110   154   152   ar
   111   154   155   ar
   112   156   155    1
   113   106   100   am
   114   115   114    1
   115    88    89   ar
   116    88    86   ar
   117    89    87   ar
   118    93    92    2
   119   137   136    2
   120    40    41    2
   121   152   150   ar
   122   155   153   ar
   123   104   103    1
   124   146   145    1
   125   146   149    1
   126   101   100    2
   127    69    70    2
   128   102   103    1
   129   102    99    1
   130   100    99    1
   131   136   135    1
   132    78    77    1
   133    91    92    1
   134    91    90    1
   135   124   122   ar
   136   120   122   ar
   137   153   151   ar
   138   150   151   ar
   139   150   149    1
   140    86    84   ar
   141   138   135    1
   142   138   139    1
   143   103   105    1
   144    77    74    1
   145    87    85   ar
   146    99    98    1
   147   135   134    1
   148   141   139   ar
   149   141   143   ar
   150   139   140   ar
   151    84    85   ar
   152    84    83    1
   153    74    73    1
   154    74    75    1
   155   143   144   ar
   156    79    75   am
   157    79    80    1
   158    75    76    2
   159    83    80    1
   160   140   142   ar
   161    80    81    1
   162   144   142   ar
   163    81    82    2
