@<TRIPOS>MOLECULE
tmp/5sz2A01.pdb
 145 141 0 0 0
SMALL
GASTEIGER

@<TRIPOS>ATOM
      1  N         -4.9010    1.8720   75.4940 N.3    64  ASN64      -0.1240
      2  CA        -5.7210    2.8280   76.2210 C.3    64  ASN64       0.1653
      3  C         -6.9200    3.2050   75.3690 C.2    64  ASN64       0.2266
      4  O         -6.7670    3.5340   74.1890 O.2    64  ASN64      -0.2867
      5  CB        -4.9500    4.1090   76.5530 C.3    64  ASN64       0.1155
      6  CG        -3.8880    3.9040   77.5990 C.2    64  ASN64       0.2627
      7  OD1       -3.8410    2.8650   78.2510 O.2    64  ASN64      -0.2716
      8  ND2       -3.0140    4.9010   77.7600 N.am   64  ASN64      -0.0877
      9  N        -10.3710    9.6490   82.3970 N.3    88  ILE88      -0.1231
     10  CA        -9.4820   10.0380   81.3100 C.3    88  ILE88       0.1692
     11  C         -9.2150    8.8770   80.3580 C.2    88  ILE88       0.2591
     12  O         -9.1290    9.0760   79.1440 O.2    88  ILE88      -0.2718
     13  CB        -8.1570   10.6390   81.8440 C.3    88  ILE88       0.0266
     14  CG1       -7.2010   10.9320   80.6840 C.3    88  ILE88       0.0019
     15  CG2       -7.4870    9.7250   82.8650 C.3    88  ILE88       0.0020
     16  CD1       -6.0690   11.8860   81.0590 C.3    88  ILE88       0.0001
     17  N         -9.1180    7.6520   80.8770 N.am   89  GLN89      -0.1979
     18  CA        -8.8430    6.5060   80.0170 C.3    89  GLN89       0.1601
     19  C         -9.0960    5.2380   80.8120 C.2    89  GLN89       0.2287
     20  O         -9.1170    5.2610   82.0430 O.2    89  GLN89      -0.2864
     21  CB        -7.3970    6.5220   79.4970 C.3    89  GLN89       0.0394
     22  CG        -6.3470    6.6060   80.6220 C.3    89  GLN89       0.0908
     23  CD        -5.5250    5.3350   80.7910 C.2    89  GLN89       0.2608
     24  OE1       -6.0590    4.2330   80.7990 O.2    89  GLN89      -0.2717
     25  NE2       -4.2090    5.4940   80.9250 N.am   89  GLN89      -0.0878
     26  N         -7.6620    0.9460   80.5400 N.3    91  HIS91      -0.1241
     27  CA        -6.7590   -0.0140   79.9270 C.3    91  HIS91       0.1621
     28  C         -6.8440   -1.3090   80.7200 C.2    91  HIS91       0.2264
     29  O         -7.4910   -1.3760   81.7670 O.2    91  HIS91      -0.2867
     30  CB        -5.3200    0.4950   79.9160 C.3    91  HIS91       0.0745
     31  CG        -4.7820    0.7400   81.2880 C.ar   91  HIS91       0.0817
     32  ND1       -4.9300    1.9490   81.9370 N.ar   91  HIS91      -0.2268
     33  CD2       -4.1460   -0.0820   82.1570 C.ar   91  HIS91       0.1154
     34  CE1       -4.3940    1.8650   83.1410 C.ar   91  HIS91       0.1986
     35  NE2       -3.9110    0.6430   83.3010 N.ar   91  HIS91      -0.2212
     36  N         -4.5070   -5.0160   82.0390 N.3    93  HIS93      -0.1241
     37  CA        -3.3000   -5.8220   82.1670 C.3    93  HIS93       0.1621
     38  C         -3.7280   -7.2740   82.0380 C.2    93  HIS93       0.2264
     39  O         -4.7900   -7.6400   82.5430 O.2    93  HIS93      -0.2867
     40  CB        -2.6130   -5.5860   83.5210 C.3    93  HIS93       0.0745
     41  CG        -2.3180   -4.1390   83.7960 C.ar   93  HIS93       0.0817
     42  ND1       -1.0670   -3.5880   83.6120 N.ar   93  HIS93      -0.2268
     43  CD2       -3.1220   -3.1270   84.1980 C.ar   93  HIS93       0.1154
     44  CE1       -1.1090   -2.2990   83.9110 C.ar   93  HIS93       0.1986
     45  NE2       -2.3470   -1.9910   84.2540 N.ar   93  HIS93      -0.2212
     46  N         -8.4610   -1.2700   84.4480 N.3   116  HIS116     -0.1241
     47  CA        -8.1930   -0.0610   85.2190 C.3   116  HIS116      0.1621
     48  C         -8.8890    1.1010   84.5400 C.2   116  HIS116      0.2264
     49  O         -8.5030    1.4940   83.4300 O.2   116  HIS116     -0.2867
     50  CB        -6.6920    0.1890   85.3090 C.3   116  HIS116      0.0745
     51  CG        -5.9880   -0.7870   86.1960 C.ar  116  HIS116      0.0817
     52  ND1       -4.6240   -0.9990   86.1530 N.ar  116  HIS116     -0.2268
     53  CD2       -6.4700   -1.6170   87.1530 C.ar  116  HIS116      0.1154
     54  CE1       -4.2940   -1.8970   87.0630 C.ar  116  HIS116      0.1986
     55  NE2       -5.3970   -2.2940   87.6780 N.ar  116  HIS116     -0.2212
     56  N         -9.1810    4.8890   84.8520 N.3   118  VAL118     -0.1245
     57  CA        -8.3230    5.9020   85.4660 C.3   118  VAL118      0.1561
     58  C         -9.0610    7.2340   85.5170 C.2   118  VAL118      0.2260
     59  O         -9.4870    7.7450   84.4720 O.2   118  VAL118     -0.2867
     60  CB        -7.0190    6.0530   84.6710 C.3   118  VAL118      0.0252
     61  CG1       -6.0960    7.0720   85.3520 C.3   118  VAL118      0.0019
     62  CG2       -6.3220    4.7030   84.4950 C.3   118  VAL118      0.0019
     63  N         -4.5720   16.3260   84.3340 N.3   127  PHE127     -0.1241
     64  CA        -4.0380   15.0300   84.7460 C.3   127  PHE127      0.1605
     65  C         -2.5760   15.1260   85.1620 C.2   127  PHE127      0.2264
     66  O         -2.1550   14.4680   86.1230 O.2   127  PHE127     -0.2867
     67  CB        -4.1980   14.0220   83.6080 C.3   127  PHE127      0.0534
     68  CG        -3.6350   12.6680   83.9180 C.ar  127  PHE127     -0.0203
     69  CD1       -4.4070   11.7180   84.5620 C.ar  127  PHE127     -0.0042
     70  CD2       -2.3280   12.3480   83.5870 C.ar  127  PHE127     -0.0042
     71  CE1       -3.8920   10.4630   84.8530 C.ar  127  PHE127     -0.0003
     72  CE2       -1.8080   11.0960   83.8810 C.ar  127  PHE127     -0.0003
     73  CZ        -2.5970   10.1550   84.5170 C.ar  127  PHE127     -0.0000
     74  N         -1.2620   13.7670   88.9890 N.3   131  VAL131     -0.1245
     75  CA        -0.3890   12.6410   89.3200 C.3   131  VAL131      0.1561
     76  C          0.7300   13.0470   90.2590 C.2   131  VAL131      0.2260
     77  O          1.4360   12.1790   90.7840 O.2   131  VAL131     -0.2867
     78  CB         0.2260   11.9660   88.0740 C.3   131  VAL131      0.0252
     79  CG1       -0.8640   11.3910   87.1920 C.3   131  VAL131      0.0019
     80  CG2        1.1350   12.9280   87.2860 C.3   131  VAL131      0.0019
     81  N         -5.3660   10.8240   91.8180 N.3   137  LEU137     -0.1245
     82  CA        -6.0380    9.8520   90.9650 C.3   137  LEU137      0.1561
     83  C         -6.9290    8.9250   91.7820 C.2   137  LEU137      0.2260
     84  O         -6.6950    8.6790   92.9690 O.2   137  LEU137     -0.2867
     85  CB        -5.0320    8.9830   90.1920 C.3   137  LEU137      0.0270
     86  CG        -4.0100    9.5830   89.2230 C.3   137  LEU137      0.0019
     87  CD1       -3.5910    8.5410   88.1740 C.3   137  LEU137      0.0001
     88  CD2       -4.4660   10.8800   88.5710 C.3   137  LEU137      0.0001
     89  N         -8.3100    5.0740   90.7180 N.3   139  VAL139     -0.1245
     90  CA        -8.3740    4.0540   89.6840 C.3   139  VAL139      0.1561
     91  C         -9.3580    2.9970   90.1520 C.2   139  VAL139      0.2260
     92  O         -9.2420    2.4690   91.2650 O.2   139  VAL139     -0.2867
     93  CB        -6.9910    3.4650   89.3630 C.3   139  VAL139      0.0252
     94  CG1       -7.1030    2.4460   88.2310 C.3   139  VAL139      0.0019
     95  CG2       -6.0460    4.5810   88.9480 C.3   139  VAL139      0.0019
     96  N          0.5680    4.4500   90.8430 N.3   194  LEU194     -0.1231
     97  CA         0.5870    3.9060   89.4880 C.3   194  LEU194      0.1693
     98  C          1.2930    2.5620   89.5170 C.2   194  LEU194      0.2593
     99  O          2.2700    2.3810   90.2480 O.2   194  LEU194     -0.2718
    100  CB         1.3340    4.8430   88.5300 C.3   194  LEU194      0.0284
    101  CG         0.9270    6.3150   88.5280 C.3   194  LEU194      0.0019
    102  CD1        1.8240    7.0800   87.5520 C.3   194  LEU194      0.0001
    103  CD2       -0.5380    6.4420   88.1380 C.3   194  LEU194      0.0001
    104  N          0.8260    1.6180   88.7070 N.am  195  THR195     -0.1939
    105  CA         1.5060    0.3280   88.6920 C.3   195  THR195      0.2028
    106  C          2.5440    0.2100   87.5850 C.2   195  THR195      0.2643
    107  O          3.1140   -0.8720   87.4200 O.2   195  THR195     -0.2714
    108  CB         0.5130   -0.8270   88.5400 C.3   195  THR195      0.1808
    109  OG1       -0.0660   -0.7700   87.2290 O.3   195  THR195     -0.2208
    110  CG2       -0.5800   -0.7660   89.6220 C.3   195  THR195      0.0379
    111  N          2.7630    1.2610   86.8000 N.am  196  THR196     -0.1937
    112  CA         3.8680    1.3380   85.8570 C.3   196  THR196      0.2013
    113  C          4.6800    2.5780   86.1670 C.2   196  THR196      0.2484
    114  O          4.1790    3.5220   86.7910 O.2   196  THR196     -0.2729
    115  CB         3.4100    1.4210   84.3930 C.3   196  THR196      0.1807
    116  OG1        2.8940    2.7350   84.1210 O.3   196  THR196     -0.2208
    117  CG2        2.3490    0.3820   84.0920 C.3   196  THR196      0.0379
    118  N          5.9400    2.6170   85.7290 N.am  197  PRO197     -0.2715
    119  CA         6.6780    3.8730   85.8010 C.3   197  PRO197      0.1521
    120  C          5.8050    4.9970   85.2430 C.2   197  PRO197      0.2440
    121  O          5.1040    4.7980   84.2390 O.2   197  PRO197     -0.2731
    122  CB         7.9130    3.5900   84.9380 C.3   197  PRO197      0.0310
    123  CG         8.1400    2.1060   85.1380 C.3   197  PRO197      0.0237
    124  CD         6.7370    1.5300   85.1310 C.3   197  PRO197      0.0939
    125  N          5.8410    6.1790   85.8690 N.am  198  PRO198     -0.2727
    126  CA         6.7530    6.6200   86.9390 C.3   198  PRO198      0.1402
    127  C          6.4150    6.1700   88.3770 C.2   198  PRO198      0.2269
    128  O          7.0680    6.6320   89.3120 O.2   198  PRO198     -0.2865
    129  CB         6.6770    8.1450   86.8220 C.3   198  PRO198      0.0296
    130  CG         5.3010    8.4010   86.3080 C.3   198  PRO198      0.0237
    131  CD         4.9560    7.2610   85.4030 C.3   198  PRO198      0.0939
    132  N         -6.8840    3.5470   95.2690 N.3   205  TRP205     -0.1241
    133  CA        -7.3340    2.3450   94.5850 C.3   205  TRP205      0.1605
    134  C         -8.6990    1.9240   95.1030 C.2   205  TRP205      0.2264
    135  O         -8.9190    1.8550   96.3170 O.2   205  TRP205     -0.2867
    136  CB        -6.3180    1.2080   94.7510 C.3   205  TRP205      0.0550
    137  CG        -5.2380    1.3420   93.7320 C.ar  205  TRP205      0.0003
    138  CD1       -4.0160    1.9210   93.9000 C.ar  205  TRP205      0.0946
    139  CD2       -5.3140    0.9440   92.3630 C.ar  205  TRP205      0.0152
    140  NE1       -3.3140    1.9050   92.7110 N.ar  205  TRP205     -0.2442
    141  CE2       -4.0860    1.2930   91.7560 C.ar  205  TRP205      0.0810
    142  CE3       -6.2940    0.3000   91.5920 C.ar  205  TRP205      0.0012
    143  CZ2       -3.8200    1.0400   90.4190 C.ar  205  TRP205      0.0191
    144  CZ3       -6.0230    0.0400   90.2580 C.ar  205  TRP205      0.0001
    145  CH2       -4.8000    0.4100   89.6840 C.ar  205  TRP205      0.0015
@<TRIPOS>BOND
     1     4     3    2
     2     3     2    1
     3     1     2    1
     4     2     5    1
     5     5     6    1
     6     6     8   am
     7     6     7    2
     8    12    11    2
     9    21    18    1
    10    21    22    1
    11    30    27    1
    12    30    31    1
    13    27    26    1
    14    27    28    1
    15    18    19    1
    16    18    17    1
    17    11    17   am
    18    11    10    1
    19    22    23    1
    20    14    16    1
    21    14    13    1
    22    28    29    2
    23    23    24    2
    24    23    25   am
    25    19    20    2
    26    31    32   ar
    27    31    33   ar
    28    10    13    1
    29    10     9    1
    30    13    15    1
    31    32    34   ar
    32    38    37    1
    33    38    39    2
    34    36    37    1
    35    33    35   ar
    36    37    40    1
    37    34    35   ar
    38    49    48    2
    39    40    41    1
    40    70    72   ar
    41    70    68   ar
    42    67    68    1
    43    67    64    1
    44    42    41   ar
    45    42    44   ar
    46    41    43   ar
    47    72    73   ar
    48    44    45   ar
    49    68    69   ar
    50   117   115    1
    51   116   115    1
    52    43    45   ar
    53   121   120    2
    54    63    64    1
    55   115   112    1
    56    46    47    1
    57    59    58    2
    58    62    60    1
    59    73    71   ar
    60    48    47    1
    61    69    71   ar
    62    60    61    1
    63    60    57    1
    64    64    65    1
    65    56    57    1
    66   122   123    1
    67   122   119    1
    68   124   123    1
    69   124   118    1
    70    65    66    2
    71    47    50    1
    72   120   119    1
    73   120   125   am
    74    50    51    1
    75   131   125    1
    76   131   130    1
    77    57    58    1
    78   118   119    1
    79   118   113   am
    80   112   113    1
    81   112   111    1
    82   125   126    1
    83    52    51   ar
    84    52    54   ar
    85   113   114    2
    86    51    53   ar
    87   130   129    1
    88   111   106   am
    89   129   126    1
    90   126   127    1
    91    54    55   ar
    92    53    55   ar
    93    79    78    1
    94   109   108    1
    95    80    78    1
    96   107   106    2
    97   102   101    1
    98   106   105    1
    99    78    75    1
   100   103   101    1
   101    87    86    1
   102    94    93    1
   103   127   128    2
   104   101   100    1
   105   100    97    1
   106   108   105    1
   107   108   110    1
   108    88    86    1
   109   105   104    1
   110   104    98   am
   111    95    93    1
   112    74    75    1
   113    86    85    1
   114    75    76    1
   115    93    90    1
   116    97    98    1
   117    97    96    1
   118    98    99    2
   119   145   144   ar
   120   145   143   ar
   121    90    91    1
   122    90    89    1
   123    91    92    2
   124    85    82    1
   125   144   142   ar
   126    76    77    2
   127   143   141   ar
   128    82    83    1
   129    82    81    1
   130   142   139   ar
   131   141   139   ar
   132   141   140   ar
   133    83    84    2
   134   139   137   ar
   135   140   138   ar
   136   137   138   ar
   137   137   136    1
   138   133   136    1
   139   133   134    1
   140   133   132    1
   141   134   135    2
