@<TRIPOS>MOLECULE
tmp/5sz4A00.pdb
 147 143 0 0 0
SMALL
GASTEIGER

@<TRIPOS>ATOM
      1  N         20.6900   -0.1610    6.6640 N.3    61  HIS61      -0.1241
      2  CA        20.5520   -0.9500    7.8820 C.3    61  HIS61       0.1621
      3  C         19.1310   -1.4310    8.1400 C.2    61  HIS61       0.2264
      4  O         18.9550   -2.3730    8.9230 O.2    61  HIS61      -0.2867
      5  CB        21.0580   -0.1840    9.1220 C.3    61  HIS61       0.0745
      6  CG        20.6020    1.2410    9.2110 C.ar   61  HIS61       0.0817
      7  ND1       19.5130    1.6300    9.9610 N.ar   61  HIS61      -0.2268
      8  CD2       21.1170    2.3750    8.6810 C.ar   61  HIS61       0.1154
      9  CE1       19.3610    2.9390    9.8680 C.ar   61  HIS61       0.1986
     10  NE2       20.3200    3.4150    9.0960 N.ar   61  HIS61      -0.2212
     11  N          7.5450   10.3600   12.8580 N.3    88  LEU88      -0.1231
     12  CA         8.4740   10.6630   11.7700 C.3    88  LEU88       0.1693
     13  C          8.6650    9.5010   10.8070 C.2    88  LEU88       0.2591
     14  O          8.7040    9.6980    9.5930 O.2    88  LEU88      -0.2718
     15  CB         9.8350   11.0740   12.3480 C.3    88  LEU88       0.0284
     16  CG        11.0000   11.2670   11.3610 C.3    88  LEU88       0.0019
     17  CD1       10.7210   12.3890   10.3690 C.3    88  LEU88       0.0001
     18  CD2       12.2850   11.5270   12.1230 C.3    88  LEU88       0.0001
     19  N          8.7990    8.2920   11.3250 N.am   89  GLN89      -0.1979
     20  CA         9.0840    7.1320   10.5020 C.3    89  GLN89       0.1601
     21  C          8.7770    5.8600   11.2600 C.2    89  GLN89       0.2287
     22  O          8.7480    5.8470   12.4890 O.2    89  GLN89      -0.2864
     23  CB        10.5400    7.0060   10.1090 C.3    89  GLN89       0.0394
     24  CG        11.5040    7.2280   11.2760 C.3    89  GLN89       0.0908
     25  CD        12.3950    6.0530   11.5130 C.2    89  GLN89       0.2608
     26  OE1       12.0820    4.9670   11.0690 O.2    89  GLN89      -0.2717
     27  NE2       13.5520    6.2660   12.1270 N.am   89  GLN89      -0.0878
     28  N         10.2760    1.5650   10.9670 N.3    91  HIS91      -0.1241
     29  CA        11.2210    0.6370   10.3550 C.3    91  HIS91       0.1621
     30  C         11.1430   -0.6660   11.1330 C.2    91  HIS91       0.2264
     31  O         10.4390   -0.7610   12.1460 O.2    91  HIS91      -0.2867
     32  CB        12.6530    1.1670   10.3760 C.3    91  HIS91       0.0745
     33  CG        13.1560    1.4190   11.7570 C.ar   91  HIS91       0.0817
     34  ND1       12.8950    2.5870   12.4410 N.ar   91  HIS91      -0.2268
     35  CD2       13.7970    0.6050   12.6280 C.ar   91  HIS91       0.1154
     36  CE1       13.4170    2.5070   13.6510 C.ar   91  HIS91       0.1986
     37  NE2       13.9650    1.3130   13.7910 N.ar   91  HIS91      -0.2212
     38  N         13.3370   -4.4300   12.5120 N.3    93  HIS93      -0.1241
     39  CA        14.5270   -5.2240   12.7730 C.3    93  HIS93       0.1621
     40  C         14.0960   -6.6750   12.6590 C.2    93  HIS93       0.2264
     41  O         13.0300   -7.0330   13.1580 O.2    93  HIS93      -0.2867
     42  CB        15.0740   -4.9440   14.1670 C.3    93  HIS93       0.0745
     43  CG        15.3940   -3.4970   14.3980 C.ar   93  HIS93       0.0817
     44  ND1       16.5820   -2.9170   14.0030 N.ar   93  HIS93      -0.2268
     45  CD2       14.6360   -2.4900   14.8990 C.ar   93  HIS93       0.1154
     46  CE1       16.5730   -1.6340   14.3270 C.ar   93  HIS93       0.1986
     47  NE2       15.3900   -1.3440   14.8450 N.ar   93  HIS93      -0.2212
     48  N          9.3940   -0.5670   14.9280 N.3   116  HIS116     -0.1241
     49  CA         9.6270    0.6690   15.6650 C.3   116  HIS116      0.1621
     50  C          8.9470    1.8370   14.9690 C.2   116  HIS116      0.2264
     51  O          9.3230    2.1960   13.8520 O.2   116  HIS116     -0.2867
     52  CB        11.1200    0.9400   15.7950 C.3   116  HIS116      0.0745
     53  CG        11.8230   -0.0350   16.6830 C.ar  116  HIS116      0.0817
     54  ND1       13.1860   -0.2270   16.6500 N.ar  116  HIS116     -0.2268
     55  CD2       11.3480   -0.8490   17.6530 C.ar  116  HIS116      0.1154
     56  CE1       13.5220   -1.1210   17.5650 C.ar  116  HIS116      0.1986
     57  NE2       12.4240   -1.5110   18.1890 N.ar  116  HIS116     -0.2212
     58  N          8.6620    5.6720   15.3060 N.3   118  VAL118     -0.1245
     59  CA         9.5800    6.6350   15.9080 C.3   118  VAL118      0.1561
     60  C          8.8990    7.9970   15.9280 C.2   118  VAL118      0.2260
     61  O          8.4990    8.5070   14.8710 O.2   118  VAL118     -0.2867
     62  CB        10.9050    6.6890   15.1240 C.3   118  VAL118      0.0252
     63  CG1       11.8640    7.7120   15.7270 C.3   118  VAL118      0.0019
     64  CG2       11.5350    5.3030   15.0450 C.3   118  VAL118      0.0019
     65  N         13.5250   16.9690   15.0530 N.3   127  VAL127     -0.1231
     66  CA        14.0160   15.7110   15.6100 C.3   127  VAL127      0.1692
     67  C         15.5000   15.8100   15.9390 C.2   127  VAL127      0.2592
     68  O         15.9630   15.1850   16.8980 O.2   127  VAL127     -0.2718
     69  CB        13.7210   14.5430   14.6480 C.3   127  VAL127      0.0266
     70  CG1       14.5120   14.6870   13.3660 C.3   127  VAL127      0.0020
     71  CG2       14.0050   13.2140   15.3130 C.3   127  VAL127      0.0020
     72  N         16.2660   16.5980   15.1700 N.am  128  GLY128     -0.1957
     73  CA        17.6730   16.7920   15.4920 C.3   128  GLY128      0.1869
     74  C         17.8850   17.3800   16.8770 C.2   128  GLY128      0.2309
     75  O         18.7950   16.9680   17.6040 O.2   128  GLY128     -0.2863
     76  N         16.7650   14.6330   19.6980 N.3   131  VAL131     -0.1245
     77  CA        17.6700   13.5360   20.0280 C.3   131  VAL131      0.1561
     78  C         18.7070   13.9420   21.0570 C.2   131  VAL131      0.2260
     79  O         19.4040   13.0760   21.5920 O.2   131  VAL131     -0.2867
     80  CB        18.4000   12.9710   18.7870 C.3   131  VAL131      0.0252
     81  CG1       17.3940   12.3760   17.8150 C.3   131  VAL131      0.0019
     82  CG2       19.2370   14.0210   18.1080 C.3   131  VAL131      0.0019
     83  N         12.4240   11.7200   22.3490 N.3   137  LEU137     -0.1245
     84  CA        11.7290   10.7910   21.4740 C.3   137  LEU137      0.1561
     85  C         10.9390    9.7670   22.2720 C.2   137  LEU137      0.2260
     86  O         11.2310    9.4690   23.4290 O.2   137  LEU137     -0.2867
     87  CB        12.6730   10.0410   20.4960 C.3   137  LEU137      0.0270
     88  CG        13.3020   10.6850   19.2490 C.3   137  LEU137      0.0019
     89  CD1       14.0960   11.9490   19.5290 C.3   137  LEU137      0.0001
     90  CD2       14.1830    9.6440   18.5240 C.3   137  LEU137      0.0001
     91  N          9.5720    5.8830   21.1860 N.3   139  VAL139     -0.1245
     92  CA         9.4990    4.8510   20.1610 C.3   139  VAL139      0.1561
     93  C          8.5270    3.7960   20.6430 C.2   139  VAL139      0.2260
     94  O          8.6660    3.2820   21.7600 O.2   139  VAL139     -0.2867
     95  CB        10.8650    4.2210   19.8360 C.3   139  VAL139      0.0252
     96  CG1       10.6670    3.1420   18.7460 C.3   139  VAL139      0.0019
     97  CG2       11.8430    5.2760   19.3480 C.3   139  VAL139      0.0019
     98  N         18.3290    5.2630   21.4350 N.3   194  LEU194     -0.1231
     99  CA        18.3100    4.7410   20.0710 C.3   194  LEU194      0.1693
    100  C         19.0560    3.4100   20.0440 C.2   194  LEU194      0.2593
    101  O         20.0540    3.2360   20.7550 O.2   194  LEU194     -0.2718
    102  CB        19.0000    5.7290   19.1340 C.3   194  LEU194      0.0284
    103  CG        18.4670    7.1630   19.1440 C.3   194  LEU194      0.0019
    104  CD1       19.3500    8.0280   18.2280 C.3   194  LEU194      0.0001
    105  CD2       16.9690    7.2360   18.7870 C.3   194  LEU194      0.0001
    106  N         18.5890    2.4560   19.2280 N.am  195  THR195     -0.1939
    107  CA        19.2670    1.1600   19.1570 C.3   195  THR195      0.2028
    108  C         20.2270    1.0600   17.9840 C.2   195  THR195      0.2643
    109  O         20.8080   -0.0090   17.7690 O.2   195  THR195     -0.2714
    110  CB        18.2740    0.0050   19.0440 C.3   195  THR195      0.1808
    111  OG1       17.6020    0.0800   17.7830 O.3   195  THR195     -0.2208
    112  CG2       17.2450    0.0630   20.1830 C.3   195  THR195      0.0379
    113  N         20.3450    2.1070   17.1810 N.am  196  THR196     -0.1937
    114  CA        21.4160    2.2530   16.2100 C.3   196  THR196      0.2013
    115  C         22.1510    3.5580   16.4830 C.2   196  THR196      0.2484
    116  O         21.6140    4.4570   17.1450 O.2   196  THR196     -0.2729
    117  CB        20.8890    2.2500   14.7610 C.3   196  THR196      0.1807
    118  OG1       19.9060    3.2790   14.5790 O.3   196  THR196     -0.2208
    119  CG2       20.3240    0.9060   14.3830 C.3   196  THR196      0.0379
    120  N         23.3980    3.6900   16.0100 N.am  197  PRO197     -0.2715
    121  CA        24.1130    4.9650   16.1330 C.3   197  PRO197      0.1521
    122  C         23.2510    6.1310   15.6700 C.2   197  PRO197      0.2440
    123  O         22.5780    6.0340   14.6320 O.2   197  PRO197     -0.2731
    124  CB        25.3280    4.7670   15.2210 C.3   197  PRO197      0.0310
    125  CG        25.5840    3.2900   15.2850 C.3   197  PRO197      0.0237
    126  CD        24.2180    2.6490   15.3680 C.3   197  PRO197      0.0939
    127  N         23.2920    7.2490   16.3990 N.am  198  PRO198     -0.2727
    128  CA        24.2340    7.5910   17.4750 C.3   198  PRO198      0.1402
    129  C         23.9470    7.0010   18.8710 C.2   198  PRO198      0.2269
    130  O         24.6620    7.3420   19.8220 O.2   198  PRO198     -0.2865
    131  CB        24.1370    9.1210   17.5260 C.3   198  PRO198      0.0296
    132  CG        22.7410    9.4070   17.0830 C.3   198  PRO198      0.0237
    133  CD        22.4180    8.3750   16.0400 C.3   198  PRO198      0.0939
    134  N         10.8420    4.4320   25.8500 N.3   205  TRP205     -0.1241
    135  CA        10.3800    3.2560   25.1390 C.3   205  TRP205      0.1605
    136  C          9.0240    2.7950   25.6210 C.2   205  TRP205      0.2264
    137  O          8.7530    2.7430   26.8230 O.2   205  TRP205     -0.2867
    138  CB        11.3720    2.1070   25.2530 C.3   205  TRP205      0.0550
    139  CG        12.4900    2.2040   24.2840 C.ar  205  TRP205      0.0003
    140  CD1       13.7380    2.7350   24.4680 C.ar  205  TRP205      0.0946
    141  CD2       12.4280    1.7640   22.9390 C.ar  205  TRP205      0.0152
    142  NE1       14.4570    2.6380   23.2980 N.ar  205  TRP205     -0.2442
    143  CE2       13.6680    2.0430   22.3460 C.ar  205  TRP205      0.0810
    144  CE3       11.4290    1.1480   22.1710 C.ar  205  TRP205      0.0012
    145  CZ2       13.9400    1.7310   21.0210 C.ar  205  TRP205      0.0191
    146  CZ3       11.7010    0.8230   20.8680 C.ar  205  TRP205      0.0001
    147  CH2       12.9480    1.1270   20.2960 C.ar  205  TRP205      0.0015
@<TRIPOS>BOND
     1     1     2    1
     2     2     3    1
     3     2     5    1
     4     3     4    2
     5     8    10   ar
     6     8     6   ar
     7    10     9   ar
     8     5     6    1
     9     6     7   ar
    10    14    13    2
    11     9     7   ar
    12    23    20    1
    13    23    24    1
    14    29    32    1
    15    29    28    1
    16    29    30    1
    17    17    16    1
    18    32    33    1
    19    20    21    1
    20    20    19    1
    21    13    19   am
    22    13    12    1
    23    26    25    2
    24    30    31    2
    25    21    22    2
    26    24    25    1
    27    16    18    1
    28    16    15    1
    29    25    27   am
    30    33    34   ar
    31    33    35   ar
    32    12    15    1
    33    12    11    1
    34    34    36   ar
    35    38    39    1
    36    35    37   ar
    37    40    39    1
    38    40    41    2
    39    39    42    1
    40    70    69    1
    41    36    37   ar
    42    51    50    2
    43    44    46   ar
    44    44    43   ar
    45    42    43    1
    46    46    47   ar
    47   119   117    1
    48    43    45   ar
    49   118   117    1
    50   123   122    2
    51    69    71    1
    52    69    66    1
    53   117   114    1
    54    47    45   ar
    55    61    60    2
    56    48    49    1
    57    50    49    1
    58    64    62    1
    59    65    66    1
    60    62    63    1
    61    62    59    1
    62    72    73    1
    63    72    67   am
    64   124   125    1
    65   124   121    1
    66   125   126    1
    67    58    59    1
    68   126   120    1
    69    73    74    1
    70    66    67    1
    71    49    52    1
    72   122   121    1
    73   122   127   am
    74    52    53    1
    75    59    60    1
    76    67    68    2
    77   120   121    1
    78   120   115   am
    79   133   127    1
    80   133   132    1
    81   114   115    1
    82   114   113    1
    83   127   128    1
    84   115   116    2
    85    54    53   ar
    86    54    56   ar
    87    53    55   ar
    88    74    75    2
    89   132   131    1
    90   113   108   am
    91   128   131    1
    92   128   129    1
    93    56    57   ar
    94    55    57   ar
    95   109   108    2
    96   111   110    1
    97    81    80    1
    98   108   107    1
    99    82    80    1
   100   104   103    1
   101    90    88    1
   102    96    95    1
   103    80    77    1
   104   105   103    1
   105   129   130    2
   106   110   107    1
   107   110   112    1
   108   102   103    1
   109   102    99    1
   110   107   106    1
   111   106   100   am
   112    88    89    1
   113    88    87    1
   114    97    95    1
   115    76    77    1
   116    95    92    1
   117    77    78    1
   118   100    99    1
   119   100   101    2
   120    99    98    1
   121    92    93    1
   122    92    91    1
   123   147   146   ar
   124   147   145   ar
   125    87    84    1
   126    93    94    2
   127   146   144   ar
   128   145   143   ar
   129    78    79    2
   130    84    85    1
   131    84    83    1
   132   144   141   ar
   133    85    86    2
   134   143   141   ar
   135   143   142   ar
   136   141   139   ar
   137   142   140   ar
   138   139   140   ar
   139   139   138    1
   140   135   138    1
   141   135   136    1
   142   135   134    1
   143   136   137    2
