@<TRIPOS>MOLECULE
tmp/5sz7A00.pdb
 147 143 0 0 0
SMALL
GASTEIGER

@<TRIPOS>ATOM
      1  N          3.6030    0.1980   76.4910 N.3    61  HIS61      -0.1241
      2  CA         3.4920   -0.5710   77.7250 C.3    61  HIS61       0.1621
      3  C          2.0860   -1.0870   77.9960 C.2    61  HIS61       0.2264
      4  O          1.9400   -2.0720   78.7290 O.2    61  HIS61      -0.2867
      5  CB         4.0020    0.2200   78.9490 C.3    61  HIS61       0.0745
      6  CG         3.4420    1.6040   79.0870 C.ar   61  HIS61       0.0817
      7  ND1        2.3400    1.8870   79.8660 N.ar   61  HIS61      -0.2268
      8  CD2        3.8720    2.7930   78.6010 C.ar   61  HIS61       0.1154
      9  CE1        2.0950    3.1850   79.8270 C.ar   61  HIS61       0.1986
     10  NE2        3.0080    3.7570   79.0630 N.ar   61  HIS61      -0.2212
     11  N         -9.5440   10.5990   82.9130 N.3    88  ILE88      -0.1231
     12  CA        -8.6190   10.9690   81.8480 C.3    88  ILE88       0.1692
     13  C         -8.3920    9.8170   80.8740 C.2    88  ILE88       0.2591
     14  O         -8.3750   10.0240   79.6650 O.2    88  ILE88      -0.2718
     15  CB        -7.2880   11.4560   82.4640 C.3    88  ILE88       0.0266
     16  CG1       -6.2160   11.6780   81.3980 C.3    88  ILE88       0.0019
     17  CG2       -6.7810   10.4680   83.4900 C.3    88  ILE88       0.0020
     18  CD1       -4.8580   11.9220   82.0040 C.3    88  ILE88       0.0001
     19  N         -8.2190    8.5940   81.3740 N.am   89  GLN89      -0.1979
     20  CA        -7.9390    7.4630   80.4950 C.3    89  GLN89       0.1601
     21  C         -8.2090    6.1780   81.2580 C.2    89  GLN89       0.2287
     22  O         -8.2510    6.1680   82.4900 O.2    89  GLN89      -0.2864
     23  CB        -6.4880    7.4830   79.9900 C.3    89  GLN89       0.0394
     24  CG        -5.4290    7.6600   81.1000 C.3    89  GLN89       0.0908
     25  CD        -4.6990    6.3740   81.4940 C.2    89  GLN89       0.2608
     26  OE1       -5.2190    5.2610   81.3280 O.2    89  GLN89      -0.2717
     27  NE2       -3.4870    6.5270   82.0250 N.am   89  GLN89      -0.0878
     28  N         -6.8080    1.8860   80.9730 N.3    91  HIS91      -0.1241
     29  CA        -5.8620    0.9690   80.3580 C.3    91  HIS91       0.1621
     30  C         -5.9420   -0.3410   81.1290 C.2    91  HIS91       0.2264
     31  O         -6.6550   -0.4500   82.1340 O.2    91  HIS91      -0.2867
     32  CB        -4.4340    1.5360   80.3780 C.3    91  HIS91       0.0745
     33  CG        -3.9100    1.7510   81.7650 C.ar   91  HIS91       0.0817
     34  ND1       -4.0680    2.9430   82.4420 N.ar   91  HIS91      -0.2268
     35  CD2       -3.2820    0.9120   82.6230 C.ar   91  HIS91       0.1154
     36  CE1       -3.5360    2.8360   83.6480 C.ar   91  HIS91       0.1986
     37  NE2       -3.0580    1.6120   83.7850 N.ar   91  HIS91      -0.2212
     38  N         -3.7090   -4.1000   82.4690 N.3    93  HIS93      -0.1241
     39  CA        -2.5420   -4.9400   82.6720 C.3    93  HIS93       0.1621
     40  C         -2.9840   -6.3900   82.5560 C.2    93  HIS93       0.2264
     41  O         -4.0520   -6.7510   83.0590 O.2    93  HIS93      -0.2867
     42  CB        -1.9260   -4.6900   84.0400 C.3    93  HIS93       0.0745
     43  CG        -1.6100   -3.2500   84.2910 C.ar   93  HIS93       0.0817
     44  ND1       -0.3700   -2.7080   84.0230 N.ar   93  HIS93      -0.2268
     45  CD2       -2.3830   -2.2320   84.7380 C.ar   93  HIS93       0.1154
     46  CE1       -0.3830   -1.4220   84.3340 C.ar   93  HIS93       0.1986
     47  NE2       -1.5980   -1.1040   84.7520 N.ar   93  HIS93      -0.2212
     48  N         -7.6270   -0.2690   84.8890 N.3   116  HIS116     -0.1241
     49  CA        -7.3980    0.9480   85.6600 C.3   116  HIS116      0.1621
     50  C         -8.0950    2.1130   84.9740 C.2   116  HIS116      0.2264
     51  O         -7.7350    2.4760   83.8480 O.2   116  HIS116     -0.2867
     52  CB        -5.9010    1.2190   85.8110 C.3   116  HIS116      0.0745
     53  CG        -5.2160    0.2310   86.7060 C.ar  116  HIS116      0.0817
     54  ND1       -3.8610   -0.0130   86.6610 N.ar  116  HIS116     -0.2268
     55  CD2       -5.7180   -0.5930   87.6580 C.ar  116  HIS116      0.1154
     56  CE1       -3.5510   -0.9270   87.5660 C.ar  116  HIS116      0.1986
     57  NE2       -4.6600   -1.2940   88.1860 N.ar  116  HIS116     -0.2212
     58  N         -8.3540    5.9560   85.2980 N.3   118  VAL118     -0.1245
     59  CA        -7.4730    6.9390   85.9270 C.3   118  VAL118      0.1561
     60  C         -8.1680    8.2960   85.9680 C.2   118  VAL118      0.2260
     61  O         -8.5410    8.8390   84.9190 O.2   118  VAL118     -0.2867
     62  CB        -6.1380    7.0310   85.1750 C.3   118  VAL118      0.0252
     63  CG1       -5.1580    7.9530   85.9000 C.3   118  VAL118      0.0019
     64  CG2       -5.5600    5.6450   84.9640 C.3   118  VAL118      0.0019
     65  N         -3.6650   17.3450   85.0080 N.3   127  VAL127     -0.1231
     66  CA        -3.1490   16.0800   85.5330 C.3   127  VAL127      0.1692
     67  C         -1.6710   16.1900   85.8800 C.2   127  VAL127      0.2592
     68  O         -1.1940   15.5250   86.8110 O.2   127  VAL127     -0.2718
     69  CB        -3.3960   14.9300   84.5390 C.3   127  VAL127      0.0266
     70  CG1       -2.5320   15.1150   83.3100 C.3   127  VAL127      0.0020
     71  CG2       -3.0850   13.6210   85.2010 C.3   127  VAL127      0.0020
     72  N         -0.9220   17.0180   85.1500 N.am  128  GLY128     -0.1957
     73  CA         0.4850   17.1840   85.4690 C.3   128  GLY128      0.1869
     74  C          0.7090   17.7370   86.8630 C.2   128  GLY128      0.2309
     75  O          1.6380   17.3240   87.5650 O.2   128  GLY128     -0.2863
     76  N         -0.3320   14.9520   89.6190 N.3   131  VAL131     -0.1245
     77  CA         0.5700   13.8450   89.9190 C.3   131  VAL131      0.1561
     78  C          1.6330   14.2450   90.9210 C.2   131  VAL131      0.2260
     79  O          2.3040   13.3710   91.4810 O.2   131  VAL131     -0.2867
     80  CB         1.2430   13.2810   88.6510 C.3   131  VAL131      0.0252
     81  CG1        0.2080   12.6000   87.7750 C.3   131  VAL131      0.0019
     82  CG2        1.9850   14.3680   87.9030 C.3   131  VAL131      0.0019
     83  N         -4.5920   11.9360   92.3160 N.3   137  LEU137     -0.1245
     84  CA        -5.2580   10.9950   91.4210 C.3   137  LEU137      0.1561
     85  C         -6.1110   10.0140   92.2160 C.2   137  LEU137      0.2260
     86  O         -5.8840    9.7540   93.4020 O.2   137  LEU137     -0.2867
     87  CB        -4.2490   10.2030   90.5440 C.3   137  LEU137      0.0270
     88  CG        -3.2690   10.8740   89.5690 C.3   137  LEU137      0.0019
     89  CD1       -2.8010    9.8600   88.5010 C.3   137  LEU137      0.0001
     90  CD2       -3.8000   12.1390   88.9270 C.3   137  LEU137      0.0001
     91  N         -7.5410    6.1130   91.1810 N.3   139  VAL139     -0.1245
     92  CA        -7.5890    5.0630   90.1740 C.3   139  VAL139      0.1561
     93  C         -8.5960    4.0270   90.6400 C.2   139  VAL139      0.2260
     94  O         -8.4980    3.5030   91.7610 O.2   139  VAL139     -0.2867
     95  CB        -6.2130    4.4290   89.9080 C.3   139  VAL139      0.0252
     96  CG1       -6.3340    3.3820   88.7760 C.3   139  VAL139      0.0019
     97  CG2       -5.2200    5.4910   89.4870 C.3   139  VAL139      0.0019
     98  N          1.2310    5.5100   91.3700 N.3   194  LEU194     -0.1231
     99  CA         1.2150    4.9670   90.0180 C.3   194  LEU194      0.1693
    100  C          1.9750    3.6470   90.0140 C.2   194  LEU194      0.2593
    101  O          2.9720    3.4950   90.7200 O.2   194  LEU194     -0.2718
    102  CB         1.8710    5.9480   89.0450 C.3   194  LEU194      0.0284
    103  CG         1.3700    7.3970   89.0240 C.3   194  LEU194      0.0019
    104  CD1        2.2190    8.2120   88.0650 C.3   194  LEU194      0.0001
    105  CD2       -0.0870    7.4400   88.6260 C.3   194  LEU194      0.0001
    106  N          1.5110    2.6810   89.2230 N.am  195  THR195     -0.1939
    107  CA         2.2170    1.4060   89.1280 C.3   195  THR195      0.2028
    108  C          3.1730    1.3420   87.9510 C.2   195  THR195      0.2643
    109  O          3.7620    0.2830   87.7220 O.2   195  THR195     -0.2714
    110  CB         1.2500    0.2310   89.0150 C.3   195  THR195      0.1808
    111  OG1        0.6280    0.2710   87.7240 O.3   195  THR195     -0.2208
    112  CG2        0.2030    0.2740   90.1410 C.3   195  THR195      0.0379
    113  N          3.3020    2.4180   87.1790 N.am  196  THR196     -0.1937
    114  CA         4.3610    2.5580   86.1960 C.3   196  THR196      0.2013
    115  C          5.1750    3.8020   86.5100 C.2   196  THR196      0.2484
    116  O          4.6820    4.7370   87.1540 O.2   196  THR196     -0.2729
    117  CB         3.8120    2.6730   84.7640 C.3   196  THR196      0.1807
    118  OG1        2.8270    3.7150   84.7100 O.3   196  THR196     -0.2208
    119  CG2        3.2040    1.3520   84.3000 C.3   196  THR196      0.0379
    120  N          6.4220    3.8590   86.0480 N.am  197  PRO197     -0.2715
    121  CA         7.1710    5.1090   86.1390 C.3   197  PRO197      0.1521
    122  C          6.2990    6.2870   85.7040 C.2   197  PRO197      0.2440
    123  O          5.5820    6.1840   84.6960 O.2   197  PRO197     -0.2731
    124  CB         8.3460    4.8720   85.1750 C.3   197  PRO197      0.0310
    125  CG         8.5950    3.4190   85.2830 C.3   197  PRO197      0.0237
    126  CD         7.2140    2.7810   85.4310 C.3   197  PRO197      0.0939
    127  N          6.3650    7.4120   86.4310 N.am  198  PRO198     -0.2727
    128  CA         7.3090    7.7560   87.5020 C.3   198  PRO198      0.1402
    129  C          6.9790    7.2050   88.8920 C.2   198  PRO198      0.2269
    130  O          7.6470    7.5910   89.8520 O.2   198  PRO198     -0.2865
    131  CB         7.2430    9.2880   87.5250 C.3   198  PRO198      0.0296
    132  CG         5.8260    9.5760   87.1330 C.3   198  PRO198      0.0237
    133  CD         5.4700    8.5370   86.1020 C.3   198  PRO198      0.0939
    134  N         -6.1580    4.6410   95.8180 N.3   205  TRP205     -0.1241
    135  CA        -6.6060    3.4380   95.1270 C.3   205  TRP205      0.1605
    136  C         -7.9830    3.0200   95.6150 C.2   205  TRP205      0.2264
    137  O         -8.2450    2.9940   96.8230 O.2   205  TRP205     -0.2867
    138  CB        -5.6080    2.2920   95.3190 C.3   205  TRP205      0.0550
    139  CG        -4.5140    2.3910   94.3220 C.ar  205  TRP205      0.0003
    140  CD1       -3.2770    2.9460   94.5010 C.ar  205  TRP205      0.0946
    141  CD2       -4.5770    1.9720   92.9530 C.ar  205  TRP205      0.0152
    142  NE1       -2.5640    2.8830   93.3290 N.ar  205  TRP205     -0.2442
    143  CE2       -3.3400    2.2840   92.3660 C.ar  205  TRP205      0.0810
    144  CE3       -5.5680    1.3650   92.1670 C.ar  205  TRP205      0.0012
    145  CZ2       -3.0560    1.9980   91.0310 C.ar  205  TRP205      0.0191
    146  CZ3       -5.2770    1.0630   90.8430 C.ar  205  TRP205      0.0001
    147  CH2       -4.0300    1.3860   90.2900 C.ar  205  TRP205      0.0015
@<TRIPOS>BOND
     1     1     2    1
     2     2     3    1
     3     2     5    1
     4     3     4    2
     5     8    10   ar
     6     8     6   ar
     7     5     6    1
     8    10     9   ar
     9     6     7   ar
    10    14    13    2
    11     9     7   ar
    12    23    20    1
    13    23    24    1
    14    29    32    1
    15    29    28    1
    16    29    30    1
    17    32    33    1
    18    20    21    1
    19    20    19    1
    20    13    19   am
    21    13    12    1
    22    24    25    1
    23    30    31    2
    24    21    22    2
    25    26    25    2
    26    16    18    1
    27    16    15    1
    28    25    27   am
    29    33    34   ar
    30    33    35   ar
    31    12    15    1
    32    12    11    1
    33    34    36   ar
    34    15    17    1
    35    38    39    1
    36    40    39    1
    37    40    41    2
    38    35    37   ar
    39    39    42    1
    40    70    69    1
    41    36    37   ar
    42    51    50    2
    43    44    43   ar
    44    44    46   ar
    45    42    43    1
    46    43    45   ar
    47   119   117    1
    48    46    47   ar
    49    69    71    1
    50    69    66    1
    51   123   122    2
    52   118   117    1
    53    45    47   ar
    54   117   114    1
    55    48    49    1
    56    61    60    2
    57    64    62    1
    58    50    49    1
    59    65    66    1
    60    72    73    1
    61    72    67   am
    62    62    63    1
    63    62    59    1
    64   124   125    1
    65   124   121    1
    66   125   126    1
    67    58    59    1
    68   126   120    1
    69    73    74    1
    70    66    67    1
    71    49    52    1
    72   122   121    1
    73   122   127   am
    74    52    53    1
    75    67    68    2
    76    59    60    1
    77   120   121    1
    78   120   115   am
    79   133   127    1
    80   133   132    1
    81   114   115    1
    82   114   113    1
    83   127   128    1
    84   115   116    2
    85    54    53   ar
    86    54    56   ar
    87    53    55   ar
    88    74    75    2
    89   132   131    1
    90   113   108   am
    91   128   131    1
    92   128   129    1
    93    56    57   ar
    94    55    57   ar
    95   109   108    2
    96   111   110    1
    97    81    80    1
    98    82    80    1
    99   108   107    1
   100   104   103    1
   101    89    88    1
   102   105   103    1
   103    80    77    1
   104    96    95    1
   105   129   130    2
   106    90    88    1
   107   110   107    1
   108   110   112    1
   109   103   102    1
   110   102    99    1
   111   107   106    1
   112   106   100   am
   113    97    95    1
   114    88    87    1
   115    76    77    1
   116    95    92    1
   117    77    78    1
   118   100    99    1
   119   100   101    2
   120    99    98    1
   121    92    93    1
   122    92    91    1
   123   147   146   ar
   124   147   145   ar
   125    87    84    1
   126    93    94    2
   127   146   144   ar
   128    78    79    2
   129   145   143   ar
   130    84    85    1
   131    84    83    1
   132   144   141   ar
   133    85    86    2
   134   143   141   ar
   135   143   142   ar
   136   141   139   ar
   137   142   140   ar
   138   139   140   ar
   139   139   138    1
   140   135   138    1
   141   135   136    1
   142   135   134    1
   143   136   137    2
