@<TRIPOS>MOLECULE
tmp/5sz9A00.pdb
 166 159 0 0 0
SMALL
GASTEIGER

@<TRIPOS>ATOM
      1  N        -16.2770  -30.7780   -6.6710 N.3    15  THR15      -0.1203
      2  CA       -17.6160  -30.8480   -7.2570 C.3    15  THR15       0.1994
      3  C        -17.8680  -32.1690   -7.9760 C.2    15  THR15       0.2618
      4  O        -18.9990  -32.6480   -8.0320 O.2    15  THR15      -0.2717
      5  CB       -17.8580  -29.6940   -8.2400 C.3    15  THR15       0.1784
      6  OG1      -16.7700  -29.6370   -9.1660 O.3    15  THR15      -0.2211
      7  CG2      -17.9510  -28.3760   -7.5080 C.3    15  THR15       0.0376
      8  N        -16.8110  -32.7510   -8.5320 N.am   16  GLN16      -0.1965
      9  CA       -16.9320  -33.9820   -9.3010 C.3    16  GLN16       0.1733
     10  C        -15.9980  -35.0350   -8.7430 C.2    16  GLN16       0.2616
     11  O        -14.7800  -34.8360   -8.6950 O.2    16  GLN16      -0.2715
     12  CB       -16.6470  -33.7190  -10.7810 C.3    16  GLN16       0.0408
     13  CG       -17.6880  -32.8290  -11.4430 C.3    16  GLN16       0.0908
     14  CD       -17.4560  -32.6390  -12.9190 C.2    16  GLN16       0.2608
     15  OE1      -17.0000  -33.5470  -13.6070 O.2    16  GLN16      -0.2717
     16  NE2      -17.7830  -31.4600  -13.4180 N.am   16  GLN16      -0.0878
     17  N        -16.5840  -36.1450   -8.3000 N.am   17  TYR17      -0.1974
     18  CA       -15.8220  -37.2690   -7.7670 C.3    17  TYR17       0.1639
     19  C        -16.0880  -38.4970   -8.6230 C.2    17  TYR17       0.2290
     20  O        -17.2270  -38.9810   -8.7070 O.2    17  TYR17      -0.2864
     21  CB       -16.1810  -37.5260   -6.3040 C.3    17  TYR17       0.0560
     22  CG       -15.7170  -36.4550   -5.3390 C.ar   17  TYR17      -0.0198
     23  CD1      -16.4770  -35.2890   -5.1290 C.ar   17  TYR17      -0.0009
     24  CD2      -14.5230  -36.6090   -4.6150 C.ar   17  TYR17      -0.0009
     25  CE1      -16.0520  -34.3100   -4.2350 C.ar   17  TYR17       0.0417
     26  CE2      -14.0960  -35.6360   -3.7130 C.ar   17  TYR17       0.0417
     27  CZ       -14.8610  -34.4930   -3.5270 C.ar   17  TYR17       0.1957
     28  OH       -14.4450  -33.5280   -2.6380 O.3    17  TYR17      -0.2866
     29  N        -19.1580  -41.5020  -12.3560 N.3    33  VAL33      -0.1245
     30  CA       -19.6380  -41.0510  -11.0520 C.3    33  VAL33       0.1561
     31  C        -20.4330  -42.1900  -10.4050 C.2    33  VAL33       0.2260
     32  O        -21.3060  -42.7970  -11.0350 O.2    33  VAL33      -0.2867
     33  CB       -20.5020  -39.7660  -11.1950 C.3    33  VAL33       0.0252
     34  CG1      -21.2950  -39.4620   -9.9320 C.3    33  VAL33       0.0019
     35  CG2      -19.6240  -38.5820  -11.5480 C.3    33  VAL33       0.0019
     36  N        -23.1910  -43.0160   -7.9160 N.3    35  ASP35      -0.1239
     37  CA       -24.3180  -42.1760   -7.5260 C.3    35  ASP35       0.1674
     38  C        -25.4320  -42.9510   -6.8030 C.2    35  ASP35       0.2266
     39  O        -26.1810  -43.7210   -7.4150 O.2    35  ASP35      -0.2867
     40  CB       -24.8340  -41.4140   -8.7630 C.3    35  ASP35       0.1410
     41  CG       -26.1350  -40.6640   -8.5150 C.2    35  ASP35       0.3668
     42  OD1      -26.3930  -40.1970   -7.3860 O.co2  35  ASP35      -0.2456
     43  OD2      -26.9100  -40.5340   -9.4810 O.co2  35  ASP35      -0.2456
     44  N        -32.4230  -36.7590  -14.9380 N.3    80  TYR80      -0.1241
     45  CA       -31.8550  -36.3260  -13.6660 C.3    80  TYR80       0.1605
     46  C        -32.2520  -34.8810  -13.3980 C.2    80  TYR80       0.2264
     47  O        -32.7420  -34.1870  -14.2950 O.2    80  TYR80      -0.2867
     48  CB       -30.3330  -36.4560  -13.6750 C.3    80  TYR80       0.0534
     49  CG       -29.8120  -37.8380  -14.0000 C.ar   80  TYR80      -0.0201
     50  CD1      -29.7330  -38.8280  -13.0170 C.ar   80  TYR80      -0.0009
     51  CD2      -29.3670  -38.1510  -15.2870 C.ar   80  TYR80      -0.0009
     52  CE1      -29.2300  -40.0920  -13.3060 C.ar   80  TYR80       0.0417
     53  CE2      -28.8720  -39.4170  -15.5930 C.ar   80  TYR80       0.0417
     54  CZ       -28.8100  -40.3800  -14.5990 C.ar   80  TYR80       0.1957
     55  OH       -28.3320  -41.6220  -14.8910 O.3    80  TYR80      -0.2866
     56  N        -30.3520  -32.3110  -13.1030 N.3    82  THR82      -0.1218
     57  CA       -29.4920  -31.3600  -13.8080 C.3    82  THR82       0.1862
     58  C        -29.4580  -31.5340  -15.3340 C.2    82  THR82       0.2287
     59  O        -28.8590  -30.7140  -16.0460 O.2    82  THR82      -0.2866
     60  CB       -28.0660  -31.4460  -13.2480 C.3    82  THR82       0.1770
     61  OG1      -27.7660  -32.8150  -12.9370 O.3    82  THR82      -0.2211
     62  CG2      -27.9680  -30.6270  -11.9770 C.3    82  THR82       0.0375
     63  N        -25.7920  -30.2350  -19.3020 N.3   115  PRO115     -0.2102
     64  CA       -24.5640  -29.9090  -18.5770 C.3   115  PRO115      0.1504
     65  C        -23.3040  -30.7260  -18.9470 C.2   115  PRO115      0.2575
     66  O        -22.2330  -30.4190  -18.4450 O.2   115  PRO115     -0.2718
     67  CB       -24.9500  -30.2650  -17.1450 C.3   115  PRO115      0.0282
     68  CG       -25.8100  -31.4840  -17.3180 C.3   115  PRO115      0.0208
     69  CD       -26.5610  -31.2880  -18.6110 C.3   115  PRO115      0.0893
     70  N        -23.4250  -31.7420  -19.8010 N.am  116  PHE116     -0.1977
     71  CA       -22.3930  -32.7860  -19.8980 C.3   116  PHE116      0.1639
     72  C        -21.0330  -32.3540  -20.4540 C.2   116  PHE116      0.2290
     73  O        -20.0120  -32.9500  -20.1180 O.2   116  PHE116     -0.2864
     74  CB       -22.9550  -34.0520  -20.5540 C.3   116  PHE116      0.0560
     75  CG       -24.0850  -34.6530  -19.7750 C.ar  116  PHE116     -0.0200
     76  CD1      -23.8320  -35.4080  -18.6270 C.ar  116  PHE116     -0.0042
     77  CD2      -25.4100  -34.4100  -20.1440 C.ar  116  PHE116     -0.0042
     78  CE1      -24.8760  -35.9340  -17.8820 C.ar  116  PHE116     -0.0003
     79  CE2      -26.4600  -34.9280  -19.3970 C.ar  116  PHE116     -0.0003
     80  CZ       -26.1890  -35.6880  -18.2680 C.ar  116  PHE116     -0.0000
     81  N        -19.7010  -29.9500  -19.2410 N.3   118  LEU118     -0.1231
     82  CA       -19.0980  -29.4950  -17.9960 C.3   118  LEU118      0.1693
     83  C        -18.6860  -30.6580  -17.1100 C.2   118  LEU118      0.2591
     84  O        -18.1280  -30.4490  -16.0320 O.2   118  LEU118     -0.2718
     85  CB       -20.0390  -28.5390  -17.2510 C.3   118  LEU118      0.0284
     86  CG       -20.3420  -27.1810  -17.9020 C.3   118  LEU118      0.0019
     87  CD1      -21.6530  -26.6210  -17.3800 C.3   118  LEU118      0.0001
     88  CD2      -19.2160  -26.1750  -17.6970 C.3   118  LEU118      0.0001
     89  N        -18.9470  -31.8820  -17.5700 N.am  119  ALA119     -0.1980
     90  CA       -18.5550  -33.0880  -16.8420 C.3   119  ALA119      0.1597
     91  C        -17.1490  -33.5540  -17.2010 C.2   119  ALA119      0.2287
     92  O        -16.8370  -33.7870  -18.3660 O.2   119  ALA119     -0.2864
     93  CB       -19.5580  -34.2000  -17.0840 C.3   119  ALA119      0.0319
     94  N        -16.2470  -36.4230  -15.9330 N.3   121  PHE121     -0.1241
     95  CA       -16.5770  -37.8500  -16.0640 C.3   121  PHE121      0.1605
     96  C        -17.2440  -38.1290  -17.4060 C.2   121  PHE121      0.2264
     97  O        -17.7020  -37.1980  -18.0610 O.2   121  PHE121     -0.2867
     98  CB       -17.4970  -38.3000  -14.9120 C.3   121  PHE121      0.0534
     99  CG       -18.7640  -37.4780  -14.7580 C.ar  121  PHE121     -0.0203
    100  CD1      -18.7680  -36.2910  -13.9970 C.ar  121  PHE121     -0.0042
    101  CD2      -19.9700  -37.9020  -15.3330 C.ar  121  PHE121     -0.0042
    102  CE1      -19.9380  -35.5460  -13.8330 C.ar  121  PHE121     -0.0003
    103  CE2      -21.1420  -37.1520  -15.1740 C.ar  121  PHE121     -0.0003
    104  CZ       -21.1220  -35.9760  -14.4270 C.ar  121  PHE121     -0.0000
    105  N        -22.2420  -42.6060  -15.6150 N.3   124  VAL124     -0.1245
    106  CA       -22.7230  -42.7900  -14.2440 C.3   124  VAL124      0.1561
    107  C        -22.9150  -44.2690  -13.9270 C.2   124  VAL124      0.2260
    108  O        -23.3710  -45.0350  -14.7740 O.2   124  VAL124     -0.2867
    109  CB       -24.0360  -41.9980  -14.0040 C.3   124  VAL124      0.0252
    110  CG1      -24.5650  -42.1640  -12.5800 C.3   124  VAL124      0.0019
    111  CG2      -23.8240  -40.5220  -14.3050 C.3   124  VAL124      0.0019
    112  N        -15.0040  -38.9120    0.4730 N.3   159  TYR159     -0.1241
    113  CA       -14.6810  -37.8200   -0.4390 C.3   159  TYR159      0.1605
    114  C        -13.6670  -36.8920    0.2040 C.2   159  TYR159      0.2264
    115  O        -13.9230  -36.3130    1.2660 O.2   159  TYR159     -0.2867
    116  CB       -15.9260  -37.0160   -0.8350 C.3   159  TYR159      0.0534
    117  CG       -16.8590  -37.6460   -1.8650 C.ar  159  TYR159     -0.0201
    118  CD1      -16.5200  -38.8220   -2.5480 C.ar  159  TYR159     -0.0009
    119  CD2      -18.0820  -37.0290   -2.1810 C.ar  159  TYR159     -0.0009
    120  CE1      -17.3830  -39.3780   -3.4880 C.ar  159  TYR159      0.0417
    121  CE2      -18.9460  -37.5730   -3.1250 C.ar  159  TYR159      0.0417
    122  CZ       -18.5910  -38.7460   -3.7780 C.ar  159  TYR159      0.1957
    123  OH       -19.4340  -39.2940   -4.7130 O.3   159  TYR159     -0.2866
    124  N        -26.8890  -38.6050   -1.1360 N.3   220  ASP220     -0.1225
    125  CA       -26.7500  -38.5470   -2.5940 C.3   220  ASP220      0.1805
    126  C        -25.3240  -38.2800   -3.0540 C.2   220  ASP220      0.2598
    127  O        -24.9000  -37.1310   -3.1800 O.2   220  ASP220     -0.2718
    128  CB       -27.7000  -37.4710   -3.1360 C.3   220  ASP220      0.1424
    129  CG       -27.8190  -37.4800   -4.6490 C.2   220  ASP220      0.3668
    130  OD1      -27.2380  -38.3640   -5.3270 O.co2 220  ASP220     -0.2456
    131  OD2      -28.5260  -36.5810   -5.1620 O.co2 220  ASP220     -0.2456
    132  N        -24.6090  -39.3590   -3.3540 N.am  221  THR221     -0.1939
    133  CA       -23.1760  -39.3030   -3.6720 C.3   221  THR221      0.2028
    134  C        -22.8740  -38.6990   -5.0490 C.2   221  THR221      0.2643
    135  O        -21.7430  -38.2790   -5.3060 O.2   221  THR221     -0.2714
    136  CB       -22.5260  -40.6950   -3.5640 C.3   221  THR221      0.1808
    137  OG1      -23.1580  -41.5880   -4.4910 O.3   221  THR221     -0.2208
    138  CG2      -22.6420  -41.2470   -2.1300 C.3   221  THR221      0.0379
    139  N        -23.8860  -38.6680   -5.9190 N.am  222  GLY222     -0.1939
    140  CA       -23.7840  -38.0870   -7.2540 C.3   222  GLY222      0.2014
    141  C        -24.0590  -36.5940   -7.2840 C.2   222  GLY222      0.2639
    142  O        -23.7990  -35.9380   -8.2920 O.2   222  GLY222     -0.2714
    143  N        -24.5870  -36.0540   -6.1850 N.am  223  ALA223     -0.1963
    144  CA       -24.7920  -34.6090   -6.0460 C.3   223  ALA223      0.1728
    145  C        -23.5040  -33.9000   -5.6000 C.2   223  ALA223      0.2616
    146  O        -22.7490  -34.4400   -4.7810 O.2   223  ALA223     -0.2715
    147  CB       -25.9230  -34.3340   -5.0670 C.3   223  ALA223      0.0334
    148  N        -23.2540  -32.7040   -6.1440 N.am  224  SER224     -0.1950
    149  CA       -22.1100  -31.8750   -5.7260 C.3   224  SER224      0.1924
    150  C        -22.3790  -31.1990   -4.3870 C.2   224  SER224      0.2314
    151  O        -21.5730  -31.2740   -3.4620 O.2   224  SER224     -0.2863
    152  CB       -21.7870  -30.7960   -6.7580 C.3   224  SER224      0.2116
    153  OG       -21.2130  -31.3250   -7.9200 O.3   224  SER224     -0.2180
    154  N        -32.6150  -27.2900   -5.5440 N.3   297  MET297     -0.1245
    155  CA       -32.8510  -28.3920   -6.4750 C.3   297  MET297      0.1570
    156  C        -34.1750  -29.0370   -6.1210 C.2   297  MET297      0.2261
    157  O        -34.3240  -29.5970   -5.0260 O.2   297  MET297     -0.2867
    158  CB       -31.7230  -29.4170   -6.4140 C.3   297  MET297      0.0387
    159  CG       -31.3590  -30.0170   -7.7530 C.3   297  MET297      0.0595
    160  SD       -29.6310  -30.5400   -7.8060 S.3   297  MET297     -0.1393
    161  CE       -29.7350  -32.2020   -7.1230 C.3   297  MET297      0.0692
    162  N        -21.6980  -34.0320   -2.0070 N.3   311  ALA311     -0.1245
    163  CA       -20.2750  -33.9570   -1.6700 C.3   311  ALA311      0.1562
    164  C        -19.9460  -33.0120   -0.5060 C.2   311  ALA311      0.2260
    165  O        -19.0620  -33.3230    0.2940 O.2   311  ALA311     -0.2867
    166  CB       -19.4490  -33.6150   -2.9000 C.3   311  ALA311      0.0290
@<TRIPOS>BOND
     1    74    71    1
     2    74    75    1
     3    72    73    2
     4    72    71    1
     5    77    75   ar
     6    77    79   ar
     7    71    70    1
     8    70    65   am
     9    75    76   ar
    10    79    80   ar
    11    63    69    1
    12    63    64    1
    13    81    82    1
    14    65    64    1
    15    65    66    2
    16    76    78   ar
    17    69    68    1
    18    64    67    1
    19    92    91    2
    20    80    78   ar
    21    97    96    2
    22    82    85    1
    23    82    83    1
    24    86    88    1
    25    86    87    1
    26    86    85    1
    27    89    83   am
    28    89    90    1
    29    96    95    1
    30    68    67    1
    31    91    90    1
    32    83    84    2
    33    93    90    1
    34    95    94    1
    35    95    98    1
    36    59    58    2
    37   105   106    1
    38    53    51   ar
    39    53    54   ar
    40    58    57    1
    41   101   103   ar
    42   101    99   ar
    43    51    49   ar
    44   103   104   ar
    45    44    45    1
    46    98    99    1
    47    55    54    1
    48   108   107    2
    49    99   100   ar
    50    54    52   ar
    51   104   102   ar
    52   111   109    1
    53    47    46    2
    54   106   109    1
    55   106   107    1
    56   109   110    1
    57    49    48    1
    58    49    50   ar
    59   100   102   ar
    60    57    60    1
    61    57    56    1
    62    48    45    1
    63    45    46    1
    64    15    14    2
    65    16    14   am
    66    52    50   ar
    67    60    61    1
    68    60    62    1
    69    14    13    1
    70    29    30    1
    71    35    33    1
    72    13    12    1
    73    33    30    1
    74    33    34    1
    75    30    31    1
    76    32    31    2
    77    12     9    1
    78    43    41   ar
    79     9    10    1
    80     9     8    1
    81     6     5    1
    82    40    41    1
    83    40    37    1
    84    10    11    2
    85    10    17   am
    86    20    19    2
    87    19    18    1
    88     8     3   am
    89    41    42   ar
    90    17    18    1
    91   142   141    2
    92     5     7    1
    93     5     2    1
    94     4     3    2
    95     3     2    1
    96   153   152    1
    97    36    37    1
    98   160   159    1
    99   160   161    1
   100    18    21    1
   101   159   158    1
   102    37    38    1
   103    39    38    2
   104   141   140    1
   105   141   143   am
   106     2     1    1
   107   140   139    1
   108   152   149    1
   109   155   158    1
   110   155   156    1
   111   155   154    1
   112    21    22    1
   113   143   144    1
   114   148   149    1
   115   148   145   am
   116   156   157    2
   117   144   145    1
   118   144   147    1
   119   139   134   am
   120   149   150    1
   121   145   146    2
   122    22    23   ar
   123    22    24   ar
   124   130   129   ar
   125   135   134    2
   126   131   129   ar
   127    23    25   ar
   128   134   133    1
   129   123   122    1
   130   129   128    1
   131    24    26   ar
   132   137   136    1
   133   150   151    2
   134    25    27   ar
   135   122   120   ar
   136   122   121   ar
   137    26    27   ar
   138   133   136    1
   139   133   132    1
   140   136   138    1
   141    27    28    1
   142   120   118   ar
   143   132   126   am
   144   127   126    2
   145   128   125    1
   146   121   119   ar
   147   126   125    1
   148   166   163    1
   149   125   124    1
   150   118   117   ar
   151   119   117   ar
   152   162   163    1
   153   117   116    1
   154   163   164    1
   155   116   113    1
   156   164   165    2
   157   113   114    1
   158   113   112    1
   159   114   115    2
