@<TRIPOS>MOLECULE
tmp/5sz9A01.pdb
 94 95 0 0 0
SMALL
GASTEIGER

@<TRIPOS>ATOM
      1  N        -17.1510  -43.4200   16.3890 N.3   183  ASN183     -0.1225
      2  CA       -18.1890  -44.3920   16.0470 C.3   183  ASN183      0.1785
      3  C        -19.0440  -43.9860   14.8620 C.2   183  ASN183      0.2597
      4  O        -19.1460  -42.8010   14.5450 O.2   183  ASN183     -0.2718
      5  CB       -19.0730  -44.6670   17.2620 C.3   183  ASN183      0.1169
      6  CG       -18.4320  -45.6370   18.2310 C.2   183  ASN183      0.2627
      7  OD1      -18.3070  -45.3500   19.4280 O.2   183  ASN183     -0.2716
      8  ND2      -18.0060  -46.7940   17.7170 N.am  183  ASN183     -0.0877
      9  N        -19.6270  -44.9840   14.1980 N.am  184  PHE184     -0.1962
     10  CA       -20.6850  -44.7620   13.2140 C.3   184  PHE184      0.1771
     11  C        -22.0020  -44.4790   13.9480 C.2   184  PHE184      0.2619
     12  O        -22.2820  -45.0810   14.9880 O.2   184  PHE184     -0.2715
     13  CB       -20.8490  -45.9830   12.3000 C.3   184  PHE184      0.0574
     14  CG       -19.9810  -45.9620   11.0640 C.ar  184  PHE184     -0.0200
     15  CD1      -20.3470  -45.2120    9.9400 C.ar  184  PHE184     -0.0042
     16  CD2      -18.8150  -46.7290   11.0000 C.ar  184  PHE184     -0.0042
     17  CE1      -19.5530  -45.2050    8.7920 C.ar  184  PHE184     -0.0003
     18  CE2      -18.0220  -46.7290    9.8490 C.ar  184  PHE184     -0.0003
     19  CZ       -18.3920  -45.9690    8.7460 C.ar  184  PHE184     -0.0000
     20  N        -22.7790  -43.5310   13.4280 N.am  185  HIS185     -0.1973
     21  CA       -24.1520  -43.3130   13.8630 C.3   185  HIS185      0.1656
     22  C        -25.0500  -43.8460   12.7520 C.2   185  HIS185      0.2291
     23  O        -25.0110  -43.3590   11.6160 O.2   185  HIS185     -0.2864
     24  CB       -24.4110  -41.8330   14.1650 C.3   185  HIS185      0.0771
     25  CG       -25.8500  -41.4980   14.4160 C.ar  185  HIS185      0.0820
     26  ND1      -26.5060  -40.4930   13.7380 N.ar  185  HIS185     -0.2267
     27  CD2      -26.7600  -42.0320   15.2660 C.ar  185  HIS185      0.1154
     28  CE1      -27.7530  -40.4190   14.1610 C.ar  185  HIS185      0.1986
     29  NE2      -27.9350  -41.3430   15.0870 N.ar  185  HIS185     -0.2212
     30  N        -29.1670  -36.9970   16.2870 N.3   269  LYS269     -0.1231
     31  CA       -27.8800  -36.2910   16.3620 C.3   269  LYS269      0.1693
     32  C        -27.8600  -35.0620   15.4430 C.2   269  LYS269      0.2592
     33  O        -28.4570  -35.0780   14.3620 O.2   269  LYS269     -0.2718
     34  CB       -26.7550  -37.2460   15.9740 C.3   269  LYS269      0.0285
     35  CG       -25.6970  -37.4270   17.0420 C.3   269  LYS269      0.0035
     36  CD       -24.7160  -38.5160   16.6430 C.3   269  LYS269      0.0206
     37  CE       -24.2350  -39.3020   17.8490 C.3   269  LYS269      0.1093
     38  NZ       -25.2440  -40.3110   18.2780 N.3   269  LYS269     -0.1314
     39  N        -27.1640  -34.0100   15.8750 N.am  270  GLU270     -0.1966
     40  CA       -27.0580  -32.7530   15.1130 C.3   270  GLU270      0.1733
     41  C        -25.7420  -32.6660   14.3040 C.2   270  GLU270      0.2616
     42  O        -24.6570  -32.5200   14.8760 O.2   270  GLU270     -0.2715
     43  CB       -27.2250  -31.5480   16.0540 C.3   270  GLU270      0.0429
     44  CG       -27.9110  -30.3340   15.4330 C.3   270  GLU270      0.1163
     45  CD       -29.4410  -30.4170   15.4060 C.2   270  GLU270      0.3649
     46  OE1      -30.0470  -30.8380   16.4170 O.co2 270  GLU270     -0.2457
     47  OE2      -30.0510  -30.0330   14.3740 O.co2 270  GLU270     -0.2457
     48  N        -25.8620  -32.7640   12.9780 N.am  271  TYR271     -0.1974
     49  CA       -24.7220  -32.7670   12.0450 C.3   271  TYR271      0.1639
     50  C        -24.3890  -31.3630   11.5700 C.2   271  TYR271      0.2290
     51  O        -25.0940  -30.7990   10.7270 O.2   271  TYR271     -0.2864
     52  CB       -25.0130  -33.6680   10.8370 C.3   271  TYR271      0.0560
     53  CG       -25.0130  -35.1440   11.1560 C.ar  271  TYR271     -0.0198
     54  CD1      -26.1080  -35.7480   11.7990 C.ar  271  TYR271     -0.0009
     55  CD2      -23.9220  -35.9460   10.8150 C.ar  271  TYR271     -0.0009
     56  CE1      -26.1060  -37.1050   12.0990 C.ar  271  TYR271      0.0417
     57  CE2      -23.9150  -37.3050   11.1060 C.ar  271  TYR271      0.0417
     58  CZ       -25.0080  -37.8800   11.7450 C.ar  271  TYR271      0.1957
     59  OH       -25.0070  -39.2280   12.0330 O.3   271  TYR271     -0.2866
     60  N        -18.4960  -36.2000    6.5430 N.3   317  PHE317     -0.1241
     61  CA       -19.0160  -37.4310    7.1350 C.3   317  PHE317      0.1605
     62  C        -18.8760  -38.6160    6.1960 C.2   317  PHE317      0.2264
     63  O        -19.5730  -38.7170    5.1800 O.2   317  PHE317     -0.2867
     64  CB       -20.4670  -37.2540    7.6090 C.3   317  PHE317      0.0534
     65  CG       -20.6650  -36.0540    8.4890 C.ar  317  PHE317     -0.0203
     66  CD1      -20.2980  -36.0910    9.8420 C.ar  317  PHE317     -0.0042
     67  CD2      -21.1850  -34.8680    7.9650 C.ar  317  PHE317     -0.0042
     68  CE1      -20.4610  -34.9710   10.6530 C.ar  317  PHE317     -0.0003
     69  CE2      -21.3510  -33.7470    8.7730 C.ar  317  PHE317     -0.0003
     70  CZ       -20.9900  -33.7980   10.1180 C.ar  317  PHE317     -0.0000
     71  N        -23.1170  -42.7840    9.4500 N.3   330  PHE330     -0.1227
     72  CA       -22.2150  -41.6420    9.3070 C.3   330  PHE330      0.1736
     73  C        -21.1340  -41.6810   10.3670 C.2   330  PHE330      0.2595
     74  O        -21.4000  -41.9950   11.5310 O.2   330  PHE330     -0.2718
     75  CB       -22.9650  -40.3140    9.3920 C.3   330  PHE330      0.0547
     76  CG       -23.9360  -40.0860    8.2730 C.ar  330  PHE330     -0.0202
     77  CD1      -23.4940  -39.9250    6.9580 C.ar  330  PHE330     -0.0042
     78  CD2      -25.3020  -40.0210    8.5310 C.ar  330  PHE330     -0.0042
     79  CE1      -24.4030  -39.7110    5.9240 C.ar  330  PHE330     -0.0003
     80  CE2      -26.2140  -39.8100    7.5000 C.ar  330  PHE330     -0.0003
     81  CZ       -25.7640  -39.6490    6.1980 C.ar  330  PHE330     -0.0000
     82  N        -19.9120  -41.3690    9.9530 N.am  331  ALA331     -0.1966
     83  CA       -18.7830  -41.2400   10.8730 C.3   331  ALA331      0.1728
     84  C        -17.9380  -40.0410   10.4600 C.2   331  ALA331      0.2616
     85  O        -17.9070  -39.6940    9.2760 O.2   331  ALA331     -0.2715
     86  CB       -17.9540  -42.5180   10.8850 C.3   331  ALA331      0.0334
     87  N        -17.2710  -39.4040   11.4280 N.am  332  LEU332     -0.1977
     88  CA       -16.3400  -38.2980   11.1380 C.3   332  LEU332      0.1596
     89  C        -15.2390  -38.7240   10.1660 C.2   332  LEU332      0.2287
     90  O        -14.4570  -39.6350   10.4540 O.2   332  LEU332     -0.2864
     91  CB       -15.7300  -37.7210   12.4230 C.3   332  LEU332      0.0297
     92  CG       -16.5830  -36.7190   13.2000 C.3   332  LEU332      0.0022
     93  CD1      -16.2000  -36.7340   14.6700 C.3   332  LEU332      0.0001
     94  CD2      -16.4560  -35.3100   12.6380 C.3   332  LEU332      0.0001
@<TRIPOS>BOND
     1    63    62    2
     2    79    81   ar
     3    79    77   ar
     4    62    61    1
     5    81    80   ar
     6    60    61    1
     7    77    76   ar
     8    61    64    1
     9    80    78   ar
    10    64    65    1
    11    67    65   ar
    12    67    69   ar
    13    76    78   ar
    14    76    75    1
    15    65    66   ar
    16    19    17   ar
    17    19    18   ar
    18    69    70   ar
    19    17    15   ar
    20    85    84    2
    21    72    75    1
    22    72    71    1
    23    72    73    1
    24    66    68   ar
    25    18    16   ar
    26    15    14   ar
    27    82    73   am
    28    82    83    1
    29    70    68   ar
    30    89    90    2
    31    89    88    1
    32    73    74    2
    33    84    83    1
    34    84    87   am
    35    51    50    2
    36    55    57   ar
    37    55    53   ar
    38    52    53    1
    39    52    49    1
    40    83    86    1
    41    16    14   ar
    42    14    13    1
    43    57    58   ar
    44    88    87    1
    45    88    91    1
    46    53    54   ar
    47    50    49    1
    48    23    22    2
    49    58    59    1
    50    58    56   ar
    51    54    56   ar
    52    49    48    1
    53    13    10    1
    54    91    92    1
    55    94    92    1
    56    22    21    1
    57    48    41   am
    58    92    93    1
    59    10    11    1
    60    10     9    1
    61    20    21    1
    62    20    11   am
    63    26    28   ar
    64    26    25   ar
    65    21    24    1
    66    11    12    2
    67    28    29   ar
    68    24    25    1
    69     9     3   am
    70    41    42    2
    71    41    40    1
    72    33    32    2
    73    47    45   ar
    74    25    27   ar
    75     4     3    2
    76     3     2    1
    77    29    27   ar
    78    40    39    1
    79    40    43    1
    80    45    44    1
    81    45    46   ar
    82    44    43    1
    83    32    39   am
    84    32    31    1
    85    34    31    1
    86    34    35    1
    87     2     1    1
    88     2     5    1
    89    30    31    1
    90    36    35    1
    91    36    37    1
    92     5     6    1
    93     8     6   am
    94    37    38    1
    95     6     7    2
