@<TRIPOS>MOLECULE
tmp/5szhB00.pdb
 187 183 0 0 0
SMALL
GASTEIGER

@<TRIPOS>ATOM
      1  N        -17.7250  -16.2740  -20.7610 N.3    19  SER19      -0.1202
      2  CA       -18.7320  -17.3080  -20.5800 C.3    19  SER19       0.2020
      3  C        -19.9180  -16.7820  -19.7510 C.2    19  SER19       0.2619
      4  O        -19.7270  -16.1680  -18.7070 O.2    19  SER19      -0.2717
      5  CB       -18.1010  -18.5290  -19.9090 C.3    19  SER19       0.2103
      6  OG       -19.0620  -19.5530  -19.7110 O.3    19  SER19      -0.2182
      7  N        -21.1420  -16.9920  -20.2320 N.am   20  GLY20      -0.1942
      8  CA       -22.3260  -16.6200  -19.4670 C.3    20  GLY20       0.2014
      9  C        -22.9280  -15.2660  -19.8120 C.2    20  GLY20       0.2639
     10  O        -23.9610  -14.8670  -19.2560 O.2    20  GLY20      -0.2714
     11  N        -22.3010  -14.5490  -20.7360 N.am   21  VAL21      -0.1963
     12  CA       -22.7980  -13.2250  -21.1080 C.3    21  VAL21       0.1727
     13  C        -24.0050  -13.2970  -22.0600 C.2    21  VAL21       0.2617
     14  O        -24.7530  -12.3150  -22.2310 O.2    21  VAL21      -0.2715
     15  CB       -21.6770  -12.3860  -21.7440 C.3    21  VAL21       0.0290
     16  CG1      -20.4960  -12.3220  -20.7870 C.3    21  VAL21       0.0023
     17  CG2      -21.2560  -12.9760  -23.0770 C.3    21  VAL21       0.0023
     18  N        -24.1900  -14.4590  -22.6850 N.am   22  GLY22      -0.1940
     19  CA       -25.3720  -14.7060  -23.4870 C.3    22  GLY22       0.2014
     20  C        -25.1560  -14.8570  -24.9800 C.2    22  GLY22       0.2639
     21  O        -26.0790  -14.6070  -25.7460 O.2    22  GLY22      -0.2714
     22  N        -23.9530  -15.2740  -25.3850 N.am   23  LYS23      -0.1963
     23  CA       -23.5830  -15.3920  -26.7910 C.3    23  LYS23       0.1728
     24  C        -24.4660  -16.3950  -27.5050 C.2    23  LYS23       0.2617
     25  O        -25.0110  -16.1060  -28.5530 O.2    23  LYS23      -0.2715
     26  CB       -22.1050  -15.7930  -26.9320 C.3    23  LYS23       0.0311
     27  CG       -21.1560  -14.6980  -26.4360 C.3    23  LYS23       0.0038
     28  CD       -19.6910  -15.0600  -26.6210 C.3    23  LYS23       0.0206
     29  CE       -19.3710  -16.4080  -25.9910 C.3    23  LYS23       0.1093
     30  NZ       -19.4750  -16.4140  -24.5180 N.3    23  LYS23      -0.1314
     31  N        -24.6340  -17.5660  -26.9150 N.am   24  SER24      -0.1936
     32  CA       -25.4190  -18.5940  -27.5580 C.3    24  SER24       0.2055
     33  C        -26.9050  -18.1860  -27.6550 C.2    24  SER24       0.2643
     34  O        -27.5760  -18.4630  -28.6550 O.2    24  SER24      -0.2714
     35  CB       -25.2390  -19.9130  -26.8040 C.3    24  SER24       0.2130
     36  OG       -23.9020  -20.3820  -26.9590 O.3    24  SER24      -0.2179
     37  N        -27.4040  -17.5000  -26.6330 N.am   25  CYS25      -0.1967
     38  CA       -28.7900  -17.0410  -26.6240 C.3    25  CYS25       0.1712
     39  C        -29.0310  -15.9480  -27.6520 C.2    25  CYS25       0.2296
     40  O        -30.1060  -15.8600  -28.2140 O.2    25  CYS25      -0.2864
     41  CB       -29.1840  -16.5390  -25.2320 C.3    25  CYS25       0.0983
     42  SG       -29.5620  -17.8890  -24.0570 S.3    25  CYS25      -0.0798
     43  N        -35.6420  -18.8610  -27.0650 N.3    35  TYR35      -0.1227
     44  CA       -34.8260  -18.5090  -25.9220 C.3    35  TYR35       0.1736
     45  C        -34.9650  -19.5130  -24.8010 C.2    35  TYR35       0.2596
     46  O        -36.0750  -19.8240  -24.3620 O.2    35  TYR35      -0.2718
     47  CB       -35.2110  -17.1280  -25.4180 C.3    35  TYR35       0.0548
     48  CG       -34.5640  -16.7570  -24.1110 C.ar   35  TYR35      -0.0200
     49  CD1      -33.2920  -16.2040  -24.0840 C.ar   35  TYR35      -0.0009
     50  CD2      -35.2280  -16.9480  -22.9020 C.ar   35  TYR35      -0.0009
     51  CE1      -32.6950  -15.8510  -22.8960 C.ar   35  TYR35       0.0417
     52  CE2      -34.6360  -16.6010  -21.7040 C.ar   35  TYR35       0.0417
     53  CZ       -33.3700  -16.0480  -21.7090 C.ar   35  TYR35       0.1957
     54  OH       -32.7640  -15.6970  -20.5250 O.3    35  TYR35      -0.2866
     55  N        -33.8350  -20.0040  -24.3150 N.am   36  THR36      -0.1939
     56  CA       -33.8590  -20.8680  -23.1440 C.3    36  THR36       0.2028
     57  C        -33.2130  -20.2150  -21.9220 C.2    36  THR36       0.2642
     58  O        -32.1800  -19.5410  -22.0190 O.2    36  THR36      -0.2714
     59  CB       -33.1500  -22.2030  -23.4120 C.3    36  THR36       0.1808
     60  OG1      -33.0830  -22.9480  -22.1870 O.3    36  THR36      -0.2208
     61  CG2      -31.7270  -21.9680  -23.9600 C.3    36  THR36       0.0379
     62  N        -33.8210  -20.4430  -20.7690 N.am   37  GLU37      -0.1963
     63  CA       -33.2580  -19.9870  -19.5020 C.3    37  GLU37       0.1733
     64  C        -32.1110  -20.8940  -19.0390 C.2    37  GLU37       0.2617
     65  O        -31.3510  -20.5220  -18.1420 O.2    37  GLU37      -0.2715
     66  CB       -34.3490  -19.9140  -18.4220 C.3    37  GLU37       0.0429
     67  CG       -35.2580  -18.6940  -18.5520 C.3    37  GLU37       0.1163
     68  CD       -35.4110  -17.9110  -17.2500 C.2    37  GLU37       0.3649
     69  OE1      -35.2440  -18.5100  -16.1650 O.co2  37  GLU37      -0.2457
     70  OE2      -35.6830  -16.6880  -17.3170 O.co2  37  GLU37      -0.2457
     71  N        -31.9870  -22.0720  -19.6530 N.am   38  SER38      -0.1936
     72  CA       -30.9300  -23.0190  -19.3020 C.3    38  SER38       0.2055
     73  C        -29.5410  -22.4930  -19.6370 C.2    38  SER38       0.2643
     74  O        -29.3260  -21.8590  -20.6710 O.2    38  SER38      -0.2714
     75  CB       -31.1520  -24.3610  -20.0030 C.3    38  SER38       0.2130
     76  OG       -32.3370  -24.9780  -19.5240 O.3    38  SER38      -0.2179
     77  N        -28.6030  -22.7490  -18.7370 N.am   39  TYR39      -0.1959
     78  CA       -27.2250  -22.3370  -18.9230 C.3    39  TYR39       0.1771
     79  C        -26.4370  -23.5390  -19.4110 C.2    39  TYR39       0.2619
     80  O        -25.8920  -24.3070  -18.6120 O.2    39  TYR39      -0.2715
     81  CB       -26.6430  -21.7830  -17.6210 C.3    39  TYR39       0.0574
     82  CG       -25.1920  -21.3780  -17.7140 C.ar   39  TYR39      -0.0198
     83  CD1      -24.8270  -20.1950  -18.3310 C.ar   39  TYR39      -0.0009
     84  CD2      -24.1870  -22.1730  -17.1800 C.ar   39  TYR39      -0.0009
     85  CE1      -23.5070  -19.8110  -18.4270 C.ar   39  TYR39       0.0417
     86  CE2      -22.8570  -21.7950  -17.2700 C.ar   39  TYR39       0.0417
     87  CZ       -22.5270  -20.6060  -17.8970 C.ar   39  TYR39       0.1957
     88  OH       -21.2160  -20.2010  -18.0020 O.3    39  TYR39      -0.2866
     89  N        -26.4100  -23.7120  -20.7270 N.am   40  ILE40      -0.1963
     90  CA       -25.7430  -24.8480  -21.3480 C.3    40  ILE40       0.1727
     91  C        -24.4910  -24.3790  -22.0590 C.2    40  ILE40       0.2617
     92  O        -24.5490  -23.9130  -23.1990 O.2    40  ILE40      -0.2715
     93  CB       -26.6420  -25.5540  -22.3600 C.3    40  ILE40       0.0290
     94  CG1      -28.0260  -25.7990  -21.7650 C.3    40  ILE40       0.0022
     95  CG2      -26.0060  -26.8500  -22.7900 C.3    40  ILE40       0.0023
     96  CD1      -27.9980  -26.6570  -20.5370 C.3    40  ILE40       0.0001
     97  N        -23.3600  -24.4860  -21.3780 N.am   41  SER41      -0.1936
     98  CA       -22.1390  -23.8860  -21.8790 C.3    41  SER41       0.2055
     99  C        -21.7180  -24.5020  -23.2220 C.2    41  SER41       0.2643
    100  O        -21.8940  -25.6900  -23.4700 O.2    41  SER41      -0.2714
    101  CB       -21.0310  -24.0250  -20.8410 C.3    41  SER41       0.2130
    102  OG       -19.9120  -23.2710  -21.2560 O.3    41  SER41      -0.2179
    103  N        -21.1820  -23.6780  -24.1000 N.am   42  THR42      -0.1950
    104  CA       -20.8730  -24.1220  -25.4580 C.3    42  THR42       0.1897
    105  C        -19.5780  -24.9600  -25.5020 C.2    42  THR42       0.2313
    106  O        -18.5620  -24.5740  -24.9290 O.2    42  THR42      -0.2863
    107  CB       -20.7490  -22.9080  -26.4020 C.3    42  THR42       0.1794
    108  OG1      -22.0030  -22.1940  -26.4610 O.3    42  THR42      -0.2208
    109  CG2      -20.2960  -23.3430  -27.7960 C.3    42  THR42       0.0378
    110  N        -18.8660  -19.1690  -30.0810 N.3    66  THR66      -0.1203
    111  CA       -17.6710  -19.7550  -29.4660 C.3    66  THR66       0.1994
    112  C        -17.8310  -19.8830  -27.9660 C.2    66  THR66       0.2618
    113  O        -18.5270  -19.0730  -27.3610 O.2    66  THR66      -0.2717
    114  CB       -16.4040  -18.9140  -29.7390 C.3    66  THR66       0.1784
    115  OG1      -16.5280  -17.6380  -29.1030 O.3    66  THR66      -0.2211
    116  CG2      -16.2180  -18.7080  -31.2140 C.3    66  THR66       0.0376
    117  N        -17.1920  -20.8970  -27.3770 N.am   67  ALA67      -0.1965
    118  CA       -17.0630  -20.9880  -25.9260 C.3    67  ALA67       0.1728
    119  C        -16.2330  -19.8110  -25.3780 C.2    67  ALA67       0.2617
    120  O        -15.1380  -19.5120  -25.8800 O.2    67  ALA67      -0.2715
    121  CB       -16.4070  -22.3370  -25.5270 C.3    67  ALA67       0.0334
    122  N        -16.7380  -19.1590  -24.3370 N.am   68  GLY68      -0.1940
    123  CA       -16.0070  -18.0740  -23.6970 C.3    68  GLY68       0.2014
    124  C        -14.9360  -18.4750  -22.6800 C.2    68  GLY68       0.2638
    125  O        -14.0370  -17.6880  -22.3700 O.2    68  GLY68      -0.2714
    126  N        -15.0020  -19.6770  -22.1300 N.am   69  GLN69      -0.1977
    127  CA       -13.9930  -20.0180  -21.1270 C.3    69  GLN69       0.1601
    128  C        -12.5870  -20.1140  -21.7170 C.2    69  GLN69       0.2287
    129  O        -12.3800  -20.6570  -22.7990 O.2    69  GLN69      -0.2864
    130  CB       -14.3690  -21.3060  -20.3950 C.3    69  GLN69       0.0394
    131  CG       -14.7210  -21.0250  -18.9400 C.3    69  GLN69       0.0908
    132  CD       -16.0610  -21.5850  -18.5450 C.2    69  GLN69       0.2608
    133  OE1      -16.7790  -22.1570  -19.3740 O.2    69  GLN69      -0.2717
    134  NE2      -16.4270  -21.3970  -17.2800 N.am   69  GLN69      -0.0878
    135  N        -25.1650   -7.2300  -23.3970 N.3   123  ASN123     -0.1225
    136  CA       -26.3780   -8.0220  -23.3110 C.3   123  ASN123      0.1785
    137  C        -27.0230   -8.0000  -21.9080 C.2   123  ASN123      0.2597
    138  O        -26.4070   -7.5490  -20.9180 O.2   123  ASN123     -0.2718
    139  CB       -26.0550   -9.4570  -23.7360 C.3   123  ASN123      0.1169
    140  CG       -27.2970  -10.3010  -23.9440 C.2   123  ASN123      0.2627
    141  OD1      -28.3180   -9.8060  -24.4140 O.2   123  ASN123     -0.2716
    142  ND2      -27.2140  -11.5820  -23.5910 N.am  123  ASN123     -0.0877
    143  N        -28.2670   -8.4880  -21.8540 N.am  124  LYS124     -0.1980
    144  CA       -29.1050   -8.6020  -20.6520 C.3   124  LYS124      0.1596
    145  C        -29.6470   -7.2620  -20.1610 C.2   124  LYS124      0.2287
    146  O        -29.7020   -7.0240  -18.9580 O.2   124  LYS124     -0.2864
    147  CB       -28.3510   -9.2960  -19.5040 C.3   124  LYS124      0.0298
    148  CG       -27.7830  -10.6600  -19.8850 C.3   124  LYS124      0.0038
    149  CD       -27.3000  -11.4750  -18.6800 C.3   124  LYS124      0.0206
    150  CE       -26.5070  -12.6850  -19.1810 C.3   124  LYS124      0.1093
    151  NZ       -26.0360  -13.5870  -18.0930 N.3   124  LYS124     -0.1314
    152  N        -32.6600   -6.3560  -20.1000 N.3   126  ASP126     -0.1225
    153  CA       -33.9280   -6.5810  -19.3940 C.3   126  ASP126      0.1805
    154  C        -33.8040   -6.5580  -17.8570 C.2   126  ASP126      0.2597
    155  O        -34.7910   -6.3190  -17.1460 O.2   126  ASP126     -0.2718
    156  CB       -34.5260   -7.9190  -19.8310 C.3   126  ASP126      0.1424
    157  CG       -33.5230   -9.0690  -19.7140 C.2   126  ASP126      0.3668
    158  OD1      -32.5240   -9.0840  -20.4790 O.co2 126  ASP126     -0.2456
    159  OD2      -33.7300   -9.9600  -18.8640 O.co2 126  ASP126     -0.2456
    160  N        -32.6000   -6.8090  -17.3440 N.am  127  LEU127     -0.1979
    161  CA       -32.3820   -6.8990  -15.8920 C.3   127  LEU127      0.1596
    162  C        -32.1540   -5.5250  -15.2620 C.2   127  LEU127      0.2287
    163  O        -31.0720   -5.2240  -14.7500 O.2   127  LEU127     -0.2864
    164  CB       -31.1990   -7.8230  -15.5840 C.3   127  LEU127      0.0297
    165  CG       -31.4250   -9.2890  -15.9510 C.3   127  LEU127      0.0022
    166  CD1      -30.1390  -10.0730  -15.7880 C.3   127  LEU127      0.0001
    167  CD2      -32.5280   -9.8780  -15.0750 C.3   127  LEU127      0.0001
    168  N        -31.2320   -7.3980  -25.3240 N.3   153  SER153     -0.1202
    169  CA       -31.7180   -8.4670  -24.4680 C.3   153  SER153      0.2020
    170  C        -32.0890   -9.6510  -25.3470 C.2   153  SER153      0.2619
    171  O        -33.0390   -9.5760  -26.1390 O.2   153  SER153     -0.2717
    172  CB       -32.9310   -8.0270  -23.6520 C.3   153  SER153      0.2103
    173  OG       -33.6120   -9.1540  -23.0950 O.3   153  SER153     -0.2182
    174  N        -31.3350  -10.7360  -25.2420 N.am  154  ALA154     -0.1965
    175  CA       -31.6930  -11.9430  -25.9710 C.3   154  ALA154      0.1728
    176  C        -33.0250  -12.4540  -25.4500 C.2   154  ALA154      0.2616
    177  O        -33.7910  -13.0670  -26.1840 O.2   154  ALA154     -0.2715
    178  CB       -30.6170  -13.0140  -25.8290 C.3   154  ALA154      0.0334
    179  N        -33.3050  -12.1800  -24.1810 N.am  155  LYS155     -0.1977
    180  CA       -34.5080  -12.7040  -23.5460 C.3   155  LYS155      0.1596
    181  C        -35.8020  -12.1140  -24.1100 C.2   155  LYS155      0.2287
    182  O        -36.7330  -12.8600  -24.4390 O.2   155  LYS155     -0.2864
    183  CB       -34.4530  -12.4720  -22.0420 C.3   155  LYS155      0.0298
    184  CG       -35.6760  -12.9970  -21.3190 C.3   155  LYS155      0.0038
    185  CD       -35.4880  -12.9790  -19.8100 C.3   155  LYS155      0.0206
    186  CE       -36.7050  -13.6010  -19.1470 C.3   155  LYS155      0.1093
    187  NZ       -36.5590  -13.6470  -17.6810 N.3   155  LYS155     -0.1314
@<TRIPOS>BOND
     1   116   114    1
     2   110   111    1
     3   114   111    1
     4   114   115    1
     5   111   112    1
     6    34    33    2
     7    25    24    2
     8    40    39    2
     9   112   117   am
    10   112   113    2
    11   109   107    1
    12    33    32    1
    13    33    37   am
    14    39    38    1
    15    32    31    1
    16    32    35    1
    17    24    31   am
    18    24    23    1
    19   117   118    1
    20    43    44    1
    21    36    35    1
    22    26    23    1
    23    26    27    1
    24    23    22    1
    25    37    38    1
    26    38    41    1
    27    28    27    1
    28    28    29    1
    29   108   107    1
    30   107   104    1
    31   177   176    2
    32   171   170    2
    33    29    30    1
    34   175   178    1
    35   175   176    1
    36   175   174    1
    37   118   121    1
    38   118   119    1
    39    44    47    1
    40    44    45    1
    41   120   119    2
    42    21    20    2
    43   105   104    1
    44   105   106    2
    45   104   103    1
    46   176   179   am
    47    47    48    1
    48    22    20   am
    49   119   122   am
    50   170   174   am
    51   170   169    1
    52   168   169    1
    53    41    42    1
    54    20    19    1
    55    45    46    2
    56    45    55   am
    57   169   172    1
    58   182   181    2
    59   141   140    2
    60   122   123    1
    61    55    56    1
    62   179   180    1
    63    48    49   ar
    64    48    50   ar
    65   181   180    1
    66   103    99   am
    67    49    51   ar
    68    61    59    1
    69   140   139    1
    70   140   142   am
    71   139   136    1
    72   123   124    1
    73   172   173    1
    74   180   183    1
    75    19    18    1
    76   100    99    2
    77    59    56    1
    78    59    60    1
    79   135   136    1
    80   136   137    1
    81    99    98    1
    82    92    91    2
    83    56    57    1
    84    17    15    1
    85    50    52   ar
    86    51    53   ar
    87   129   128    2
    88    95    93    1
    89    18    13   am
    90   124   125    2
    91   124   126   am
    92    93    94    1
    93    93    90    1
    94    14    13    2
    95   126   127    1
    96    13    12    1
    97    91    97   am
    98    91    90    1
    99   183   184    1
   100    58    57    2
   101    57    62   am
   102   137   143   am
   103   137   138    2
   104    98    97    1
   105    98   101    1
   106   143   144    1
   107    94    96    1
   108    15    12    1
   109    15    16    1
   110   128   127    1
   111    53    52   ar
   112    53    54    1
   113    90    89    1
   114   184   185    1
   115   102   101    1
   116   127   130    1
   117    12    11    1
   118    62    63    1
   119     1     2    1
   120    11     9   am
   121    89    79   am
   122    74    73    2
   123   144   145    1
   124   144   147    1
   125     2     5    1
   126     2     3    1
   127   158   157   ar
   128   130   131    1
   129     7     3   am
   130     7     8    1
   131   145   146    2
   132   152   153    1
   133    75    76    1
   134    75    72    1
   135     5     6    1
   136   148   147    1
   137   148   149    1
   138   156   157    1
   139   156   153    1
   140     9     8    1
   141     9    10    2
   142   185   186    1
   143     3     4    2
   144   157   159   ar
   145    71    72    1
   146    71    64   am
   147    73    72    1
   148    73    77   am
   149    63    64    1
   150    63    66    1
   151    79    78    1
   152    79    80    2
   153   153   154    1
   154   133   132    2
   155   150   149    1
   156   150   151    1
   157   186   187    1
   158    64    65    2
   159   131   132    1
   160    78    77    1
   161    78    81    1
   162    67    66    1
   163    67    68    1
   164   132   134   am
   165    85    83   ar
   166    85    87   ar
   167    83    82   ar
   168    88    87    1
   169    87    86   ar
   170   154   160   am
   171   154   155    2
   172    82    81    1
   173    82    84   ar
   174   160   161    1
   175    70    68   ar
   176    86    84   ar
   177    68    69   ar
   178   165   166    1
   179   165   164    1
   180   165   167    1
   181   161   164    1
   182   161   162    1
   183   162   163    2
