@<TRIPOS>MOLECULE
tmp/5szjA00.pdb
 181 176 0 0 0
SMALL
GASTEIGER

@<TRIPOS>ATOM
      1  N         34.8100   17.2050  -47.1550 N.3    18  SER18      -0.1202
      2  CA        35.7250   18.1760  -46.5720 C.3    18  SER18       0.2020
      3  C         35.8810   19.3870  -47.4880 C.2    18  SER18       0.2619
      4  O         36.2070   19.2430  -48.6650 O.2    18  SER18      -0.2717
      5  CB        37.0860   17.5340  -46.3000 C.3    18  SER18       0.2103
      6  OG        37.9980   18.4790  -45.7700 O.3    18  SER18      -0.2182
      7  N         35.6210   20.5740  -46.9480 N.am   19  GLY19      -0.1942
      8  CA        35.8080   21.8090  -47.6900 C.3    19  GLY19       0.2014
      9  C         34.5420   22.4220  -48.2640 C.2    19  GLY19       0.2639
     10  O         34.6050   23.4480  -48.9460 O.2    19  GLY19      -0.2714
     11  N         33.3930   21.8050  -47.9980 N.am   20  VAL20      -0.1963
     12  CA        32.1230   22.3310  -48.5000 C.3    20  VAL20       0.1727
     13  C         31.6870   23.5670  -47.7150 C.2    20  VAL20       0.2617
     14  O         30.8280   24.3240  -48.1650 O.2    20  VAL20      -0.2715
     15  CB        30.9910   21.2800  -48.4390 C.3    20  VAL20       0.0290
     16  CG1       31.2730   20.1240  -49.3900 C.3    20  VAL20       0.0023
     17  CG2       30.7930   20.7820  -47.0190 C.3    20  VAL20       0.0023
     18  N         32.2760   23.7580  -46.5360 N.am   21  GLY21      -0.1940
     19  CA        31.9990   24.9320  -45.7260 C.3    21  GLY21       0.2014
     20  C         31.0330   24.7210  -44.5700 C.2    21  GLY21       0.2639
     21  O         30.3930   25.6740  -44.1260 O.2    21  GLY21      -0.2714
     22  N         30.9330   23.4870  -44.0760 N.am   22  LYS22      -0.1963
     23  CA        30.0330   23.1610  -42.9650 C.3    22  LYS22       0.1728
     24  C         30.3000   24.0010  -41.7150 C.2    22  LYS22       0.2617
     25  O         29.3730   24.5330  -41.1040 O.2    22  LYS22      -0.2715
     26  CB        30.1390   21.6750  -42.6050 C.3    22  LYS22       0.0311
     27  CG        29.6600   20.7290  -43.6880 C.3    22  LYS22       0.0038
     28  CD        29.9310   19.2780  -43.3150 C.3    22  LYS22       0.0206
     29  CE        31.4180   19.0210  -43.1070 C.3    22  LYS22       0.1093
     30  NZ        32.2080   19.0620  -44.3700 N.3    22  LYS22      -0.1314
     31  N         31.5720   24.1020  -41.3410 N.am   23  THR23      -0.1937
     32  CA        31.9970   24.8680  -40.1720 C.3    23  THR23       0.2028
     33  C         31.6970   26.3570  -40.3260 C.2    23  THR23       0.2642
     34  O         31.2220   27.0060  -39.3910 O.2    23  THR23      -0.2714
     35  CB        33.5050   24.6870  -39.9180 C.3    23  THR23       0.1808
     36  OG1       33.7790   23.3120  -39.6360 O.3    23  THR23      -0.2208
     37  CG2       33.9680   25.5390  -38.7520 C.3    23  THR23       0.0379
     38  N         31.9780   26.8940  -41.5100 N.am   24  CYS24      -0.1967
     39  CA        31.7480   28.3080  -41.7790 C.3    24  CYS24       0.1712
     40  C         30.2600   28.6430  -41.7650 C.2    24  CYS24       0.2296
     41  O         29.8620   29.7030  -41.2770 O.2    24  CYS24      -0.2864
     42  CB        32.3700   28.7090  -43.1170 C.3    24  CYS24       0.0983
     43  SG        34.1760   28.7710  -43.0830 S.3    24  CYS24      -0.0798
     44  N         32.8690   35.5050  -40.6970 N.3    34  PHE34      -0.1227
     45  CA        33.4190   34.5760  -41.6750 C.3    34  PHE34       0.1736
     46  C         34.9340   34.7030  -41.8200 C.2    34  PHE34       0.2595
     47  O         35.4570   35.7920  -42.0560 O.2    34  PHE34      -0.2718
     48  CB        32.7510   34.7850  -43.0350 C.3    34  PHE34       0.0547
     49  CG        33.2550   33.8560  -44.1030 C.ar   34  PHE34      -0.0202
     50  CD1       32.8260   32.5390  -44.1480 C.ar   34  PHE34      -0.0042
     51  CD2       34.1540   34.2980  -45.0610 C.ar   34  PHE34      -0.0042
     52  CE1       33.2870   31.6770  -45.1220 C.ar   34  PHE34      -0.0003
     53  CE2       34.6180   33.4430  -46.0420 C.ar   34  PHE34      -0.0003
     54  CZ        34.1840   32.1290  -46.0730 C.ar   34  PHE34      -0.0000
     55  N         35.6300   33.5790  -41.6790 N.am   35  ASN35      -0.1960
     56  CA        37.0720   33.5300  -41.8960 C.3    35  ASN35       0.1819
     57  C         37.4120   32.6540  -43.0990 C.2    35  ASN35       0.2622
     58  O         36.7610   31.6380  -43.3410 O.2    35  ASN35      -0.2715
     59  CB        37.7860   33.0230  -40.6430 C.3    35  ASN35       0.1195
     60  CG        37.7510   34.0280  -39.5050 C.2    35  ASN35       0.2630
     61  OD1       37.7490   35.2400  -39.7310 O.2    35  ASN35      -0.2716
     62  ND2       37.7170   33.5290  -38.2750 N.am   35  ASN35      -0.0877
     63  N         38.4340   33.0520  -43.8500 N.am   36  THR36      -0.1937
     64  CA        38.7530   32.3980  -45.1160 C.3    36  THR36       0.2028
     65  C         39.7220   31.2280  -44.9700 C.2    36  THR36       0.2643
     66  O         39.8160   30.3810  -45.8590 O.2    36  THR36      -0.2714
     67  CB        39.3540   33.3980  -46.1150 C.3    36  THR36       0.1808
     68  OG1       40.5410   33.9730  -45.5570 O.3    36  THR36      -0.2208
     69  CG2       38.3550   34.5020  -46.4290 C.3    36  THR36       0.0379
     70  N         40.4440   31.1850  -43.8550 N.am   37  THR37      -0.1936
     71  CA        41.4450   30.1460  -43.6390 C.3    37  THR37       0.2028
     72  C         40.8020   28.7800  -43.4290 C.2    37  THR37       0.2642
     73  O         39.9880   28.6010  -42.5230 O.2    37  THR37      -0.2714
     74  CB        42.3360   30.4670  -42.4270 C.3    37  THR37       0.1808
     75  OG1       42.7640   31.8330  -42.4930 O.3    37  THR37      -0.2208
     76  CG2       43.5510   29.5510  -42.4030 C.3    37  THR37       0.0379
     77  N         41.1700   27.8200  -44.2710 N.am   38  PHE38      -0.1959
     78  CA        40.6460   26.4660  -44.1530 C.3    38  PHE38       0.1771
     79  C         41.3030   25.7410  -42.9820 C.2    38  PHE38       0.2619
     80  O         42.4660   25.3400  -43.0550 O.2    38  PHE38      -0.2715
     81  CB        40.8590   25.6810  -45.4540 C.3    38  PHE38       0.0574
     82  CG        40.1920   24.3230  -45.4690 C.ar   38  PHE38      -0.0200
     83  CD1       39.2200   23.9920  -44.5330 C.ar   38  PHE38      -0.0042
     84  CD2       40.5450   23.3770  -46.4190 C.ar   38  PHE38      -0.0042
     85  CE1       38.6150   22.7470  -44.5440 C.ar   38  PHE38      -0.0003
     86  CE2       39.9420   22.1300  -46.4370 C.ar   38  PHE38      -0.0003
     87  CZ        38.9760   21.8150  -45.4980 C.ar   38  PHE38      -0.0000
     88  N         40.5430   25.5780  -41.9050 N.am   39  ILE39      -0.1963
     89  CA        40.9790   24.7890  -40.7630 C.3    39  ILE39       0.1727
     90  C         40.0520   23.5850  -40.6270 C.2    39  ILE39       0.2617
     91  O         38.9570   23.6890  -40.0720 O.2    39  ILE39      -0.2715
     92  CB        40.9810   25.6180  -39.4650 C.3    39  ILE39       0.0290
     93  CG1       41.6880   26.9560  -39.6910 C.3    39  ILE39       0.0022
     94  CG2       41.6430   24.8430  -38.3360 C.3    39  ILE39       0.0023
     95  CD1       41.7130   27.8470  -38.4720 C.3    39  ILE39       0.0001
     96  N         40.4960   22.4470  -41.1520 N.am   40  SER40      -0.1936
     97  CA        39.6520   21.2620  -41.2490 C.3    40  SER40       0.2055
     98  C         39.2710   20.7300  -39.8710 C.2    40  SER40       0.2643
     99  O         40.0780   20.7470  -38.9410 O.2    40  SER40      -0.2714
    100  CB        40.3580   20.1760  -42.0620 C.3    40  SER40       0.2130
    101  OG        39.4410   19.1920  -42.5060 O.3    40  SER40      -0.2179
    102  N         38.0320   20.2670  -39.7460 N.am   41  THR41      -0.1950
    103  CA        37.5180   19.7850  -38.4710 C.3    41  THR41       0.1897
    104  C         38.1800   18.4720  -38.0610 C.2    41  THR41       0.2313
    105  O         38.4200   17.5970  -38.8950 O.2    41  THR41      -0.2863
    106  CB        35.9910   19.5900  -38.5230 C.3    41  THR41       0.1794
    107  OG1       35.3860   20.7270  -39.1520 O.3    41  THR41      -0.2208
    108  CG2       35.4170   19.4190  -37.1200 C.3    41  THR41       0.0378
    109  N         30.5740   18.0910  -38.3930 N.3    65  THR65      -0.1218
    110  CA        31.2430   16.8480  -38.7700 C.3    65  THR65       0.1862
    111  C         32.5250   17.0760  -39.5700 C.2    65  THR65       0.2287
    112  O         32.6040   17.9980  -40.3800 O.2    65  THR65      -0.2866
    113  CB        30.2690   15.9500  -39.5740 C.3    65  THR65       0.1770
    114  OG1       29.4020   15.2530  -38.6690 O.3    65  THR65      -0.2211
    115  CG2       30.9980   14.9540  -40.4530 C.3    65  THR65       0.0375
    116  N         34.7380   16.2430  -42.5590 N.3    67  GLY67      -0.1210
    117  CA        34.4490   15.7110  -43.8780 C.3    67  GLY67       0.1956
    118  C         35.4320   14.6650  -44.3680 C.2    67  GLY67       0.2611
    119  O         35.0720   13.7980  -45.1660 O.2    67  GLY67      -0.2717
    120  N         36.6740   14.7500  -43.8960 N.am   68  GLN68      -0.1979
    121  CA        37.7170   13.8020  -44.2800 C.3    68  GLN68       0.1601
    122  C         37.3120   12.3780  -43.9020 C.2    68  GLN68       0.2287
    123  O         36.8250   12.1370  -42.7950 O.2    68  GLN68      -0.2864
    124  CB        39.0480   14.1720  -43.6220 C.3    68  GLN68       0.0394
    125  CG        39.5530   15.5670  -43.9660 C.3    68  GLN68       0.0908
    126  CD        40.7460   15.9780  -43.1200 C.2    68  GLN68       0.2608
    127  OE1       41.2190   15.2100  -42.2840 O.2    68  GLN68      -0.2717
    128  NE2       41.2340   17.1960  -43.3310 N.am   68  GLN68      -0.0878
    129  N         26.3250   25.2970  -50.6360 N.3   122  ASN122     -0.1225
    130  CA        27.0950   26.4170  -50.1080 C.3   122  ASN122      0.1785
    131  C         27.9520   27.0960  -51.1740 C.2   122  ASN122      0.2597
    132  O         28.0560   26.6120  -52.3060 O.2   122  ASN122     -0.2718
    133  CB        27.9790   25.9520  -48.9510 C.3   122  ASN122      0.1169
    134  CG        28.3850   27.0910  -48.0330 C.2   122  ASN122      0.2627
    135  OD1       27.6300   28.0450  -47.8390 O.2   122  ASN122     -0.2716
    136  ND2       29.5850   27.0010  -47.4690 N.am  122  ASN122     -0.0877
    137  N         28.5550   28.2220  -50.7940 N.am  123  LYS123     -0.1980
    138  CA        29.4230   29.0120  -51.6640 C.3   123  LYS123      0.1596
    139  C         28.7000   29.4760  -52.9250 C.2   123  LYS123      0.2287
    140  O         29.2770   29.4860  -54.0130 O.2   123  LYS123     -0.2864
    141  CB        30.6800   28.2190  -52.0390 C.3   123  LYS123      0.0298
    142  CG        31.4660   27.6970  -50.8430 C.3   123  LYS123      0.0038
    143  CD        32.8140   27.1450  -51.2700 C.3   123  LYS123      0.0206
    144  CE        33.5170   26.4480  -50.1200 C.3   123  LYS123      0.1093
    145  NZ        34.8200   25.8610  -50.5420 N.3   123  LYS123     -0.1314
    146  N         27.9570   32.3560  -53.5250 N.3   125  ASP125     -0.1225
    147  CA        28.4620   33.6950  -53.8050 C.3   125  ASP125      0.1805
    148  C         29.5110   33.6970  -54.9170 C.2   125  ASP125      0.2597
    149  O         29.8310   34.7460  -55.4750 O.2   125  ASP125     -0.2718
    150  CB        29.0490   34.3100  -52.5330 C.3   125  ASP125      0.1424
    151  CG        30.0970   33.4220  -51.8890 C.2   125  ASP125      0.3668
    152  OD1       29.7140   32.4860  -51.1560 O.co2 125  ASP125     -0.2456
    153  OD2       31.3020   33.6590  -52.1140 O.co2 125  ASP125     -0.2456
    154  N         30.0390   32.5190  -55.2390 N.am  126  MET126     -0.1979
    155  CA        31.0730   32.4000  -56.2630 C.3   126  MET126      0.1605
    156  C         30.4740   32.0740  -57.6290 C.2   126  MET126      0.2287
    157  O         30.4260   30.9140  -58.0360 O.2   126  MET126     -0.2864
    158  CB        32.0950   31.3310  -55.8660 C.3   126  MET126      0.0413
    159  CG        32.8200   31.6200  -54.5570 C.3   126  MET126      0.0598
    160  SD        33.9830   30.3260  -54.0860 S.3   126  MET126     -0.1393
    161  CE        35.1420   30.4020  -55.4470 C.3   126  MET126      0.0692
    162  N         25.3980   30.8050  -48.4890 N.3   152  SER152     -0.1202
    163  CA        26.7120   31.4210  -48.5710 C.3   152  SER152      0.2020
    164  C         27.1600   31.8660  -47.1880 C.2   152  SER152      0.2619
    165  O         26.6020   32.8050  -46.6220 O.2   152  SER152     -0.2717
    166  CB        26.7000   32.6120  -49.5280 C.3   152  SER152      0.2103
    167  OG        27.9600   33.2620  -49.5370 O.3   152  SER152     -0.2182
    168  N         28.1640   31.1870  -46.6440 N.am  153  ALA153     -0.1965
    169  CA        28.7050   31.5500  -45.3410 C.3   153  ALA153      0.1728
    170  C         29.4650   32.8690  -45.4140 C.2   153  ALA153      0.2616
    171  O         29.6370   33.5560  -44.4060 O.2   153  ALA153     -0.2715
    172  CB        29.6050   30.4470  -44.8150 C.3   153  ALA153      0.0334
    173  N         29.9090   33.2210  -46.6170 N.am  154  LYS154     -0.1977
    174  CA        30.6890   34.4350  -46.8260 C.3   154  LYS154      0.1596
    175  C         29.8000   35.6690  -46.9580 C.2   154  LYS154      0.2287
    176  O         30.0790   36.7100  -46.3640 O.2   154  LYS154     -0.2864
    177  CB        31.5680   34.2850  -48.0690 C.3   154  LYS154      0.0298
    178  CG        32.4430   35.4880  -48.3680 C.3   154  LYS154      0.0038
    179  CD        33.1890   35.3090  -49.6810 C.3   154  LYS154      0.0206
    180  CE        34.0940   36.4920  -49.9710 C.3   154  LYS154      0.1093
    181  NZ        34.7730   36.3530  -51.2880 N.3   154  LYS154     -0.1314
@<TRIPOS>BOND
     1   157   156    2
     2   156   155    1
     3   155   158    1
     4   155   154    1
     5   158   159    1
     6   149   148    2
     7   161   160    1
     8   154   148   am
     9   148   147    1
    10   159   160    1
    11   140   139    2
    12   147   146    1
    13   147   150    1
    14   139   138    1
    15   150   151    1
    16   132   131    2
    17   153   151   ar
    18   141   138    1
    19   141   142    1
    20   151   152   ar
    21   138   137    1
    22   181   180    1
    23   143   142    1
    24   143   144    1
    25   131   137   am
    26   131   130    1
    27   129   130    1
    28   145   144    1
    29   130   133    1
    30   180   179    1
    31   179   178    1
    32   167   166    1
    33   166   163    1
    34    16    15    1
    35   133   134    1
    36    10     9    2
    37     4     3    2
    38   163   162    1
    39   163   164    1
    40    12    15    1
    41    12    11    1
    42    12    13    1
    43    15    17    1
    44   178   177    1
    45     9    11   am
    46     9     8    1
    47    14    13    2
    48   177   174    1
    49   134   135    2
    50   134   136   am
    51    13    18   am
    52     8     7    1
    53     3     7   am
    54     3     2    1
    55   164   168   am
    56   164   165    2
    57     1     2    1
    58   175   174    1
    59   175   176    2
    60   174   173    1
    61   168   169    1
    62   173   170   am
    63     2     5    1
    64    18    19    1
    65    86    84   ar
    66    86    87   ar
    67    69    67    1
    68    84    82   ar
    69     5     6    1
    70    67    68    1
    71    67    64    1
    72    54    53   ar
    73    54    52   ar
    74    53    51   ar
    75    66    65    2
    76    19    20    1
    77    87    85   ar
    78    82    81    1
    79    82    83   ar
    80    81    78    1
    81   170   169    1
    82   170   171    2
    83   169   172    1
    84   119   118    2
    85    52    50   ar
    86    64    65    1
    87    64    63    1
    88    51    49   ar
    89    65    70   am
    90    20    21    2
    91    20    22   am
    92    85    83   ar
    93    30    29    1
    94   118   120   am
    95   118   117    1
    96   121   122    1
    97   121   120    1
    98   121   124    1
    99    77    78    1
   100    77    72   am
   101    78    79    1
   102    50    49   ar
   103    49    48    1
   104    22    23    1
   105   125   124    1
   106   125   126    1
   107   122   123    2
   108   117   116    1
   109    70    71    1
   110    63    57   am
   111    27    28    1
   112    27    26    1
   113    71    72    1
   114    71    74    1
   115    72    73    2
   116    58    57    2
   117   128   126   am
   118    28    29    1
   119   126   127    2
   120    42    43    1
   121    42    39    1
   122    57    56    1
   123    80    79    2
   124    48    45    1
   125    79    88   am
   126    23    26    1
   127    23    24    1
   128   101   100    1
   129    75    74    1
   130    74    76    1
   131   100    97    1
   132    47    46    2
   133    88    89    1
   134    56    55    1
   135    56    59    1
   136    46    55   am
   137    46    45    1
   138    39    40    1
   139    39    38    1
   140    40    41    2
   141    24    31   am
   142    24    25    2
   143    45    44    1
   144    38    33   am
   145    31    32    1
   146    97    96    1
   147    97    98    1
   148    96    90   am
   149    89    90    1
   150    89    92    1
   151    59    60    1
   152    90    91    2
   153   115   113    1
   154   112   111    2
   155    33    32    1
   156    33    34    2
   157    32    35    1
   158    35    36    1
   159    35    37    1
   160    98   102   am
   161    98    99    2
   162   102   103    1
   163    61    60    2
   164    93    92    1
   165    93    95    1
   166   113   110    1
   167   113   114    1
   168   111   110    1
   169    60    62   am
   170    92    94    1
   171   107   106    1
   172   105   104    2
   173   110   109    1
   174   106   103    1
   175   106   108    1
   176   103   104    1
