@<TRIPOS>MOLECULE
tmp/5sztA00.pdb
 256 246 0 0 0
SMALL
GASTEIGER

@<TRIPOS>ATOM
      1  N         24.4060   -7.2110   10.9850 N.3   228  GLU228     -0.1245
      2  CA        23.2970   -6.4110   10.4760 C.3   228  GLU228      0.1567
      3  C         22.3260   -6.0670   11.5990 C.2   228  GLU228      0.2260
      4  O         21.9110   -4.9130   11.7510 O.2   228  GLU228     -0.2867
      5  CB        22.5720   -7.1620    9.3560 C.3   228  GLU228      0.0388
      6  CG        23.4000   -7.3970    8.0970 C.3   228  GLU228      0.1160
      7  CD        23.4570   -6.1890    7.1870 C.2   228  GLU228      0.3649
      8  OE1       23.2730   -5.0580    7.6830 O.co2 228  GLU228     -0.2457
      9  OE2       23.6940   -6.3720    5.9720 O.co2 228  GLU228     -0.2457
     10  N         24.1130  -30.1380  -11.0970 N.3   281  ARG281     -0.1245
     11  CA        24.8350  -28.9290  -11.4500 C.3   281  ARG281      0.1563
     12  C         26.3110  -29.2320  -11.6560 C.2   281  ARG281      0.2260
     13  O         26.8530  -30.1960  -11.1090 O.2   281  ARG281     -0.2867
     14  CB        24.6930  -27.8790  -10.3510 C.3   281  ARG281      0.0307
     15  CG        23.4340  -27.0510  -10.3970 C.3   281  ARG281      0.0489
     16  CD        23.5910  -25.8540   -9.4850 C.3   281  ARG281      0.2205
     17  NE        22.4970  -24.9000   -9.6140 N.pl3 281  ARG281     -0.0865
     18  CZ        22.4220  -23.7630   -8.9330 C.cat 281  ARG281      0.5346
     19  NH1       23.3760  -23.4370   -8.0700 N.pl3 281  ARG281      0.1354
     20  NH2       21.3910  -22.9480   -9.1150 N.pl3 281  ARG281      0.1354
     21  N         27.5980   -8.2430   -6.7570 N.3   295  ARG295     -0.1245
     22  CA        26.5850   -7.5320   -5.9760 C.3   295  ARG295      0.1563
     23  C         27.0030   -6.0950   -5.6680 C.2   295  ARG295      0.2260
     24  O         26.2440   -5.1520   -5.9180 O.2   295  ARG295     -0.2867
     25  CB        26.2920   -8.2860   -4.6750 C.3   295  ARG295      0.0307
     26  CG        25.2680   -7.5820   -3.7830 C.3   295  ARG295      0.0489
     27  CD        25.1450   -8.2130   -2.4050 C.3   295  ARG295      0.2205
     28  NE        24.3340   -7.3750   -1.5230 N.pl3 295  ARG295     -0.0865
     29  CZ        24.0640   -7.6550   -0.2510 C.cat 295  ARG295      0.5346
     30  NH1       23.3200   -6.8220    0.4640 N.pl3 295  ARG295      0.1354
     31  NH2       24.5340   -8.7630    0.3080 N.pl3 295  ARG295      0.1354
     32  N         21.7860  -15.5510  -20.0190 N.3   318  ASP318     -0.1225
     33  CA        21.3060  -15.9600  -18.7010 C.3   318  ASP318      0.1805
     34  C         19.8160  -16.2530  -18.7970 C.2   318  ASP318      0.2598
     35  O         19.0380  -15.3770  -19.1880 O.2   318  ASP318     -0.2718
     36  CB        21.5850  -14.8600  -17.6680 C.3   318  ASP318      0.1424
     37  CG        21.2460  -15.2740  -16.2420 C.2   318  ASP318      0.3668
     38  OD1       20.1550  -15.8370  -16.0100 O.co2 318  ASP318     -0.2456
     39  OD2       22.0790  -15.0140  -15.3510 O.co2 318  ASP318     -0.2456
     40  N         19.4210  -17.4780  -18.4510 N.am  319  TYR319     -0.1962
     41  CA        18.0090  -17.8430  -18.4870 C.3   319  TYR319      0.1771
     42  C         17.2070  -16.9670  -17.5320 C.2   319  TYR319      0.2620
     43  O         17.6490  -16.6590  -16.4220 O.2   319  TYR319     -0.2715
     44  CB        17.8170  -19.3150  -18.1130 C.3   319  TYR319      0.0574
     45  CG        18.1080  -20.3100  -19.2150 C.ar  319  TYR319     -0.0198
     46  CD1       17.2230  -20.4880  -20.2720 C.ar  319  TYR319     -0.0009
     47  CD2       19.2530  -21.0960  -19.1830 C.ar  319  TYR319     -0.0009
     48  CE1       17.4810  -21.4070  -21.2760 C.ar  319  TYR319      0.0417
     49  CE2       19.5170  -22.0180  -20.1800 C.ar  319  TYR319      0.0417
     50  CZ        18.6300  -22.1680  -21.2220 C.ar  319  TYR319      0.1957
     51  OH        18.8900  -23.0850  -22.2150 O.3   319  TYR319     -0.2866
     52  N         16.0170  -16.5710  -17.9710 N.am  320  SER320     -0.1936
     53  CA        15.1250  -15.7660  -17.1480 C.3   320  SER320      0.2055
     54  C         14.3490  -16.6520  -16.1810 C.2   320  SER320      0.2643
     55  O         13.7140  -17.6260  -16.5950 O.2   320  SER320     -0.2714
     56  CB        14.1570  -14.9840  -18.0350 C.3   320  SER320      0.2130
     57  OG        13.0940  -14.4340  -17.2770 O.3   320  SER320     -0.2179
     58  N         14.4100  -16.3160  -14.8900 N.am  321  GLN321     -0.1963
     59  CA        13.5640  -16.9340  -13.8640 C.3   321  GLN321      0.1733
     60  C         13.5350  -18.4550  -14.0010 C.2   321  GLN321      0.2616
     61  O         12.4830  -19.0910  -13.9130 O.2   321  GLN321     -0.2715
     62  CB        12.1420  -16.3780  -13.9330 C.3   321  GLN321      0.0408
     63  CG        12.0350  -14.8660  -13.9320 C.3   321  GLN321      0.0908
     64  CD        10.6020  -14.3990  -14.1010 C.2   321  GLN321      0.2608
     65  OE1        9.8770  -14.2190  -13.1210 O.2   321  GLN321     -0.2717
     66  NE2       10.1820  -14.2090  -15.3500 N.am  321  GLN321     -0.0878
     67  N         14.7090  -19.0510  -14.2090 N.am  322  ILE322     -0.1963
     68  CA        14.7420  -20.3800  -14.8170 C.3   322  ILE322      0.1727
     69  C         14.0230  -21.4010  -13.9400 C.2   322  ILE322      0.2616
     70  O         13.1280  -22.1150  -14.4060 O.2   322  ILE322     -0.2715
     71  CB        16.1900  -20.8020  -15.1410 C.3   322  ILE322      0.0290
     72  CG1       16.2060  -22.1800  -15.8160 C.3   322  ILE322      0.0022
     73  CG2       17.0800  -20.8010  -13.9060 C.3   322  ILE322      0.0023
     74  CD1       15.4020  -22.2490  -17.1030 C.3   322  ILE322      0.0001
     75  N         14.3830  -21.4860  -12.6580 N.am  323  GLU323     -0.1977
     76  CA        13.7950  -22.5440  -11.8420 C.3   323  GLU323      0.1602
     77  C         12.3180  -22.2950  -11.5510 C.2   323  GLU323      0.2287
     78  O         11.5920  -23.2530  -11.2640 O.2   323  GLU323     -0.2864
     79  CB        14.6030  -22.7360  -10.5530 C.3   323  GLU323      0.0415
     80  CG        15.8060  -23.6680  -10.7940 C.3   323  GLU323      0.1163
     81  CD        16.7620  -23.7910   -9.6200 C.2   323  GLU323      0.3649
     82  OE1       16.2990  -23.8550   -8.4610 O.co2 323  GLU323     -0.2457
     83  OE2       17.9880  -23.8120   -9.8650 O.co2 323  GLU323     -0.2457
     84  N         10.2880  -11.9120   -9.9980 N.3   347  HIS347     -0.1241
     85  CA        11.3330  -11.2600   -9.2180 C.3   347  HIS347      0.1621
     86  C         11.0960   -9.7580   -9.1360 C.2   347  HIS347      0.2264
     87  O         11.2470   -9.1560   -8.0680 O.2   347  HIS347     -0.2867
     88  CB        12.7020  -11.5620   -9.8240 C.3   347  HIS347      0.0745
     89  CG        13.0560  -13.0160   -9.8200 C.ar  347  HIS347      0.0817
     90  ND1       12.6260  -13.8830   -8.8390 N.ar  347  HIS347     -0.2268
     91  CD2       13.7890  -13.7600  -10.6830 C.ar  347  HIS347      0.1154
     92  CE1       13.0860  -15.0950   -9.0910 C.ar  347  HIS347      0.1986
     93  NE2       13.7970  -15.0480  -10.2030 N.ar  347  HIS347     -0.2212
     94  N          8.3190   -5.7310   -2.0300 N.3   354  MET354     -0.1230
     95  CA         9.2340   -5.6220   -0.8960 C.3   354  MET354      0.1702
     96  C          9.5810   -4.1740   -0.5860 C.2   354  MET354      0.2592
     97  O          9.6230   -3.7730    0.5830 O.2   354  MET354     -0.2718
     98  CB        10.5130   -6.4060   -1.1850 C.3   354  MET354      0.0401
     99  CG        10.4000   -7.8980   -0.9640 C.3   354  MET354      0.0596
    100  SD        11.8260   -8.7890   -1.6110 S.3   354  MET354     -0.1393
    101  CE        13.1780   -7.9620   -0.7790 C.3   354  MET354      0.0692
    102  N          9.8380   -3.3760   -1.6180 N.am  355  PHE355     -0.1976
    103  CA        10.3710   -2.0320   -1.4490 C.3   355  PHE355      0.1639
    104  C          9.3220   -0.9400   -1.6070 C.2   355  PHE355      0.2290
    105  O          9.6650    0.2410   -1.5090 O.2   355  PHE355     -0.2864
    106  CB        11.5100   -1.8020   -2.4470 C.3   355  PHE355      0.0560
    107  CG        12.7260   -2.6460   -2.1820 C.ar  355  PHE355     -0.0200
    108  CD1       12.7950   -3.9520   -2.6380 C.ar  355  PHE355     -0.0042
    109  CD2       13.7980   -2.1320   -1.4740 C.ar  355  PHE355     -0.0042
    110  CE1       13.9130   -4.7280   -2.3940 C.ar  355  PHE355     -0.0003
    111  CE2       14.9170   -2.9030   -1.2260 C.ar  355  PHE355     -0.0003
    112  CZ        14.9740   -4.2030   -1.6870 C.ar  355  PHE355     -0.0000
    113  N         19.7870   -4.2410   -7.7060 N.3   365  LEU365     -0.1245
    114  CA        20.0280   -4.7200   -6.3470 C.3   365  LEU365      0.1561
    115  C         18.7230   -5.1170   -5.6690 C.2   365  LEU365      0.2260
    116  O         18.6860   -6.0830   -4.8990 O.2   365  LEU365     -0.2867
    117  CB        20.7590   -3.6540   -5.5290 C.3   365  LEU365      0.0270
    118  CG        21.3120   -4.1290   -4.1810 C.3   365  LEU365      0.0019
    119  CD1       22.4450   -5.1360   -4.3710 C.3   365  LEU365      0.0001
    120  CD2       21.7810   -2.9490   -3.3430 C.3   365  LEU365      0.0001
    121  N         16.1040   -6.3470   -7.2640 N.3   367  ARG367     -0.1231
    122  CA        15.6830   -7.6080   -7.8630 C.3   367  ARG367      0.1694
    123  C         16.4570   -8.7820   -7.2750 C.2   367  ARG367      0.2592
    124  O         15.8960   -9.8650   -7.0770 O.2   367  ARG367     -0.2718
    125  CB        15.8510   -7.5490   -9.3820 C.3   367  ARG367      0.0321
    126  CG        15.1220   -8.6610  -10.1180 C.3   367  ARG367      0.0489
    127  CD        14.8810   -8.3060  -11.5790 C.3   367  ARG367      0.2205
    128  NE        14.2080   -9.3860  -12.2960 N.pl3 367  ARG367     -0.0865
    129  CZ        14.8130  -10.4910  -12.7170 C.cat 367  ARG367      0.5346
    130  NH1       16.1080  -10.6680  -12.4890 N.pl3 367  ARG367      0.1354
    131  NH2       14.1260  -11.4240  -13.3600 N.pl3 367  ARG367      0.1354
    132  N         17.7450   -8.5800   -6.9860 N.am  368  ARG368     -0.1966
    133  CA        18.5380   -9.6190   -6.3360 C.3   368  ARG368      0.1729
    134  C         17.9500   -9.9880   -4.9800 C.2   368  ARG368      0.2616
    135  O         17.8400  -11.1720   -4.6410 O.2   368  ARG368     -0.2715
    136  CB        19.9850   -9.1430   -6.1960 C.3   368  ARG368      0.0348
    137  CG        20.6940   -8.9970   -7.5310 C.3   368  ARG368      0.0492
    138  CD        22.2000   -8.8520   -7.3900 C.3   368  ARG368      0.2205
    139  NE        22.8670   -9.2870   -8.6160 N.pl3 368  ARG368     -0.0865
    140  CZ        23.2760  -10.5300   -8.8520 C.cat 368  ARG368      0.5346
    141  NH1       23.1060  -11.4790   -7.9400 N.pl3 368  ARG368      0.1354
    142  NH2       23.8600  -10.8280  -10.0040 N.pl3 368  ARG368      0.1354
    143  N         17.5690   -8.9820   -4.1930 N.am  369  ALA369     -0.1977
    144  CA        16.8920   -9.2280   -2.9260 C.3   369  ALA369      0.1597
    145  C         15.6250  -10.0410   -3.1380 C.2   369  ALA369      0.2287
    146  O         15.3510  -10.9920   -2.3970 O.2   369  ALA369     -0.2864
    147  CB        16.5600   -7.8950   -2.2520 C.3   369  ALA369      0.0319
    148  N         14.9570  -12.1450   -5.3860 N.3   371  LYS371     -0.1231
    149  CA        15.2190  -13.5170   -5.8060 C.3   371  LYS371      0.1693
    150  C         15.5340  -14.4080   -4.6110 C.2   371  LYS371      0.2592
    151  O         15.0560  -15.5460   -4.5350 O.2   371  LYS371     -0.2718
    152  CB        16.3550  -13.5310   -6.8290 C.3   371  LYS371      0.0285
    153  CG        15.9490  -12.8590   -8.1300 C.3   371  LYS371      0.0035
    154  CD        17.1200  -12.4340   -9.0030 C.3   371  LYS371      0.0206
    155  CE        17.7080  -13.6000   -9.7690 C.3   371  LYS371      0.1093
    156  NZ        18.5660  -13.1250  -10.9020 N.3   371  LYS371     -0.1314
    157  N         16.3300  -13.9090   -3.6650 N.am  372  THR372     -0.1953
    158  CA        16.5410  -14.6480   -2.4260 C.3   372  THR372      0.1897
    159  C         15.2130  -14.9230   -1.7350 C.2   372  THR372      0.2313
    160  O         14.9560  -16.0440   -1.2830 O.2   372  THR372     -0.2863
    161  CB        17.4800  -13.8710   -1.5020 C.3   372  THR372      0.1794
    162  OG1       18.6920  -13.5630   -2.2020 O.3   372  THR372     -0.2208
    163  CG2       17.8110  -14.6880   -0.2590 C.3   372  THR372      0.0378
    164  N         12.9940  -17.5320   -4.0640 N.3   375  PHE375     -0.1227
    165  CA        13.4670  -18.9090   -3.9850 C.3   375  PHE375      0.1736
    166  C         13.5770  -19.3740   -2.5380 C.2   375  PHE375      0.2596
    167  O         13.2820  -20.5360   -2.2350 O.2   375  PHE375     -0.2718
    168  CB        14.8000  -19.0460   -4.7210 C.3   375  PHE375      0.0547
    169  CG        14.6870  -18.8050   -6.2020 C.ar  375  PHE375     -0.0202
    170  CD1       13.9400  -19.6630   -6.9960 C.ar  375  PHE375     -0.0042
    171  CD2       15.3020  -17.7160   -6.7980 C.ar  375  PHE375     -0.0042
    172  CE1       13.8130  -19.4470   -8.3560 C.ar  375  PHE375     -0.0003
    173  CE2       15.1820  -17.4920   -8.1640 C.ar  375  PHE375     -0.0003
    174  CZ        14.4350  -18.3600   -8.9420 C.ar  375  PHE375     -0.0000
    175  N         13.9740  -18.4820   -1.6280 N.am  376  GLY376     -0.1957
    176  CA        13.9630  -18.8340   -0.2170 C.3   376  GLY376      0.1869
    177  C         12.6200  -19.3790    0.2260 C.2   376  GLY376      0.2309
    178  O         12.5350  -20.4490    0.8320 O.2   376  GLY376     -0.2863
    179  N         11.6210  -22.9480   -1.4960 N.3   379  TYR379     -0.1241
    180  CA        12.2960  -24.1470   -1.0290 C.3   379  TYR379      0.1605
    181  C         12.2400  -24.3120    0.4900 C.2   379  TYR379      0.2264
    182  O         12.9610  -25.1540    1.0340 O.2   379  TYR379     -0.2867
    183  CB        13.7420  -24.1410   -1.5320 C.3   379  TYR379      0.0534
    184  CG        13.8280  -24.2250   -3.0490 C.ar  379  TYR379     -0.0201
    185  CD1       13.1400  -25.2090   -3.7480 C.ar  379  TYR379     -0.0009
    186  CD2       14.5700  -23.3060   -3.7830 C.ar  379  TYR379     -0.0009
    187  CE1       13.2020  -25.2910   -5.1260 C.ar  379  TYR379      0.0417
    188  CE2       14.6400  -23.3810   -5.1680 C.ar  379  TYR379      0.0417
    189  CZ        13.9510  -24.3740   -5.8320 C.ar  379  TYR379      0.1957
    190  OH        14.0070  -24.4650   -7.2040 O.3   379  TYR379     -0.2866
    191  N         13.8430  -11.3890    7.7030 N.3   389  GLU389     -0.1231
    192  CA        14.5170  -11.0060    6.4660 C.3   389  GLU389      0.1699
    193  C         13.9730   -9.6900    5.9240 C.2   389  GLU389      0.2592
    194  O         14.7430   -8.8210    5.4990 O.2   389  GLU389     -0.2718
    195  CB        14.3660  -12.1120    5.4190 C.3   389  GLU389      0.0402
    196  CG        15.2190  -13.3460    5.6770 C.3   389  GLU389      0.1161
    197  CD        16.7020  -13.0770    5.5080 C.2   389  GLU389      0.3649
    198  OE1       17.0540  -12.0400    4.9060 O.co2 389  GLU389     -0.2457
    199  OE2       17.5140  -13.9020    5.9800 O.co2 389  GLU389     -0.2457
    200  N         12.6520   -9.5240    5.9320 N.am  390  LEU390     -0.1966
    201  CA        12.0090   -8.3510    5.3580 C.3   390  LEU390      0.1728
    202  C         11.8230   -7.2210    6.3640 C.2   390  LEU390      0.2616
    203  O         11.0880   -6.2720    6.0750 O.2   390  LEU390     -0.2715
    204  CB        10.6500   -8.7380    4.7660 C.3   390  LEU390      0.0311
    205  CG        10.6710   -9.7820    3.6470 C.3   390  LEU390      0.0022
    206  CD1        9.2560  -10.1140    3.2030 C.3   390  LEU390      0.0001
    207  CD2       11.4980   -9.2970    2.4680 C.3   390  LEU390      0.0001
    208  N         12.4730   -7.2920    7.5250 N.am  391  ALA391     -0.1977
    209  CA        12.3250   -6.2730    8.5610 C.3   391  ALA391      0.1597
    210  C         10.8470   -5.9870    8.8110 C.2   391  ALA391      0.2287
    211  O         10.4050   -4.8360    8.8550 O.2   391  ALA391     -0.2864
    212  CB        13.0730   -4.9950    8.1790 C.3   391  ALA391      0.0319
    213  N         13.8320  -29.7960   -3.7660 N.3   458  ASN458     -0.1240
    214  CA        14.6140  -28.8360   -4.5380 C.3   458  ASN458      0.1653
    215  C         15.2840  -29.5110   -5.7300 C.2   458  ASN458      0.2266
    216  O         15.3630  -28.9270   -6.8180 O.2   458  ASN458     -0.2867
    217  CB        15.6630  -28.1710   -3.6420 C.3   458  ASN458      0.1155
    218  CG        16.6930  -27.3760   -4.4290 C.2   458  ASN458      0.2627
    219  OD1       17.7410  -27.9020   -4.8190 O.2   458  ASN458     -0.2716
    220  ND2       16.4080  -26.0980   -4.6530 N.am  458  ASN458     -0.0877
    221  N         16.0910  -27.7100   -9.3660 N.3   462  GLN462     -0.1245
    222  CA        17.4550  -27.2880   -9.6720 C.3   462  GLN462      0.1566
    223  C         18.1090  -28.2310  -10.6740 C.2   462  GLN462      0.2260
    224  O         18.8400  -27.7880  -11.5690 O.2   462  GLN462     -0.2867
    225  CB        18.2820  -27.2180   -8.3870 C.3   462  GLN462      0.0367
    226  CG        19.6810  -26.6350   -8.5740 C.3   462  GLN462      0.0905
    227  CD        20.5210  -26.7030   -7.3120 C.2   462  GLN462      0.2608
    228  OE1       21.5520  -27.3760   -7.2790 O.2   462  GLN462     -0.2717
    229  NE2       20.0920  -25.9980   -6.2700 N.am  462  GLN462     -0.0878
    230  N         25.8260  -21.9700  -14.0370 N.3   492  HIS492     -0.1226
    231  CA        24.5870  -22.6200  -13.6170 C.3   492  HIS492      0.1752
    232  C         23.4240  -22.3980  -14.5780 C.2   492  HIS492      0.2596
    233  O         22.8760  -23.3690  -15.1140 O.2   492  HIS492     -0.2718
    234  CB        24.2430  -22.1660  -12.2000 C.3   492  HIS492      0.0759
    235  CG        25.3630  -22.3980  -11.2370 C.ar  492  HIS492      0.0818
    236  ND1       25.9410  -23.6370  -11.0680 N.ar  492  HIS492     -0.2268
    237  CD2       26.0440  -21.5510  -10.4290 C.ar  492  HIS492      0.1154
    238  CE1       26.9170  -23.5490  -10.1840 C.ar  492  HIS492      0.1986
    239  NE2       26.9990  -22.2940   -9.7780 N.ar  492  HIS492     -0.2212
    240  N         23.0150  -21.1490  -14.7970 N.am  493  ASP493     -0.1974
    241  CA        22.0020  -20.8610  -15.8070 C.3   493  ASP493      0.1709
    242  C         22.4840  -19.7890  -16.7750 C.2   493  ASP493      0.2293
    243  O         21.6660  -19.1490  -17.4440 O.2   493  ASP493     -0.2864
    244  CB        20.6800  -20.4420  -15.1590 C.3   493  ASP493      0.1436
    245  CG        20.6510  -18.9790  -14.7860 C.2   493  ASP493      0.3671
    246  OD1       21.7100  -18.4470  -14.3910 O.co2 493  ASP493     -0.2456
    247  OD2       19.5750  -18.3590  -14.8990 O.co2 493  ASP493     -0.2456
    248  N         18.0770  -13.6970  -21.4140 N.3   528  GLU528     -0.1245
    249  CA        18.6530  -12.3650  -21.5120 C.3   528  GLU528      0.1567
    250  C         20.0760  -12.4690  -22.0410 C.2   528  GLU528      0.2260
    251  O         20.8730  -13.2720  -21.5450 O.2   528  GLU528     -0.2867
    252  CB        18.6490  -11.6760  -20.1490 C.3   528  GLU528      0.0388
    253  CG        17.2670  -11.3300  -19.6390 C.3   528  GLU528      0.1160
    254  CD        16.6060  -10.2440  -20.4620 C.2   528  GLU528      0.3649
    255  OE1       17.1560   -9.1220  -20.5150 O.co2 528  GLU528     -0.2457
    256  OE2       15.5480  -10.5160  -21.0680 O.co2 528  GLU528     -0.2457
@<TRIPOS>BOND
     1    51    50    1
     2   250   251    2
     3   250   249    1
     4   249   248    1
     5   249   252    1
     6    48    50   ar
     7    48    46   ar
     8    50    49   ar
     9   256   254   ar
    10   255   254   ar
    11   254   253    1
    12    46    45   ar
    13    49    47   ar
    14   252   253    1
    15    32    33    1
    16    45    47   ar
    17    45    44    1
    18    35    34    2
    19    34    33    1
    20    34    40   am
    21    33    36    1
    22    41    40    1
    23    41    44    1
    24    41    42    1
    25    56    57    1
    26    56    53    1
    27    52    42   am
    28    52    53    1
    29    36    37    1
    30    42    43    2
    31   243   242    2
    32    53    54    1
    33    74    72    1
    34   242   241    1
    35    55    54    2
    36    37    38   ar
    37    37    39   ar
    38    54    58   am
    39    72    71    1
    40   241   244    1
    41   241   240    1
    42    66    64   am
    43   244   245    1
    44    71    68    1
    45    71    73    1
    46   233   232    2
    47   247   245   ar
    48    58    59    1
    49    68    67    1
    50    68    69    1
    51   240   232   am
    52   245   246   ar
    53   232   231    1
    54    70    69    2
    55    67    60   am
    56    64    63    1
    57    64    65    2
    58   230   231    1
    59    60    61    2
    60    60    59    1
    61    69    75   am
    62    62    63    1
    63    62    59    1
    64   231   234    1
    65   131   129    1
    66   129   130    1
    67   129   128    2
    68    75    76    1
    69   128   127    1
    70   234   235    1
    71    76    77    1
    72    76    79    1
    73    12    11    1
    74    12    13    2
    75   127   126    1
    76   224   223    2
    77    77    78    2
    78    11    10    1
    79    11    14    1
    80   235   236   ar
    81   235   237   ar
    82   236   238   ar
    83   156   155    1
    84    80    79    1
    85    80    81    1
    86    91    93   ar
    87    91    89   ar
    88   223   222    1
    89   237   239   ar
    90    15    14    1
    91    15    16    1
    92    93    92   ar
    93   238   239   ar
    94   126   125    1
    95   142   140    1
    96    84    85    1
    97    83    81   ar
    98    88    89    1
    99    88    85    1
   100    89    90   ar
   101   155   154    1
   102   222   221    1
   103   222   225    1
   104    81    82   ar
   105    17    16    1
   106    17    18    2
   107   125   122    1
   108    85    86    1
   109    86    87    2
   110    20    18    1
   111    92    90   ar
   112   154   153    1
   113   174   172   ar
   114   174   173   ar
   115    18    19    1
   116   140   139    2
   117   140   141    1
   118   139   138    1
   119   226   225    1
   120   226   227    1
   121   172   170   ar
   122   173   171   ar
   123   153   152    1
   124   122   123    1
   125   122   121    1
   126   113   114    1
   127   137   138    1
   128   137   136    1
   129   227   228    2
   130   227   229   am
   131   123   124    2
   132   123   132   am
   133   190   189    1
   134   170   169   ar
   135   132   133    1
   136   152   149    1
   137   216   215    2
   138   171   169   ar
   139    21    22    1
   140   114   115    1
   141   114   117    1
   142   133   136    1
   143   133   134    1
   144   169   168    1
   145    22    23    1
   146    22    25    1
   147    24    23    2
   148   189   188   ar
   149   189   187   ar
   150   149   148    1
   151   149   150    1
   152   215   214    1
   153   115   116    2
   154   117   118    1
   155   188   186   ar
   156   187   185   ar
   157   134   135    2
   158   134   143   am
   159   219   218    2
   160   168   165    1
   161    25    26    1
   162   220   218   am
   163   150   151    2
   164   150   157   am
   165   214   213    1
   166   214   217    1
   167   218   217    1
   168   119   118    1
   169   143   144    1
   170   118   120    1
   171   164   165    1
   172   165   166    1
   173    26    27    1
   174   186   184   ar
   175   185   184   ar
   176   157   158    1
   177   145   144    1
   178   145   146    2
   179   184   183    1
   180   144   147    1
   181   108   110   ar
   182   108   107   ar
   183   166   167    2
   184   166   175   am
   185   106   107    1
   186   106   103    1
   187   158   159    1
   188   158   161    1
   189    27    28    1
   190   110   112   ar
   191   162   161    1
   192   107   109   ar
   193    94    95    1
   194   159   160    2
   195   112   111   ar
   196   175   176    1
   197   102   103    1
   198   102    96   am
   199   100    99    1
   200   100   101    1
   201   104   105    2
   202   104   103    1
   203   183   180    1
   204    28    29    2
   205   161   163    1
   206   179   180    1
   207   109   111   ar
   208    98    99    1
   209    98    95    1
   210   180   181    1
   211    95    96    1
   212    96    97    2
   213    29    31    1
   214    29    30    1
   215   176   177    1
   216   177   178    2
   217   181   182    2
   218   207   205    1
   219   206   205    1
   220   205   204    1
   221   204   201    1
   222   198   197   ar
   223   201   200    1
   224   201   202    1
   225   195   196    1
   226   195   192    1
   227   194   193    2
   228   197   196    1
   229   197   199   ar
   230   193   200   am
   231   193   192    1
   232     9     7   ar
   233   203   202    2
   234   202   208   am
   235   192   191    1
   236     7     8   ar
   237     7     6    1
   238   208   209    1
   239     6     5    1
   240   212   209    1
   241   209   210    1
   242   210   211    2
   243     5     2    1
   244     2     1    1
   245     2     3    1
   246     3     4    2
