@<TRIPOS>MOLECULE
tmp/5t07B00.pdb
 107 109 0 0 0
SMALL
GASTEIGER

@<TRIPOS>ATOM
      1  N          1.0010  -15.7020   13.0070 N.3    15  ALA15      -0.1231
      2  CA         1.3330  -14.4750   13.7210 C.3    15  ALA15       0.1694
      3  C          0.5100  -13.3280   13.1640 C.2    15  ALA15       0.2592
      4  O         -0.0820  -13.4230   12.0880 O.2    15  ALA15      -0.2718
      5  CB         2.8250  -14.1350   13.5960 C.3    15  ALA15       0.0304
      6  N          0.4940  -12.2260   13.9140 N.am   16  ALA16      -0.1966
      7  CA        -0.0980  -10.9940   13.4210 C.3    16  ALA16       0.1728
      8  C          0.5170  -10.6290   12.0760 C.2    16  ALA16       0.2616
      9  O          1.7280  -10.7470   11.8860 O.2    16  ALA16      -0.2715
     10  CB         0.1350   -9.8730   14.4360 C.3    16  ALA16       0.0334
     11  N         -0.3210  -10.1950   11.1370 N.am   17  GLY17      -0.1955
     12  CA         0.0880  -10.0390    9.7600 C.3    17  GLY17       0.1869
     13  C         -0.3470  -11.1760    8.8570 C.2    17  GLY17       0.2309
     14  O         -0.3320  -11.0160    7.6310 O.2    17  GLY17      -0.2863
     15  N          0.6190  -14.6180    8.4930 N.3    19  VAL19      -0.1231
     16  CA         1.4730  -15.6680    7.9530 C.3    19  VAL19       0.1692
     17  C          1.9460  -16.5360    9.1060 C.2    19  VAL19       0.2592
     18  O          1.8580  -16.1580   10.2720 O.2    19  VAL19      -0.2718
     19  CB         2.6860  -15.1190    7.1720 C.3    19  VAL19       0.0266
     20  CG1        2.2330  -14.2220    6.0280 C.3    19  VAL19       0.0020
     21  CG2        3.6490  -14.4100    8.1130 C.3    19  VAL19       0.0020
     22  N          2.4820  -17.7080    8.7580 N.am   20  VAL20      -0.1966
     23  CA         3.0160  -18.6080    9.7720 C.3    20  VAL20       0.1727
     24  C          4.2990  -18.0280   10.3630 C.2    20  VAL20       0.2616
     25  O          5.1740  -17.5050    9.6500 O.2    20  VAL20      -0.2715
     26  CB         3.2390  -20.0080    9.1730 C.3    20  VAL20       0.0290
     27  CG1        4.0910  -20.8700   10.0890 C.3    20  VAL20       0.0023
     28  CG2        1.8750  -20.6890    8.9390 C.3    20  VAL20       0.0023
     29  N          4.4050  -18.1100   11.6830 N.am   21  TYR21      -0.1960
     30  CA         5.5740  -17.6240   12.4030 C.3    21  TYR21       0.1771
     31  C          6.7930  -18.4790   12.0600 C.2    21  TYR21       0.2619
     32  O          6.6970  -19.7020   11.9410 O.2    21  TYR21      -0.2715
     33  CB         5.2720  -17.6590   13.9070 C.3    21  TYR21       0.0574
     34  CG         6.3640  -17.1180   14.7960 C.ar   21  TYR21      -0.0198
     35  CD1        6.6640  -15.7600   14.8180 C.ar   21  TYR21      -0.0009
     36  CD2        7.0720  -17.9610   15.6300 C.ar   21  TYR21      -0.0009
     37  CE1        7.6680  -15.2700   15.6420 C.ar   21  TYR21       0.0417
     38  CE2        8.0860  -17.4810   16.4520 C.ar   21  TYR21       0.0417
     39  CZ         8.3660  -16.1390   16.4630 C.ar   21  TYR21       0.1957
     40  OH         9.3660  -15.6730   17.2840 O.3    21  TYR21      -0.2866
     41  N          7.9580  -17.8360   11.9130 N.am   22  HIS22      -0.1973
     42  CA         9.0930  -18.5490   11.3210 C.3    22  HIS22       0.1656
     43  C          9.5440  -19.7430   12.1590 C.2    22  HIS22       0.2291
     44  O          9.9740  -20.7610   11.5970 O.2    22  HIS22      -0.2864
     45  CB        10.2520  -17.5770   11.0610 C.3    22  HIS22       0.0771
     46  CG        10.8980  -17.0410   12.3000 C.ar   22  HIS22       0.0820
     47  ND1       10.2140  -16.3040   13.2430 N.ar   22  HIS22      -0.2267
     48  CD2       12.1840  -17.0950   12.7250 C.ar   22  HIS22       0.1154
     49  CE1       11.0440  -15.9510   14.2100 C.ar   22  HIS22       0.1986
     50  NE2       12.2480  -16.4100   13.9150 N.ar   22  HIS22      -0.2212
     51  N          7.7440  -23.3330   11.4880 N.3    25  TYR25      -0.1241
     52  CA         8.2680  -24.2400   10.4740 C.3    25  TYR25       0.1605
     53  C          9.3040  -25.1800   11.0680 C.2    25  TYR25       0.2264
     54  O          9.3900  -26.3510   10.6790 O.2    25  TYR25      -0.2867
     55  CB         8.8960  -23.4630    9.3230 C.3    25  TYR25       0.0534
     56  CG         7.9700  -22.5940    8.5050 C.ar   25  TYR25      -0.0201
     57  CD1        7.2760  -23.1030    7.4120 C.ar   25  TYR25      -0.0009
     58  CD2        7.8290  -21.2390    8.7970 C.ar   25  TYR25      -0.0009
     59  CE1        6.4640  -22.2890    6.6320 C.ar   25  TYR25       0.0417
     60  CE2        7.0200  -20.4290    8.0310 C.ar   25  TYR25       0.0417
     61  CZ         6.3380  -20.9480    6.9560 C.ar   25  TYR25       0.1957
     62  OH         5.5500  -20.1090    6.1980 O.3    25  TYR25      -0.2866
     63  N         15.3130  -21.9400    4.4750 N.3    62  GLU62      -0.1231
     64  CA        14.9900  -20.9450    3.4540 C.3    62  GLU62       0.1699
     65  C         13.4860  -20.7200    3.4390 C.2    62  GLU62       0.2592
     66  O         12.7230  -21.6750    3.2840 O.2    62  GLU62      -0.2718
     67  CB        15.4340  -21.4050    2.0620 C.3    62  GLU62       0.0402
     68  CG        16.9030  -21.7570    1.9490 C.3    62  GLU62       0.1161
     69  CD        17.6710  -20.7870    1.0760 C.2    62  GLU62       0.3649
     70  OE1       17.1120  -19.7370    0.7060 O.co2  62  GLU62      -0.2457
     71  OE2       18.8370  -21.0850    0.7600 O.co2  62  GLU62      -0.2457
     72  N         13.0630  -19.4520    3.5640 N.am   63  TYR63      -0.1962
     73  CA        11.6470  -19.0780    3.5910 C.3    63  TYR63       0.1771
     74  C         11.3130  -18.3840    2.2680 C.2    63  TYR63       0.2620
     75  O         11.5810  -17.1930    2.1020 O.2    63  TYR63      -0.2715
     76  CB        11.3440  -18.1690    4.7910 C.3    63  TYR63       0.0574
     77  CG        11.6860  -18.7380    6.1660 C.ar   63  TYR63      -0.0198
     78  CD1       10.6980  -19.2670    6.9790 C.ar   63  TYR63      -0.0009
     79  CD2       12.9950  -18.7220    6.6500 C.ar   63  TYR63      -0.0009
     80  CE1       10.9860  -19.7760    8.2270 C.ar   63  TYR63       0.0417
     81  CE2       13.2930  -19.2280    7.9010 C.ar   63  TYR63       0.0417
     82  CZ        12.2780  -19.7520    8.6840 C.ar   63  TYR63       0.1957
     83  OH        12.5540  -20.2570    9.9260 O.3    63  TYR63      -0.2866
     84  N         10.7260  -19.1320    1.3270 N.am   64  TYR64      -0.1960
     85  CA        10.4700  -18.6480   -0.0280 C.3    64  TYR64       0.1771
     86  C          9.1250  -17.9540   -0.1820 C.2    64  TYR64       0.2619
     87  O          9.0080  -16.9790   -0.9380 O.2    64  TYR64      -0.2715
     88  CB        10.5170  -19.8150   -1.0170 C.3    64  TYR64       0.0574
     89  CG        11.8200  -20.5590   -1.0440 C.ar   64  TYR64      -0.0198
     90  CD1       13.0270  -19.8890   -1.2120 C.ar   64  TYR64      -0.0009
     91  CD2       11.8480  -21.9440   -0.9290 C.ar   64  TYR64      -0.0009
     92  CE1       14.2300  -20.5860   -1.2610 C.ar   64  TYR64       0.0417
     93  CE2       13.0330  -22.6300   -0.9720 C.ar   64  TYR64       0.0417
     94  CZ        14.2200  -21.9490   -1.1290 C.ar   64  TYR64       0.1957
     95  OH        15.4020  -22.6510   -1.1680 O.3    64  TYR64      -0.2866
     96  N          8.0940  -18.4720    0.4830 N.am   65  ALA65      -0.1964
     97  CA         6.7480  -17.9250    0.3940 C.3    65  ALA65       0.1713
     98  C          5.9820  -18.3710    1.6300 C.2    65  ALA65       0.2458
     99  O          6.3180  -19.4070    2.2140 O.2    65  ALA65      -0.2730
    100  CB         6.0390  -18.3910   -0.8870 C.3    65  ALA65       0.0333
    101  N          4.9910  -17.6120    2.0720 N.am   66  PRO66      -0.2727
    102  CA         4.3590  -17.9180    3.3600 C.3    66  PRO66       0.1402
    103  C          3.2890  -18.9980    3.2830 C.2    66  PRO66       0.2269
    104  O          2.5750  -19.1510    2.2860 O.2    66  PRO66      -0.2865
    105  CB         3.7330  -16.5790    3.7610 C.3    66  PRO66       0.0296
    106  CG         3.4220  -15.9200    2.4390 C.3    66  PRO66       0.0237
    107  CD         4.5830  -16.2950    1.5500 C.3    66  PRO66       0.0939
@<TRIPOS>BOND
     1    92    90   ar
     2    92    94   ar
     3    90    89   ar
     4    95    94    1
     5    94    93   ar
     6    89    88    1
     7    89    91   ar
     8    88    85    1
     9    93    91   ar
    10    87    86    2
    11   100    97    1
    12    86    85    1
    13    86    96   am
    14    85    84    1
    15    97    96    1
    16    97    98    1
    17    70    69   ar
    18    71    69   ar
    19    69    68    1
    20    84    74   am
    21   107   101    1
    22   107   106    1
    23    98   101   am
    24    98    99    2
    25    68    67    1
    26    67    64    1
    27   101   102    1
    28    75    74    2
    29    74    73    1
    30   104   103    2
    31   106   105    1
    32   103   102    1
    33    66    65    2
    34   102   105    1
    35    65    64    1
    36    65    72   am
    37    64    63    1
    38    72    73    1
    39    73    76    1
    40    76    77    1
    41    20    19    1
    42    77    79   ar
    43    77    78   ar
    44    62    61    1
    45    59    61   ar
    46    59    57   ar
    47    79    81   ar
    48    61    60   ar
    49    78    80   ar
    50    19    16    1
    51    19    21    1
    52    57    56   ar
    53    14    13    2
    54    81    82   ar
    55    16    15    1
    56    16    17    1
    57    60    58   ar
    58    80    82   ar
    59    56    58   ar
    60    56    55    1
    61    82    83    1
    62    22    17   am
    63    22    23    1
    64    13    12    1
    65    28    26    1
    66    17    18    2
    67    26    23    1
    68    26    27    1
    69    55    52    1
    70    25    24    2
    71    12    11    1
    72    23    24    1
    73    24    29   am
    74    52    53    1
    75    52    51    1
    76    54    53    2
    77    45    42    1
    78    45    46    1
    79    11     8   am
    80    42    41    1
    81    42    43    1
    82    44    43    2
    83    29    30    1
    84     9     8    2
    85    41    31   am
    86    32    31    2
    87    31    30    1
    88     8     7    1
    89     4     3    2
    90    46    48   ar
    91    46    47   ar
    92    30    33    1
    93    48    50   ar
    94     1     2    1
    95     3     2    1
    96     3     6   am
    97    47    49   ar
    98     7     6    1
    99     7    10    1
   100     5     2    1
   101    33    34    1
   102    50    49   ar
   103    34    35   ar
   104    34    36   ar
   105    35    37   ar
   106    36    38   ar
   107    37    39   ar
   108    38    39   ar
   109    39    40    1
