@<TRIPOS>MOLECULE
tmp/5t07A01.pdb
 105 99 0 0 0
SMALL
GASTEIGER

@<TRIPOS>ATOM
      1  N         -8.1970  -26.0730   20.7580 N.3    31  GLU31      -0.1245
      2  CA        -8.4810  -25.1410   19.6660 C.3    31  GLU31       0.1567
      3  C         -8.4340  -25.8500   18.3150 C.2    31  GLU31       0.2260
      4  O         -9.3030  -25.6220   17.4590 O.2    31  GLU31      -0.2867
      5  CB        -7.4850  -23.9770   19.6960 C.3    31  GLU31       0.0388
      6  CG        -7.8290  -22.7820   18.7830 C.3    31  GLU31       0.1160
      7  CD        -7.7400  -23.0710   17.2940 C.2    31  GLU31       0.3649
      8  OE1       -6.7770  -23.7430   16.8550 O.co2  31  GLU31      -0.2457
      9  OE2       -8.6580  -22.6310   16.5600 O.co2  31  GLU31      -0.2457
     10  N        -11.7240  -27.6920   17.7790 N.3    34  ARG34      -0.1245
     11  CA       -12.8400  -26.8260   17.4040 C.3    34  ARG34       0.1563
     12  C        -12.7140  -26.4060   15.9500 C.2    34  ARG34       0.2260
     13  O        -13.7060  -26.3900   15.2080 O.2    34  ARG34      -0.2867
     14  CB       -12.9170  -25.5880   18.3140 C.3    34  ARG34       0.0307
     15  CG       -13.1840  -25.8960   19.8000 C.3    34  ARG34       0.0489
     16  CD       -13.5320  -24.6480   20.6280 C.3    34  ARG34       0.2205
     17  NE       -12.4730  -23.6470   20.6060 N.pl3  34  ARG34      -0.0865
     18  CZ       -11.4040  -23.6460   21.4010 C.cat  34  ARG34       0.5346
     19  NH1      -11.2240  -24.6100   22.3030 N.pl3  34  ARG34       0.1354
     20  NH2      -10.5150  -22.6600   21.2990 N.pl3  34  ARG34       0.1354
     21  N        -12.5210  -14.6540    7.9510 N.3    49  MET49      -0.1245
     22  CA       -11.8470  -13.3910    8.2160 C.3    49  MET49       0.1570
     23  C        -12.0750  -12.3950    7.0830 C.2    49  MET49       0.2261
     24  O        -12.3310  -11.2090    7.3290 O.2    49  MET49      -0.2867
     25  CB       -10.3520  -13.6420    8.4210 C.3    49  MET49       0.0387
     26  CG        -9.6510  -12.4960    9.0860 C.3    49  MET49       0.0595
     27  SD        -9.9850  -12.5540   10.8440 S.3    49  MET49      -0.1393
     28  CE        -8.8770  -13.9080   11.3250 C.3    49  MET49       0.0692
     29  N        -15.1540  -13.5840   12.7580 N.3    54  ALA54      -0.1231
     30  CA       -14.1170  -14.2990   13.4860 C.3    54  ALA54       0.1694
     31  C        -14.7000  -14.8110   14.7950 C.2    54  ALA54       0.2592
     32  O        -15.7890  -14.4090   15.2120 O.2    54  ALA54      -0.2718
     33  CB       -12.8930  -13.4100   13.7350 C.3    54  ALA54       0.0304
     34  N        -13.9700  -15.7310   15.4260 N.am   55  PHE55      -0.1962
     35  CA       -14.3750  -16.3350   16.6930 C.3    55  PHE55       0.1771
     36  C        -13.2560  -16.1850   17.7100 C.2    55  PHE55       0.2619
     37  O        -12.1140  -16.5770   17.4420 O.2    55  PHE55      -0.2715
     38  CB       -14.7280  -17.8250   16.5150 C.3    55  PHE55       0.0574
     39  CG       -15.8430  -18.0490   15.5420 C.ar   55  PHE55      -0.0200
     40  CD1      -17.1560  -17.7770   15.9010 C.ar   55  PHE55      -0.0042
     41  CD2      -15.5790  -18.4890   14.2590 C.ar   55  PHE55      -0.0042
     42  CE1      -18.1930  -17.9640   14.9960 C.ar   55  PHE55      -0.0003
     43  CE2      -16.6100  -18.6750   13.3530 C.ar   55  PHE55      -0.0003
     44  CZ       -17.9120  -18.4080   13.7190 C.ar   55  PHE55      -0.0000
     45  N        -13.5860  -15.6260   18.8770 N.am   56  VAL56      -0.1963
     46  CA       -12.6140  -15.4440   19.9440 C.3    56  VAL56       0.1727
     47  C        -13.0800  -16.1680   21.1960 C.2    56  VAL56       0.2616
     48  O        -14.2810  -16.3360   21.4360 O.2    56  VAL56      -0.2715
     49  CB       -12.3590  -13.9520   20.2420 C.3    56  VAL56       0.0290
     50  CG1      -11.7440  -13.3070   19.0210 C.3    56  VAL56       0.0023
     51  CG2      -13.6490  -13.2440   20.6410 C.3    56  VAL56       0.0023
     52  N        -12.1100  -16.6050   21.9980 N.am   57  VAL57      -0.1963
     53  CA       -12.4210  -17.2260   23.2800 C.3    57  VAL57       0.1727
     54  C        -12.7130  -16.1360   24.3000 C.2    57  VAL57       0.2616
     55  O        -11.9130  -15.2120   24.4880 O.2    57  VAL57      -0.2715
     56  CB       -11.2640  -18.1150   23.7500 C.3    57  VAL57       0.0290
     57  CG1      -11.5550  -18.6420   25.1620 C.3    57  VAL57       0.0023
     58  CG2      -11.0420  -19.2700   22.7530 C.3    57  VAL57       0.0023
     59  N        -13.8610  -16.2370   24.9640 N.am   58  ARG58      -0.1977
     60  CA       -14.2310  -15.2830   26.0020 C.3    58  ARG58       0.1597
     61  C        -14.0200  -15.8360   27.4040 C.2    58  ARG58       0.2287
     62  O        -13.6560  -15.0850   28.3110 O.2    58  ARG58      -0.2864
     63  CB       -15.6910  -14.8550   25.8120 C.3    58  ARG58       0.0334
     64  CG       -16.3120  -14.1210   26.9910 C.3    58  ARG58       0.0492
     65  CD       -15.7090  -12.7170   27.1450 C.3    58  ARG58       0.2205
     66  NE       -16.3880  -11.9570   28.1970 N.pl3  58  ARG58      -0.0865
     67  CZ       -16.1860  -12.1710   29.4960 C.cat  58  ARG58       0.5346
     68  NH1      -15.3550  -13.1250   29.9130 N.pl3  58  ARG58       0.1354
     69  NH2      -16.8400  -11.4590   30.3980 N.pl3  58  ARG58       0.1354
     70  N        -17.1520  -16.2960   21.2420 N.3   110  VAL110     -0.1245
     71  CA       -17.9700  -15.1770   20.7840 C.3   110  VAL110      0.1561
     72  C        -17.5890  -14.8590   19.3470 C.2   110  VAL110      0.2260
     73  O        -16.4010  -14.7750   19.0210 O.2   110  VAL110     -0.2867
     74  CB       -17.7830  -13.9370   21.6740 C.3   110  VAL110      0.0252
     75  CG1      -18.6000  -12.7570   21.1240 C.3   110  VAL110      0.0019
     76  CG2      -18.1810  -14.2530   23.1100 C.3   110  VAL110      0.0019
     77  N        -17.1430  -12.2780   16.4470 N.3   112  VAL112     -0.1245
     78  CA       -16.8650  -10.8440   16.3710 C.3   112  VAL112      0.1561
     79  C        -16.5870  -10.4230   14.9360 C.2   112  VAL112      0.2260
     80  O        -16.2020  -11.2280   14.0860 O.2   112  VAL112     -0.2867
     81  CB       -15.6640  -10.4350   17.2490 C.3   112  VAL112      0.0252
     82  CG1      -15.9170  -10.7770   18.7070 C.3   112  VAL112      0.0019
     83  CG2      -14.4170  -11.1280   16.7470 C.3   112  VAL112      0.0019
     84  N        -13.7540   -8.7830   13.2260 N.3   114  PRO114     -0.2116
     85  CA       -12.3600   -8.6760   13.6890 C.3   114  PRO114      0.1372
     86  C        -11.7570   -7.2910   13.5160 C.2   114  PRO114      0.2244
     87  O        -10.7180   -7.0070   14.1240 O.2   114  PRO114     -0.2868
     88  CB       -11.6250   -9.7090   12.8290 C.3   114  PRO114      0.0268
     89  CG       -12.4650   -9.8290   11.5940 C.3   114  PRO114      0.0207
     90  CD       -13.8780   -9.6720   12.0600 C.3   114  PRO114      0.0892
     91  N        -13.4300   -5.6010   16.7650 N.3   117  MET117     -0.1245
     92  CA       -13.4920   -6.4310   17.9720 C.3   117  MET117      0.1570
     93  C        -14.8250   -6.2340   18.6900 C.2   117  MET117      0.2261
     94  O        -14.8940   -5.9980   19.8980 O.2   117  MET117     -0.2867
     95  CB       -12.3070   -6.1560   18.9020 C.3   117  MET117      0.0387
     96  CG       -11.0370   -6.8990   18.5080 C.3   117  MET117      0.0595
     97  SD       -11.2650   -8.6850   18.4670 S.3   117  MET117     -0.1393
     98  CE       -11.3390   -9.0940   20.2070 C.3   117  MET117      0.0692
     99  N        -18.9110   -7.7810   18.9790 N.3   119  PRO119     -0.2116
    100  CA       -19.6710   -9.0150   18.7370 C.3   119  PRO119      0.1372
    101  C        -20.6750   -8.8350   17.6110 C.2   119  PRO119      0.2244
    102  O        -21.2120   -7.7450   17.3940 O.2   119  PRO119     -0.2868
    103  CB       -20.3770   -9.2710   20.0730 C.3   119  PRO119      0.0268
    104  CG       -19.5230   -8.5390   21.0870 C.3   119  PRO119      0.0207
    105  CD       -19.0370   -7.3130   20.3670 C.3   119  PRO119      0.0892
@<TRIPOS>BOND
     1    23    24    2
     2    23    22    1
     3    21    22    1
     4    22    25    1
     5    25    26    1
     6    26    27    1
     7    27    28    1
     8    89    90    1
     9    89    88    1
    10    90    84    1
    11    29    30    1
    12    88    85    1
    13    84    85    1
    14    43    44   ar
    15    43    41   ar
    16    30    33    1
    17    30    31    1
    18    86    85    1
    19    86    87    2
    20    44    42   ar
    21    80    79    2
    22    41    39   ar
    23    31    32    2
    24    31    34   am
    25    79    78    1
    26    42    40   ar
    27    13    12    2
    28    34    35    1
    29    39    40   ar
    30    39    38    1
    31    12    11    1
    32    78    77    1
    33    78    81    1
    34    38    35    1
    35     9     7   ar
    36    35    36    1
    37    83    81    1
    38    91    92    1
    39     8     7   ar
    40    81    82    1
    41     7     6    1
    42   102   101    2
    43    11    10    1
    44    11    14    1
    45    37    36    2
    46     4     3    2
    47   101   100    1
    48    36    45   am
    49    92    93    1
    50    92    95    1
    51    14    15    1
    52     3     2    1
    53    97    96    1
    54    97    98    1
    55    96    95    1
    56    93    94    2
    57   100    99    1
    58   100   103    1
    59     6     5    1
    60    45    46    1
    61    99   105    1
    62    73    72    2
    63    50    49    1
    64    72    71    1
    65     2     5    1
    66     2     1    1
    67    15    16    1
    68    46    49    1
    69    46    47    1
    70   103   104    1
    71    49    51    1
    72   105   104    1
    73    17    16    1
    74    17    18    2
    75    71    70    1
    76    71    74    1
    77    75    74    1
    78    47    48    2
    79    47    52   am
    80    20    18    1
    81    18    19    1
    82    74    76    1
    83    52    53    1
    84    58    56    1
    85    53    56    1
    86    53    54    1
    87    56    57    1
    88    54    55    2
    89    54    59   am
    90    59    60    1
    91    63    60    1
    92    63    64    1
    93    60    61    1
    94    64    65    1
    95    65    66    1
    96    61    62    2
    97    66    67    2
    98    67    68    1
    99    67    69    1
