@<TRIPOS>MOLECULE
tmp/5t0aB08.pdb
 97 97 0 0 0
SMALL
GASTEIGER

@<TRIPOS>ATOM
      1  N         18.4330    1.1170   13.8490 N.3    43  GLU43      -0.1245
      2  CA        18.2310    1.5080   15.2350 C.3    43  GLU43       0.1567
      3  C         18.2970    0.3050   16.1870 C.2    43  GLU43       0.2260
      4  O         18.4700    0.4830   17.3870 O.2    43  GLU43      -0.2867
      5  CB        16.9080    2.2590   15.3950 C.3    43  GLU43       0.0388
      6  CG        15.6450    1.4020   15.5330 C.3    43  GLU43       0.1160
      7  CD        15.2810    0.6690   14.2500 C.2    43  GLU43       0.3649
      8  OE1       15.9570    0.8870   13.2220 O.co2  43  GLU43      -0.2457
      9  OE2       14.3100   -0.1210   14.2790 O.co2  43  GLU43      -0.2457
     10  N         18.7950    9.1920   14.2790 N.3    61  TRP61      -0.1227
     11  CA        17.4680    8.6620   14.5510 C.3    61  TRP61       0.1737
     12  C         16.7600    9.7340   15.3510 C.2    61  TRP61       0.2595
     13  O         17.4080   10.6740   15.8210 O.2    61  TRP61      -0.2718
     14  CB        17.5600    7.3480   15.3470 C.3    61  TRP61       0.0564
     15  CG        16.2890    6.5710   15.3500 C.ar   61  TRP61       0.0003
     16  CD1       15.3340    6.5660   16.3130 C.ar   61  TRP61       0.0946
     17  CD2       15.8280    5.6900   14.3170 C.ar   61  TRP61       0.0152
     18  NE1       14.3000    5.7200   15.9530 N.ar   61  TRP61      -0.2442
     19  CE2       14.5870    5.1710   14.7310 C.ar   61  TRP61       0.0810
     20  CE3       16.3550    5.2790   13.0860 C.ar   61  TRP61       0.0012
     21  CZ2       13.8540    4.2730   13.9500 C.ar   61  TRP61       0.0191
     22  CZ3       15.6350    4.3800   12.3190 C.ar   61  TRP61       0.0001
     23  CH2       14.3990    3.8880   12.7510 C.ar   61  TRP61       0.0015
     24  N         15.4390    9.6340   15.4760 N.am   62  ALA62      -0.1980
     25  CA        14.7150   10.4700   16.4090 C.3    62  ALA62       0.1597
     26  C         15.3020   10.2380   17.8110 C.2    62  ALA62       0.2287
     27  O         15.8040    9.1480   18.1150 O.2    62  ALA62      -0.2864
     28  CB        13.2280   10.1540   16.3850 C.3    62  ALA62       0.0319
     29  N         14.1630    9.5960   20.6170 N.3    64  ASP64      -0.1225
     30  CA        13.5540    8.6740   21.5830 C.3    64  ASP64       0.1805
     31  C         14.4200    7.4380   21.7910 C.2    64  ASP64       0.2597
     32  O         14.3590    6.8010   22.8470 O.2    64  ASP64      -0.2718
     33  CB        12.1310    8.2660   21.1840 C.3    64  ASP64       0.1424
     34  CG        12.0850    7.4920   19.8780 C.2    64  ASP64       0.3668
     35  OD1       12.6620    7.9740   18.8810 O.co2  64  ASP64      -0.2456
     36  OD2       11.4680    6.3990   19.8520 O.co2  64  ASP64      -0.2456
     37  N         15.2410    7.1140   20.8020 N.am   65  ARG65      -0.1979
     38  CA        16.1130    5.9480   20.8900 C.3    65  ARG65       0.1597
     39  C         17.3840    6.1560   21.6970 C.2    65  ARG65       0.2287
     40  O         18.0300    5.1810   22.0920 O.2    65  ARG65      -0.2864
     41  CB        16.5040    5.4810   19.4930 C.3    65  ARG65       0.0334
     42  CG        15.6330    4.3440   18.9570 C.3    65  ARG65       0.0492
     43  CD        15.9870    3.0350   19.6670 C.3    65  ARG65       0.2205
     44  NE        15.3410    1.8430   19.1140 N.pl3  65  ARG65      -0.0865
     45  CZ        15.5640    0.6120   19.5800 C.cat  65  ARG65       0.5346
     46  NH1       16.3980    0.4270   20.5970 N.pl3  65  ARG65       0.1354
     47  NH2       14.9590   -0.4440   19.0550 N.pl3  65  ARG65       0.1354
     48  N          3.0050    0.8290   11.7120 N.3   152  GLU152     -0.1231
     49  CA         3.8930    1.4850   12.6900 C.3   152  GLU152      0.1684
     50  C          3.0740    2.3540   13.6490 C.2   152  GLU152      0.2434
     51  O          2.2990    3.2090   13.2040 O.2   152  GLU152     -0.2733
     52  CB         4.9510    2.3170   11.9790 C.3   152  GLU152      0.0402
     53  CG         6.0980    1.4950   11.3810 C.3   152  GLU152      0.1161
     54  CD         7.0480    0.9290   12.4380 C.2   152  GLU152      0.3649
     55  OE1        6.9750    1.3570   13.6190 O.co2 152  GLU152     -0.2457
     56  OE2        7.8810    0.0660   12.0820 O.co2 152  GLU152     -0.2457
     57  N          3.2270    2.1320   14.9710 N.am  153  PRO153     -0.2718
     58  CA         2.3800    2.8090   15.9660 C.3   153  PRO153      0.1535
     59  C          2.5380    4.3320   15.9860 C.2   153  PRO153      0.2598
     60  O          1.6200    5.0480   16.4210 O.2   153  PRO153     -0.2715
     61  CB         2.8280    2.1910   17.3030 C.3   153  PRO153      0.0310
     62  CG         4.1760    1.6170   17.0470 C.3   153  PRO153      0.0237
     63  CD         4.1930    1.2150   15.6000 C.3   153  PRO153      0.0939
     64  N          3.6770    4.8080   15.5000 N.am  154  TYR154     -0.1974
     65  CA         3.9140    6.2460   15.3280 C.3   154  TYR154      0.1639
     66  C          2.7220    6.9370   14.6690 C.2   154  TYR154      0.2290
     67  O          2.2980    8.0080   15.1090 O.2   154  TYR154     -0.2864
     68  CB         5.1890    6.4370   14.5020 C.3   154  TYR154      0.0560
     69  CG         5.6570    7.8670   14.2830 C.ar  154  TYR154     -0.0198
     70  CD1        6.1860    8.6250   15.3280 C.ar  154  TYR154     -0.0009
     71  CD2        5.6220    8.4400   13.0050 C.ar  154  TYR154     -0.0009
     72  CE1        6.6460    9.9320   15.1110 C.ar  154  TYR154      0.0417
     73  CE2        6.0740    9.7350   12.7830 C.ar  154  TYR154      0.0417
     74  CZ         6.5840   10.4720   13.8350 C.ar  154  TYR154      0.1957
     75  OH         7.0170   11.7510   13.6080 O.3   154  TYR154     -0.2866
     76  N          8.6870   13.3160   22.6320 N.3   329  MET329     -0.1245
     77  CA         8.8610   11.9530   23.0910 C.3   329  MET329      0.1570
     78  C          9.8350   11.9710   24.2440 C.2   329  MET329      0.2261
     79  O         10.7860   12.7560   24.2310 O.2   329  MET329     -0.2867
     80  CB         9.4130   11.0710   21.9840 C.3   329  MET329      0.0387
     81  CG         8.3680   10.7290   20.9210 C.3   329  MET329      0.0595
     82  SD         8.9490    9.4890   19.7680 S.3   329  MET329     -0.1393
     83  CE        10.1840   10.3450   18.8320 C.3   329  MET329      0.0692
     84  N          7.0990    1.2470   22.4660 N.3   339  TRP339     -0.1241
     85  CA         6.7840    1.2250   21.0380 C.3   339  TRP339      0.1605
     86  C          6.4970   -0.2040   20.5400 C.2   339  TRP339      0.2264
     87  O          5.5150   -0.4230   19.8210 O.2   339  TRP339     -0.2867
     88  CB         7.9190    1.8330   20.2050 C.3   339  TRP339      0.0550
     89  CG         7.9830    3.3620   20.1400 C.ar  339  TRP339      0.0003
     90  CD1        9.0790    4.1400   20.4080 C.ar  339  TRP339      0.0946
     91  CD2        6.9380    4.2740   19.7410 C.ar  339  TRP339      0.0152
     92  NE1        8.7790    5.4710   20.2140 N.ar  339  TRP339     -0.2442
     93  CE2        7.4760    5.5820   19.8090 C.ar  339  TRP339      0.0810
     94  CE3        5.6060    4.1160   19.3450 C.ar  339  TRP339      0.0012
     95  CZ2        6.7300    6.7160   19.4950 C.ar  339  TRP339      0.0191
     96  CZ3        4.8640    5.2460   19.0390 C.ar  339  TRP339      0.0001
     97  CH2        5.4310    6.5320   19.1170 C.ar  339  TRP339      0.0015
@<TRIPOS>BOND
     1    53    52    1
     2    53    54    1
     3    48    49    1
     4    52    49    1
     5    56    54   ar
     6    22    23   ar
     7    22    20   ar
     8    54    55   ar
     9    49    50    1
    10    23    21   ar
    11    73    71   ar
    12    73    74   ar
    13    71    69   ar
    14    20    17   ar
    15    51    50    2
    16     8     7   ar
    17    75    74    1
    18    50    57   am
    19    74    72   ar
    20     1     2    1
    21    21    19   ar
    22     7     9   ar
    23     7     6    1
    24    10    11    1
    25    69    68    1
    26    69    70   ar
    27    17    19   ar
    28    17    15   ar
    29    68    65    1
    30    11    14    1
    31    11    12    1
    32    66    67    2
    33    66    65    1
    34    19    18   ar
    35    57    63    1
    36    57    58    1
    37    72    70   ar
    38     2     5    1
    39     2     3    1
    40    65    64    1
    41    14    15    1
    42    15    16   ar
    43    12    24   am
    44    12    13    2
    45     5     6    1
    46    24    25    1
    47    64    59   am
    48    63    62    1
    49    18    16   ar
    50    58    59    1
    51    58    61    1
    52    59    60    2
    53     3     4    2
    54    28    25    1
    55    25    26    1
    56    62    61    1
    57    26    27    2
    58    83    82    1
    59    35    34   ar
    60    42    41    1
    61    42    43    1
    62    96    97   ar
    63    96    94   ar
    64    47    45    1
    65    44    45    2
    66    44    43    1
    67    97    95   ar
    68    94    91   ar
    69    41    38    1
    70    95    93   ar
    71    45    46    1
    72    91    93   ar
    73    91    89   ar
    74    82    81    1
    75    93    92   ar
    76    87    86    2
    77    36    34   ar
    78    34    33    1
    79    89    88    1
    80    89    90   ar
    81    88    85    1
    82    92    90   ar
    83    86    85    1
    84    29    30    1
    85    37    38    1
    86    37    31   am
    87    38    39    1
    88    81    80    1
    89    85    84    1
    90    33    30    1
    91    30    31    1
    92    39    40    2
    93    31    32    2
    94    80    77    1
    95    76    77    1
    96    77    78    1
    97    79    78    2
