@<TRIPOS>MOLECULE
tmp/5t0aB02.pdb
 134 133 0 0 0
SMALL
GASTEIGER

@<TRIPOS>ATOM
      1  N         -1.5220  -21.2420   50.5100 N.3   396  HIS396     -0.1241
      2  CA        -2.6880  -20.4950   50.0360 C.3   396  HIS396      0.1621
      3  C         -2.8020  -19.1430   50.7380 C.2   396  HIS396      0.2264
      4  O         -3.0710  -19.0620   51.9280 O.2   396  HIS396     -0.2867
      5  CB        -3.9630  -21.3290   50.2570 C.3   396  HIS396      0.0745
      6  CG        -5.2330  -20.6760   49.7970 C.ar  396  HIS396      0.0817
      7  ND1       -6.4570  -21.3160   49.8590 N.ar  396  HIS396     -0.2268
      8  CD2       -5.4860  -19.4440   49.2780 C.ar  396  HIS396      0.1154
      9  CE1       -7.4030  -20.5090   49.4110 C.ar  396  HIS396      0.1986
     10  NE2       -6.8450  -19.3660   49.0560 N.ar  396  HIS396     -0.2212
     11  N         -4.8760  -15.7620   51.2300 N.3   398  GLN398     -0.1231
     12  CA        -6.2820  -15.3800   51.0620 C.3   398  GLN398      0.1698
     13  C         -6.5250  -14.5070   49.8240 C.2   398  GLN398      0.2592
     14  O         -5.8300  -13.5080   49.5760 O.2   398  GLN398     -0.2718
     15  CB        -6.8300  -14.6590   52.3050 C.3   398  GLN398      0.0381
     16  CG        -7.0070  -15.5320   53.5530 C.3   398  GLN398      0.0905
     17  CD        -5.7750  -15.5650   54.4480 C.2   398  GLN398      0.2608
     18  OE1       -4.6170  -15.5100   53.9770 O.2   398  GLN398     -0.2717
     19  NE2       -6.0150  -15.6290   55.7480 N.am  398  GLN398     -0.0878
     20  N         -7.5490  -14.9040   49.0770 N.am  399  LYS399     -0.1980
     21  CA        -8.1330  -14.1220   47.9940 C.3   399  LYS399      0.1596
     22  C         -7.2430  -14.0410   46.7530 C.2   399  LYS399      0.2287
     23  O         -7.3280  -13.0940   45.9850 O.2   399  LYS399     -0.2864
     24  CB        -8.5190  -12.7150   48.4690 C.3   399  LYS399      0.0298
     25  CG        -9.2840  -12.6240   49.8050 C.3   399  LYS399      0.0038
     26  CD       -10.3590  -13.7090   50.0140 C.3   399  LYS399      0.0206
     27  CE       -11.4640  -13.7130   48.9450 C.3   399  LYS399      0.1093
     28  NZ       -12.3690  -14.9020   49.1070 N.3   399  LYS399     -0.1314
     29  N         -8.8450  -21.2240   46.1510 N.3   403  THR403     -0.1218
     30  CA        -9.8850  -22.2520   46.2060 C.3   403  THR403      0.1862
     31  C         -9.9330  -22.9370   44.8350 C.2   403  THR403      0.2287
     32  O         -9.8550  -24.1610   44.7310 O.2   403  THR403     -0.2866
     33  CB       -11.2630  -21.6920   46.6220 C.3   403  THR403      0.1770
     34  OG1      -11.1630  -21.0290   47.8920 O.3   403  THR403     -0.2211
     35  CG2      -12.3020  -22.8290   46.7340 C.3   403  THR403      0.0375
     36  N         -4.8000  -27.4500   52.0200 N.3   443  ARG443     -0.1245
     37  CA        -6.1590  -27.3920   52.5470 C.3   443  ARG443      0.1563
     38  C         -7.0500  -28.5720   52.1170 C.2   443  ARG443      0.2260
     39  O         -7.7060  -29.1980   52.9570 O.2   443  ARG443     -0.2867
     40  CB        -6.7880  -26.0850   52.0810 C.3   443  ARG443      0.0307
     41  CG        -8.2590  -25.8820   52.3890 C.3   443  ARG443      0.0489
     42  CD        -8.7740  -24.7490   51.5060 C.3   443  ARG443      0.2205
     43  NE       -10.1160  -24.2990   51.8450 N.pl3 443  ARG443     -0.0865
     44  CZ       -10.8170  -23.4400   51.1160 C.cat 443  ARG443      0.5346
     45  NH1      -10.3110  -22.9270   49.9970 N.pl3 443  ARG443      0.1354
     46  NH2      -12.0240  -23.0880   51.5030 N.pl3 443  ARG443      0.1354
     47  N         -5.8890  -28.0330   57.3370 N.3   448  TRP448     -0.1241
     48  CA        -5.0660  -26.9430   57.8570 C.3   448  TRP448      0.1605
     49  C         -4.1260  -27.4380   58.9690 C.2   448  TRP448      0.2264
     50  O         -4.0980  -26.8820   60.0750 O.2   448  TRP448     -0.2867
     51  CB        -5.9570  -25.8110   58.3700 C.3   448  TRP448      0.0550
     52  CG        -6.8310  -25.1510   57.3250 C.ar  448  TRP448      0.0003
     53  CD1       -8.2060  -25.1300   57.2930 C.ar  448  TRP448      0.0946
     54  CD2       -6.3940  -24.4080   56.1660 C.ar  448  TRP448      0.0152
     55  NE1       -8.6410  -24.4250   56.1950 N.ar  448  TRP448     -0.2442
     56  CE2       -7.5510  -23.9760   55.4900 C.ar  448  TRP448      0.0810
     57  CE3       -5.1330  -24.0780   55.6340 C.ar  448  TRP448      0.0012
     58  CZ2       -7.4890  -23.2010   54.3300 C.ar  448  TRP448      0.0191
     59  CZ3       -5.0790  -23.3180   54.4770 C.ar  448  TRP448      0.0001
     60  CH2       -6.2460  -22.8920   53.8380 C.ar  448  TRP448      0.0015
     61  N         -4.6160  -22.5010   59.9420 N.3   452  LEU452     -0.1231
     62  CA        -5.4610  -21.9000   58.9140 C.3   452  LEU452      0.1693
     63  C         -4.6600  -20.8990   58.0880 C.2   452  LEU452      0.2592
     64  O         -4.0970  -19.9810   58.6500 O.2   452  LEU452     -0.2718
     65  CB        -6.6110  -21.1750   59.5910 C.3   452  LEU452      0.0284
     66  CG        -7.5320  -20.3750   58.6790 C.3   452  LEU452      0.0019
     67  CD1       -8.1050  -21.2600   57.5950 C.3   452  LEU452      0.0001
     68  CD2       -8.6140  -19.7530   59.5190 C.3   452  LEU452      0.0001
     69  N         -4.6450  -21.0810   56.7630 N.am  453  HIS453     -0.1976
     70  CA        -3.8530  -20.2530   55.8580 C.3   453  HIS453      0.1656
     71  C         -2.4150  -20.0530   56.3530 C.2   453  HIS453      0.2291
     72  O         -1.8920  -18.9310   56.3820 O.2   453  HIS453     -0.2864
     73  CB        -4.5400  -18.9170   55.5990 C.3   453  HIS453      0.0771
     74  CG        -5.6810  -19.0130   54.6460 C.ar  453  HIS453      0.0820
     75  ND1       -5.5140  -19.1230   53.2830 N.ar  453  HIS453     -0.2267
     76  CD2       -7.0290  -19.0260   54.8560 C.ar  453  HIS453      0.1154
     77  CE1       -6.6960  -19.1900   52.6930 C.ar  453  HIS453      0.1986
     78  NE2       -7.6240  -19.1400   53.6290 N.ar  453  HIS453     -0.2212
     79  N        -15.0000  -10.0580   51.2580 N.3   490  HIS490     -0.1241
     80  CA       -15.1700  -11.3100   51.9830 C.3   490  HIS490      0.1621
     81  C        -15.3170  -11.0880   53.4870 C.2   490  HIS490      0.2264
     82  O        -16.1470  -11.7260   54.1530 O.2   490  HIS490     -0.2867
     83  CB       -14.0390  -12.2960   51.6950 C.3   490  HIS490      0.0745
     84  CG       -14.3820  -13.7060   52.0620 C.ar  490  HIS490      0.0817
     85  ND1      -13.5460  -14.7680   51.8080 N.ar  490  HIS490     -0.2268
     86  CD2      -15.4930  -14.2290   52.6400 C.ar  490  HIS490      0.1154
     87  CE1      -14.1110  -15.8840   52.2340 C.ar  490  HIS490      0.1986
     88  NE2      -15.3010  -15.5860   52.7320 N.ar  490  HIS490     -0.2212
     89  N        -18.4010  -11.5850   56.2560 N.3   494  GLY494     -0.1210
     90  CA       -18.2270  -12.3240   57.5000 C.3   494  GLY494      0.1956
     91  C        -16.9160  -13.0750   57.7250 C.2   494  GLY494      0.2612
     92  O        -16.7320  -13.6920   58.7790 O.2   494  GLY494     -0.2717
     93  N        -15.9990  -13.0500   56.7660 N.am  495  ALA495     -0.1965
     94  CA       -14.7160  -13.7610   56.9650 C.3   495  ALA495      0.1728
     95  C        -13.8900  -13.0740   58.0460 C.2   495  ALA495      0.2617
     96  O        -13.8720  -11.8440   58.1340 O.2   495  ALA495     -0.2715
     97  CB       -13.9180  -13.8280   55.6640 C.3   495  ALA495      0.0334
     98  N        -13.2280  -13.8670   58.8900 N.am  496  THR496     -0.1937
     99  CA       -12.2720  -13.3350   59.8700 C.3   496  THR496      0.2028
    100  C        -10.9240  -14.0730   59.8840 C.2   496  THR496      0.2642
    101  O         -9.9250  -13.4970   60.3010 O.2   496  THR496     -0.2714
    102  CB       -12.8100  -13.4480   61.2960 C.3   496  THR496      0.1808
    103  OG1      -12.9200  -14.8370   61.6320 O.3   496  THR496     -0.2208
    104  CG2      -14.1800  -12.7350   61.4270 C.3   496  THR496      0.0379
    105  N        -10.9230  -15.3370   59.4510 N.am  497  TRP497     -0.1959
    106  CA        -9.7940  -16.2520   59.6430 C.3   497  TRP497      0.1771
    107  C         -9.2220  -16.1300   61.0540 C.2   497  TRP497      0.2620
    108  O         -8.0050  -16.1640   61.2590 O.2   497  TRP497     -0.2715
    109  CB        -8.7110  -15.9770   58.5880 C.3   497  TRP497      0.0590
    110  CG        -9.2700  -16.0810   57.1970 C.ar  497  TRP497      0.0006
    111  CD1       -9.6050  -17.2240   56.5340 C.ar  497  TRP497      0.0946
    112  CD2       -9.6120  -14.9980   56.3250 C.ar  497  TRP497      0.0152
    113  NE1      -10.1180  -16.9200   55.2980 N.ar  497  TRP497     -0.2442
    114  CE2      -10.1230  -15.5610   55.1400 C.ar  497  TRP497      0.0810
    115  CE3       -9.5130  -13.6080   56.4210 C.ar  497  TRP497      0.0012
    116  CZ2      -10.5350  -14.7850   54.0690 C.ar  497  TRP497      0.0191
    117  CZ3       -9.9110  -12.8470   55.3550 C.ar  497  TRP497      0.0001
    118  CH2      -10.4290  -13.4340   54.1980 C.ar  497  TRP497      0.0015
    119  N        -10.1000  -15.9980   62.0390 N.am  498  LYS498     -0.1963
    120  CA        -9.6390  -15.6630   63.3810 C.3   498  LYS498      0.1728
    121  C         -8.9100  -16.8040   64.0950 C.2   498  LYS498      0.2616
    122  O         -8.2250  -16.5690   65.0780 O.2   498  LYS498     -0.2715
    123  CB       -10.8040  -15.1980   64.2410 C.3   498  LYS498      0.0311
    124  CG       -11.7480  -16.3050   64.6270 C.3   498  LYS498      0.0038
    125  CD       -12.7770  -15.8140   65.6190 C.3   498  LYS498      0.0206
    126  CE       -13.9280  -15.1230   64.9450 C.3   498  LYS498      0.1093
    127  NZ       -15.0200  -14.8850   65.9440 N.3   498  LYS498     -0.1314
    128  N         -9.0460  -18.0300   63.6140 N.am  499  THR499     -0.1951
    129  CA        -8.3490  -19.1490   64.2480 C.3   499  THR499      0.1897
    130  C         -6.9290  -19.3800   63.6920 C.2   499  THR499      0.2313
    131  O         -6.2440  -20.3240   64.0950 O.2   499  THR499     -0.2863
    132  CB        -9.1450  -20.4420   64.1300 C.3   499  THR499      0.1794
    133  OG1       -9.4340  -20.7060   62.7500 O.3   499  THR499     -0.2208
    134  CG2      -10.4600  -20.3490   64.9350 C.3   499  THR499      0.0378
@<TRIPOS>BOND
     1    32    31    2
     2    31    30    1
     3    23    22    2
     4    29    30    1
     5    30    33    1
     6    33    35    1
     7    33    34    1
     8    22    21    1
     9    21    24    1
    10    21    20    1
    11    24    25    1
    12    27    28    1
    13    27    26    1
    14    10     8   ar
    15    10     9   ar
    16    20    13   am
    17     8     6   ar
    18     9     7   ar
    19    14    13    2
    20     6     7   ar
    21     6     5    1
    22    25    26    1
    23    13    12    1
    24    45    44    1
    25     2     5    1
    26     2     1    1
    27     2     3    1
    28     3     4    2
    29    12    11    1
    30    12    15    1
    31    44    46    1
    32    44    43    2
    33    79    80    1
    34    42    43    1
    35    42    41    1
    36    83    80    1
    37    83    84    1
    38    85    84   ar
    39    85    87   ar
    40    80    81    1
    41    36    37    1
    42    84    86   ar
    43    40    41    1
    44    40    37    1
    45    38    37    1
    46    38    39    2
    47    87    88   ar
    48    15    16    1
    49    86    88   ar
    50    77    75   ar
    51    77    78   ar
    52    75    74   ar
    53    81    82    2
    54    16    17    1
    55    78    76   ar
    56    60    58   ar
    57    60    59   ar
    58    18    17    2
    59   116   118   ar
    60   116   114   ar
    61   118   117   ar
    62    58    56   ar
    63    17    19   am
    64    59    57   ar
    65    74    76   ar
    66    74    73    1
    67   114   113   ar
    68   114   112   ar
    69   113   111   ar
    70   117   115   ar
    71    56    54   ar
    72    56    55   ar
    73    73    70    1
    74    57    54   ar
    75    97    94    1
    76    70    71    1
    77    70    69    1
    78    54    52   ar
    79    55    53   ar
    80    89    90    1
    81   112   115   ar
    82   112   110   ar
    83    71    72    2
    84   111   110   ar
    85    69    63   am
    86    93    94    1
    87    93    91   am
    88    94    95    1
    89   110   109    1
    90    53    52   ar
    91    52    51    1
    92    47    48    1
    93    90    91    1
    94    67    66    1
    95    91    92    2
    96    48    51    1
    97    48    49    1
    98    95    96    2
    99    95    98   am
   100    63    64    2
   101    63    62    1
   102   109   106    1
   103    66    68    1
   104    66    65    1
   105    98    99    1
   106    62    65    1
   107    62    61    1
   108    49    50    2
   109   105   106    1
   110   105   100   am
   111   106   107    1
   112    99   100    1
   113    99   102    1
   114   100   101    2
   115   107   108    2
   116   107   119   am
   117   102   104    1
   118   102   103    1
   119   119   120    1
   120   133   132    1
   121   120   121    1
   122   120   123    1
   123   128   121   am
   124   128   129    1
   125   130   131    2
   126   130   129    1
   127   121   122    2
   128   132   129    1
   129   132   134    1
   130   123   124    1
   131   124   125    1
   132   126   125    1
   133   126   127    1
