@<TRIPOS>MOLECULE
tmp/5t0aB10.pdb
 185 177 0 0 0
SMALL
GASTEIGER

@<TRIPOS>ATOM
      1  N         -1.5220  -21.2420   50.5100 N.3   396  HIS396     -0.1241
      2  CA        -2.6880  -20.4950   50.0360 C.3   396  HIS396      0.1621
      3  C         -2.8020  -19.1430   50.7380 C.2   396  HIS396      0.2264
      4  O         -3.0710  -19.0620   51.9280 O.2   396  HIS396     -0.2867
      5  CB        -3.9630  -21.3290   50.2570 C.3   396  HIS396      0.0745
      6  CG        -5.2330  -20.6760   49.7970 C.ar  396  HIS396      0.0817
      7  ND1       -6.4570  -21.3160   49.8590 N.ar  396  HIS396     -0.2268
      8  CD2       -5.4860  -19.4440   49.2780 C.ar  396  HIS396      0.1154
      9  CE1       -7.4030  -20.5090   49.4110 C.ar  396  HIS396      0.1986
     10  NE2       -6.8450  -19.3660   49.0560 N.ar  396  HIS396     -0.2212
     11  N         -4.8760  -15.7620   51.2300 N.3   398  GLN398     -0.1231
     12  CA        -6.2820  -15.3800   51.0620 C.3   398  GLN398      0.1698
     13  C         -6.5250  -14.5070   49.8240 C.2   398  GLN398      0.2592
     14  O         -5.8300  -13.5080   49.5760 O.2   398  GLN398     -0.2718
     15  CB        -6.8300  -14.6590   52.3050 C.3   398  GLN398      0.0381
     16  CG        -7.0070  -15.5320   53.5530 C.3   398  GLN398      0.0905
     17  CD        -5.7750  -15.5650   54.4480 C.2   398  GLN398      0.2608
     18  OE1       -4.6170  -15.5100   53.9770 O.2   398  GLN398     -0.2717
     19  NE2       -6.0150  -15.6290   55.7480 N.am  398  GLN398     -0.0878
     20  N         -7.5490  -14.9040   49.0770 N.am  399  LYS399     -0.1966
     21  CA        -8.1330  -14.1220   47.9940 C.3   399  LYS399      0.1728
     22  C         -7.2430  -14.0410   46.7530 C.2   399  LYS399      0.2617
     23  O         -7.3280  -13.0940   45.9850 O.2   399  LYS399     -0.2715
     24  CB        -8.5190  -12.7150   48.4690 C.3   399  LYS399      0.0311
     25  CG        -9.2840  -12.6240   49.8050 C.3   399  LYS399      0.0038
     26  CD       -10.3590  -13.7090   50.0140 C.3   399  LYS399      0.0206
     27  CE       -11.4640  -13.7130   48.9450 C.3   399  LYS399      0.1093
     28  NZ       -12.3690  -14.9020   49.1070 N.3   399  LYS399     -0.1314
     29  N         -6.4170  -15.0560   46.5480 N.am  400  THR400     -0.1937
     30  CA        -5.5350  -15.1180   45.3850 C.3   400  THR400      0.2028
     31  C         -6.0570  -16.1430   44.3700 C.2   400  THR400      0.2643
     32  O         -5.3660  -16.5030   43.4130 O.2   400  THR400     -0.2714
     33  CB        -4.1060  -15.4920   45.8130 C.3   400  THR400      0.1808
     34  OG1       -4.1310  -16.7040   46.5630 O.3   400  THR400     -0.2208
     35  CG2       -3.4890  -14.4230   46.6530 C.3   400  THR400      0.0379
     36  N         -7.2970  -16.5880   44.5540 N.am  401  GLY401     -0.1939
     37  CA        -7.8390  -17.6450   43.7170 C.3   401  GLY401      0.2014
     38  C         -7.3640  -19.0190   44.1280 C.2   401  GLY401      0.2639
     39  O         -7.2300  -19.9150   43.2880 O.2   401  GLY401     -0.2714
     40  N         -7.1100  -19.1970   45.4250 N.am  402  GLY402     -0.1939
     41  CA        -6.5430  -20.4470   45.9030 C.3   402  GLY402      0.2014
     42  C         -7.5630  -21.5680   46.0300 C.2   402  GLY402      0.2640
     43  O         -7.1890  -22.7300   46.0280 O.2   402  GLY402     -0.2714
     44  N         -8.8450  -21.2240   46.1510 N.am  403  THR403     -0.1936
     45  CA        -9.8850  -22.2520   46.2060 C.3   403  THR403      0.2028
     46  C         -9.9330  -22.9370   44.8350 C.2   403  THR403      0.2642
     47  O         -9.8550  -24.1610   44.7310 O.2   403  THR403     -0.2714
     48  CB       -11.2630  -21.6920   46.6220 C.3   403  THR403      0.1808
     49  OG1      -11.1630  -21.0290   47.8920 O.3   403  THR403     -0.2208
     50  CG2      -12.3020  -22.8290   46.7340 C.3   403  THR403      0.0379
     51  N         -9.9770  -22.1340   43.7820 N.am  404  THR404     -0.1950
     52  CA        -9.9530  -22.6530   42.4150 C.3   404  THR404      0.1897
     53  C         -8.6830  -23.4200   42.1390 C.2   404  THR404      0.2313
     54  O         -8.7270  -24.5510   41.6510 O.2   404  THR404     -0.2863
     55  CB       -10.1360  -21.4990   41.3850 C.3   404  THR404      0.1794
     56  OG1      -11.4850  -21.0350   41.4500 O.3   404  THR404     -0.2208
     57  CG2       -9.8420  -21.9280   39.9590 C.3   404  THR404      0.0378
     58  N         -4.6450  -21.0810   56.7630 N.3   453  HIS453     -0.1241
     59  CA        -3.8530  -20.2530   55.8580 C.3   453  HIS453      0.1621
     60  C         -2.4150  -20.0530   56.3530 C.2   453  HIS453      0.2264
     61  O         -1.8920  -18.9310   56.3820 O.2   453  HIS453     -0.2867
     62  CB        -4.5400  -18.9170   55.5990 C.3   453  HIS453      0.0745
     63  CG        -5.6810  -19.0130   54.6460 C.ar  453  HIS453      0.0817
     64  ND1       -5.5140  -19.1230   53.2830 N.ar  453  HIS453     -0.2268
     65  CD2       -7.0290  -19.0260   54.8560 C.ar  453  HIS453      0.1154
     66  CE1       -6.6960  -19.1900   52.6930 C.ar  453  HIS453      0.1986
     67  NE2       -7.6240  -19.1400   53.6290 N.ar  453  HIS453     -0.2212
     68  N         -1.8850  -12.3750   43.3470 N.3   478  ARG478     -0.1245
     69  CA        -2.9030  -11.5800   42.6740 C.3   478  ARG478      0.1563
     70  C         -2.5360  -10.1220   42.7860 C.2   478  ARG478      0.2260
     71  O         -1.9490   -9.7080   43.7860 O.2   478  ARG478     -0.2867
     72  CB        -4.2590  -11.8230   43.3330 C.3   478  ARG478      0.0307
     73  CG        -5.4300  -11.0640   42.6930 C.3   478  ARG478      0.0489
     74  CD        -6.7530  -11.5970   43.2320 C.3   478  ARG478      0.2205
     75  NE        -7.9310  -11.0560   42.5360 N.pl3 478  ARG478     -0.0865
     76  CZ        -9.1700  -11.1480   43.0030 C.cat 478  ARG478      0.5346
     77  NH1       -9.3700  -11.7550   44.1530 N.pl3 478  ARG478      0.1354
     78  NH2      -10.2140  -10.6520   42.3180 N.pl3 478  ARG478      0.1354
     79  N        -11.0370   -7.7890   47.1510 N.3   486  SER486     -0.1217
     80  CA       -11.5890   -9.1310   47.3460 C.3   486  SER486      0.1889
     81  C        -11.6410   -9.4900   48.8220 C.2   486  SER486      0.2288
     82  O        -12.6370  -10.0640   49.3060 O.2   486  SER486     -0.2866
     83  CB       -10.7980  -10.1600   46.5260 C.3   486  SER486      0.2089
     84  OG       -11.2220  -11.5110   46.7570 O.3   486  SER486     -0.2183
     85  N        -15.0000  -10.0580   51.2580 N.3   490  HIS490     -0.1241
     86  CA       -15.1700  -11.3100   51.9830 C.3   490  HIS490      0.1621
     87  C        -15.3170  -11.0880   53.4870 C.2   490  HIS490      0.2264
     88  O        -16.1470  -11.7260   54.1530 O.2   490  HIS490     -0.2867
     89  CB       -14.0390  -12.2960   51.6950 C.3   490  HIS490      0.0745
     90  CG       -14.3820  -13.7060   52.0620 C.ar  490  HIS490      0.0817
     91  ND1      -13.5460  -14.7680   51.8080 N.ar  490  HIS490     -0.2268
     92  CD2      -15.4930  -14.2290   52.6400 C.ar  490  HIS490      0.1154
     93  CE1      -14.1110  -15.8840   52.2340 C.ar  490  HIS490      0.1986
     94  NE2      -15.3010  -15.5860   52.7320 N.ar  490  HIS490     -0.2212
     95  N        -18.7340   -9.7560   54.2530 N.3   493  ARG493     -0.1245
     96  CA       -19.7460  -10.7780   54.3600 C.3   493  ARG493      0.1563
     97  C        -19.4320  -11.8260   55.4440 C.2   493  ARG493      0.2260
     98  O        -20.1340  -12.8250   55.5530 O.2   493  ARG493     -0.2867
     99  CB       -20.0430  -11.3940   53.0010 C.3   493  ARG493      0.0307
    100  CG       -18.9380  -12.1480   52.3510 C.3   493  ARG493      0.0489
    101  CD       -19.3540  -12.6290   50.9810 C.3   493  ARG493      0.2205
    102  NE       -18.3380  -13.4960   50.4170 N.pl3 493  ARG493     -0.0865
    103  CZ       -17.3470  -13.0830   49.6270 C.cat 493  ARG493      0.5346
    104  NH1      -17.2600  -11.8150   49.2400 N.pl3 493  ARG493      0.1354
    105  NH2      -16.4660  -13.9640   49.1900 N.pl3 493  ARG493      0.1354
    106  N         -3.2080  -15.0420   39.4230 N.3   587  THR587     -0.1203
    107  CA        -4.6650  -15.1670   39.2440 C.3   587  THR587      0.1994
    108  C         -5.1230  -14.6630   37.8760 C.2   587  THR587      0.2617
    109  O         -5.9680  -15.2940   37.2260 O.2   587  THR587     -0.2717
    110  CB        -5.4430  -14.4220   40.3480 C.3   587  THR587      0.1784
    111  OG1       -4.8280  -14.6610   41.6210 O.3   587  THR587     -0.2211
    112  CG2       -6.9180  -14.9160   40.4280 C.3   587  THR587      0.0376
    113  N         -4.5640  -13.5350   37.4320 N.am  588  GLU588     -0.1979
    114  CA        -4.9270  -12.9660   36.1320 C.3   588  GLU588      0.1602
    115  C         -4.4370  -13.7460   34.8890 C.2   588  GLU588      0.2287
    116  O         -4.8220  -13.4160   33.7790 O.2   588  GLU588     -0.2864
    117  CB        -4.4790  -11.4950   36.0400 C.3   588  GLU588      0.0415
    118  CG        -2.9720  -11.3270   35.9780 C.3   588  GLU588      0.1163
    119  CD        -2.5410   -9.8810   35.8040 C.2   588  GLU588      0.3649
    120  OE1       -3.1270   -9.2000   34.9340 O.co2 588  GLU588     -0.2457
    121  OE2       -1.6150   -9.4360   36.5360 O.co2 588  GLU588     -0.2457
    122  N         -4.6230  -17.4410   34.1320 N.3   590  GLN590     -0.1245
    123  CA        -4.9550  -18.8380   34.4310 C.3   590  GLN590      0.1566
    124  C         -4.3180  -19.8620   33.4840 C.2   590  GLN590      0.2260
    125  O         -3.7570  -20.8760   33.9340 O.2   590  GLN590     -0.2867
    126  CB        -6.4740  -19.0060   34.4540 C.3   590  GLN590      0.0367
    127  CG        -7.1410  -18.2520   35.6000 C.3   590  GLN590      0.0905
    128  CD        -7.0020  -18.9690   36.9170 C.2   590  GLN590      0.2608
    129  OE1       -7.0290  -20.2010   36.9740 O.2   590  GLN590     -0.2717
    130  NE2       -6.8380  -18.2030   37.9870 N.am  590  GLN590     -0.0878
    131  N         -9.6660  -21.8370   33.2660 N.3   610  THR610     -0.1203
    132  CA       -10.4470  -20.7990   32.6180 C.3   610  THR610      0.1994
    133  C        -10.2640  -19.4880   33.3280 C.2   610  THR610      0.2618
    134  O        -10.1530  -19.4540   34.5520 O.2   610  THR610     -0.2717
    135  CB       -11.9680  -21.1400   32.6060 C.3   610  THR610      0.1784
    136  OG1      -12.4190  -21.3460   33.9450 O.3   610  THR610     -0.2211
    137  CG2      -12.2340  -22.3740   31.7690 C.3   610  THR610      0.0376
    138  N        -10.2170  -18.4130   32.5510 N.am  611  GLN611     -0.1965
    139  CA       -10.1500  -17.0590   33.0850 C.3   611  GLN611      0.1733
    140  C        -11.5380  -16.5200   33.3990 C.2   611  GLN611      0.2616
    141  O        -12.3890  -16.4540   32.5180 O.2   611  GLN611     -0.2715
    142  CB        -9.5010  -16.1160   32.0590 C.3   611  GLN611      0.0408
    143  CG        -8.9190  -14.8660   32.6810 C.3   611  GLN611      0.0908
    144  CD        -7.7770  -15.2140   33.6320 C.2   611  GLN611      0.2608
    145  OE1       -6.8660  -15.9600   33.2700 O.2   611  GLN611     -0.2717
    146  NE2       -7.8560  -14.7220   34.8540 N.am  611  GLN611     -0.0878
    147  N        -11.7520  -16.0760   34.6300 N.am  612  ILE612     -0.1963
    148  CA       -13.0670  -15.5740   35.0480 C.3   612  ILE612      0.1727
    149  C        -12.9140  -14.1690   35.5770 C.2   612  ILE612      0.2616
    150  O        -12.7780  -13.9600   36.7790 O.2   612  ILE612     -0.2715
    151  CB       -13.7330  -16.4470   36.1600 C.3   612  ILE612      0.0290
    152  CG1      -13.6210  -17.9450   35.8710 C.3   612  ILE612      0.0022
    153  CG2      -15.2050  -16.0500   36.3530 C.3   612  ILE612      0.0023
    154  CD1      -14.1110  -18.3930   34.5300 C.3   612  ILE612      0.0001
    155  N        -13.0500  -13.2390   34.6320 N.am  613  ASN613     -0.1972
    156  CA       -12.7950  -11.8020   34.7760 C.3   613  ASN613      0.1688
    157  C        -13.7480  -11.1060   35.7190 C.2   613  ASN613      0.2292
    158  O        -13.3970  -10.1610   36.4260 O.2   613  ASN613     -0.2864
    159  CB       -13.0030  -11.1320   33.4120 C.3   613  ASN613      0.1181
    160  CG       -12.3760  -11.9020   32.2760 C.2   613  ASN613      0.2629
    161  OD1      -12.8450  -12.9800   31.9020 O.2   613  ASN613     -0.2716
    162  ND2      -11.3170  -11.3490   31.7110 N.am  613  ASN613     -0.0877
    163  N        -15.0370  -10.7950   38.4710 N.3   615  THR615     -0.1203
    164  CA       -14.8510  -11.0390   39.8940 C.3   615  THR615      0.1994
    165  C        -15.5520   -9.9770   40.7190 C.2   615  THR615      0.2618
    166  O        -15.9210   -8.9200   40.2160 O.2   615  THR615     -0.2717
    167  CB       -13.3400  -11.0030   40.2360 C.3   615  THR615      0.1784
    168  OG1      -12.8290   -9.7000   39.9450 O.3   615  THR615     -0.2211
    169  CG2      -12.5990  -12.0040   39.4000 C.3   615  THR615      0.0376
    170  N        -15.7180  -10.2390   42.0100 N.am  616  ARG616     -0.1965
    171  CA       -16.2730   -9.2230   42.8860 C.3   616  ARG616      0.1729
    172  C        -15.4050   -7.9760   42.9180 C.2   616  ARG616      0.2616
    173  O        -15.9140   -6.8570   42.9050 O.2   616  ARG616     -0.2715
    174  CB       -16.4540   -9.7590   44.2990 C.3   616  ARG616      0.0348
    175  CG       -17.4290  -10.8900   44.4000 C.3   616  ARG616      0.0492
    176  CD       -17.3190  -11.4590   45.7990 C.3   616  ARG616      0.2205
    177  NE       -18.6000  -11.8520   46.3660 N.pl3 616  ARG616     -0.0865
    178  CZ       -19.0220  -13.1040   46.4950 C.cat 616  ARG616      0.5346
    179  NH1      -18.2630  -14.1200   46.0760 N.pl3 616  ARG616      0.1354
    180  NH2      -20.2160  -13.3380   47.0500 N.pl3 616  ARG616      0.1354
    181  N        -14.0880   -8.1660   42.9750 N.am  617  ALA617     -0.1977
    182  CA       -13.1580   -7.0500   42.9210 C.3   617  ALA617      0.1597
    183  C        -13.3440   -6.1970   41.6500 C.2   617  ALA617      0.2287
    184  O        -13.3500   -4.9790   41.7080 O.2   617  ALA617     -0.2864
    185  CB       -11.7250   -7.5740   42.9730 C.3   617  ALA617      0.0319
@<TRIPOS>BOND
     1   162   160   am
     2   137   135    1
     3   161   160    2
     4   142   143    1
     5   142   139    1
     6   160   159    1
     7   141   140    2
     8   138   139    1
     9   138   133   am
    10   135   132    1
    11   135   136    1
    12   132   131    1
    13   132   133    1
    14   143   144    1
    15   139   140    1
    16   145   144    2
    17   133   134    2
    18   140   147   am
    19   159   156    1
    20   124   125    2
    21   124   123    1
    22   144   146   am
    23   116   115    2
    24   122   123    1
    25   123   126    1
    26   126   127    1
    27   154   152    1
    28   147   148    1
    29   155   156    1
    30   155   149   am
    31   156   157    1
    32   115   114    1
    33   120   119   ar
    34   148   149    1
    35   148   151    1
    36   149   150    2
    37   127   128    1
    38   157   158    2
    39   119   118    1
    40   119   121   ar
    41   152   151    1
    42   118   117    1
    43   117   114    1
    44   114   113    1
    45   151   153    1
    46   128   129    2
    47   128   130   am
    48   109   108    2
    49   113   108   am
    50   108   107    1
    51   163   164    1
    52   107   106    1
    53   107   110    1
    54   169   167    1
    55   164   167    1
    56   164   165    1
    57   168   167    1
    58    57    55    1
    59   166   165    2
    60   110   112    1
    61   110   111    1
    62   165   170   am
    63    55    56    1
    64    55    52    1
    65   183   184    2
    66   183   182    1
    67    54    53    2
    68   170   171    1
    69    53    52    1
    70    78    76    1
    71    52    51    1
    72    75    76    2
    73    75    74    1
    74    69    70    1
    75    69    72    1
    76    69    68    1
    77    73    74    1
    78    73    72    1
    79    70    71    2
    80   171   172    1
    81   171   174    1
    82   173   172    2
    83   172   181   am
    84   182   185    1
    85   182   181    1
    86    76    77    1
    87    39    38    2
    88    32    31    2
    89    37    38    1
    90    37    36    1
    91    51    46   am
    92    38    40   am
    93   174   175    1
    94    31    36   am
    95    31    30    1
    96   175   176    1
    97    47    46    2
    98    46    45    1
    99    30    33    1
   100    30    29    1
   101    40    41    1
   102   176   177    1
   103    33    34    1
   104    33    35    1
   105    41    42    1
   106    23    22    2
   107    43    42    2
   108    42    44   am
   109   179   178    1
   110    44    45    1
   111    45    48    1
   112   177   178    2
   113   178   180    1
   114    83    84    1
   115    83    80    1
   116    29    22   am
   117    48    50    1
   118    48    49    1
   119    22    21    1
   120    79    80    1
   121    80    81    1
   122    21    24    1
   123    21    20    1
   124    24    25    1
   125    81    82    2
   126    27    28    1
   127    27    26    1
   128    10     8   ar
   129    10     9   ar
   130    20    13   am
   131   105   103    1
   132   104   103    1
   133     8     6   ar
   134     9     7   ar
   135    14    13    2
   136   103   102    2
   137     6     7   ar
   138     6     5    1
   139    25    26    1
   140    13    12    1
   141     2     5    1
   142     2     1    1
   143     2     3    1
   144   102   101    1
   145     3     4    2
   146   101   100    1
   147    12    11    1
   148    12    15    1
   149    85    86    1
   150    89    86    1
   151    89    90    1
   152    91    90   ar
   153    91    93   ar
   154    86    87    1
   155    90    92   ar
   156    93    94   ar
   157    15    16    1
   158   100    99    1
   159    92    94   ar
   160    66    64   ar
   161    66    67   ar
   162    99    96    1
   163    64    63   ar
   164    87    88    2
   165    16    17    1
   166    67    65   ar
   167    18    17    2
   168    95    96    1
   169    96    97    1
   170    17    19   am
   171    63    65   ar
   172    63    62    1
   173    97    98    2
   174    62    59    1
   175    59    60    1
   176    59    58    1
   177    60    61    2
