@<TRIPOS>MOLECULE
tmp/5t0aB09.pdb
 141 137 0 0 0
SMALL
GASTEIGER

@<TRIPOS>ATOM
      1  N         18.2220    6.7690    8.5580 N.3    11  ASN11      -0.1240
      2  CA        17.1060    5.9740    8.0620 C.3    11  ASN11       0.1653
      3  C         16.8040    6.2460    6.5900 C.2    11  ASN11       0.2266
      4  O         17.0200    7.3530    6.0900 O.2    11  ASN11      -0.2867
      5  CB        15.8550    6.2240    8.8880 C.3    11  ASN11       0.1155
      6  CG        14.8670    5.0680    8.8110 C.2    11  ASN11       0.2627
      7  OD1       15.2470    3.8950    8.8610 O.2    11  ASN11      -0.2716
      8  ND2       13.6010    5.3960    8.6850 N.am   11  ASN11      -0.0877
      9  N         14.1760    6.7600    4.9410 N.3    13  ASP13      -0.1225
     10  CA        13.1570    7.7490    4.5810 C.3    13  ASP13       0.1805
     11  C         13.6490    9.1950    4.6800 C.2    13  ASP13       0.2597
     12  O         12.8890   10.1130    4.3970 O.2    13  ASP13      -0.2718
     13  CB        11.8800    7.5760    5.4020 C.3    13  ASP13       0.1424
     14  CG        12.1150    7.6850    6.8900 C.2    13  ASP13       0.3668
     15  OD1       13.2630    7.9720    7.3030 O.co2  13  ASP13      -0.2456
     16  OD2       11.1330    7.4850    7.6390 O.co2  13  ASP13      -0.2456
     17  N         14.9100    9.3920    5.0580 N.am   14  LYS14      -0.1979
     18  CA        15.4610   10.7390    5.2120 C.3    14  LYS14       0.1596
     19  C         16.3330   11.1010    4.0110 C.2    14  LYS14       0.2287
     20  O         16.5810   10.2600    3.1510 O.2    14  LYS14      -0.2864
     21  CB        16.2580   10.8490    6.5090 C.3    14  LYS14       0.0298
     22  CG        15.4640   10.5310    7.7530 C.3    14  LYS14       0.0038
     23  CD        14.1620   11.3010    7.8170 C.3    14  LYS14       0.0206
     24  CE        13.5110   11.1690    9.1780 C.3    14  LYS14       0.1093
     25  NZ        13.4350    9.7370    9.5760 N.3    14  LYS14      -0.1314
     26  N         18.7950    9.1920   14.2790 N.3    61  TRP61      -0.1227
     27  CA        17.4680    8.6620   14.5510 C.3    61  TRP61       0.1737
     28  C         16.7600    9.7340   15.3510 C.2    61  TRP61       0.2595
     29  O         17.4080   10.6740   15.8210 O.2    61  TRP61      -0.2718
     30  CB        17.5600    7.3480   15.3470 C.3    61  TRP61       0.0564
     31  CG        16.2890    6.5710   15.3500 C.ar   61  TRP61       0.0003
     32  CD1       15.3340    6.5660   16.3130 C.ar   61  TRP61       0.0946
     33  CD2       15.8280    5.6900   14.3170 C.ar   61  TRP61       0.0152
     34  NE1       14.3000    5.7200   15.9530 N.ar   61  TRP61      -0.2442
     35  CE2       14.5870    5.1710   14.7310 C.ar   61  TRP61       0.0810
     36  CE3       16.3550    5.2790   13.0860 C.ar   61  TRP61       0.0012
     37  CZ2       13.8540    4.2730   13.9500 C.ar   61  TRP61       0.0191
     38  CZ3       15.6350    4.3800   12.3190 C.ar   61  TRP61       0.0001
     39  CH2       14.3990    3.8880   12.7510 C.ar   61  TRP61       0.0015
     40  N         15.4390    9.6340   15.4760 N.am   62  ALA62      -0.1980
     41  CA        14.7150   10.4700   16.4090 C.3    62  ALA62       0.1597
     42  C         15.3020   10.2380   17.8110 C.2    62  ALA62       0.2287
     43  O         15.8040    9.1480   18.1150 O.2    62  ALA62      -0.2864
     44  CB        13.2280   10.1540   16.3850 C.3    62  ALA62       0.0319
     45  N         14.1630    9.5960   20.6170 N.3    64  ASP64      -0.1239
     46  CA        13.5540    8.6740   21.5830 C.3    64  ASP64       0.1674
     47  C         14.4200    7.4380   21.7910 C.2    64  ASP64       0.2266
     48  O         14.3590    6.8010   22.8470 O.2    64  ASP64      -0.2867
     49  CB        12.1310    8.2660   21.1840 C.3    64  ASP64       0.1410
     50  CG        12.0850    7.4920   19.8780 C.2    64  ASP64       0.3668
     51  OD1       12.6620    7.9740   18.8810 O.co2  64  ASP64      -0.2456
     52  OD2       11.4680    6.3990   19.8520 O.co2  64  ASP64      -0.2456
     53  N         10.3340   16.9510   14.0900 N.3   110  GLU110     -0.1245
     54  CA         9.3500   16.2510   13.2470 C.3   110  GLU110      0.1567
     55  C          8.0310   16.0530   13.9720 C.2   110  GLU110      0.2260
     56  O          8.0100   15.7100   15.1560 O.2   110  GLU110     -0.2867
     57  CB         9.8590   14.8560   12.8930 C.3   110  GLU110      0.0388
     58  CG        11.1730   14.7990   12.1830 C.3   110  GLU110      0.1160
     59  CD        11.7500   13.3830   12.1260 C.2   110  GLU110      0.3649
     60  OE1       11.0860   12.4410   12.6100 O.co2 110  GLU110     -0.2457
     61  OE2       12.8690   13.2080   11.6010 O.co2 110  GLU110     -0.2457
     62  N         -0.0980    4.6970    7.0850 N.3   149  ASN149     -0.1240
     63  CA         0.5950    3.5100    7.5520 C.3   149  ASN149      0.1653
     64  C          0.0100    2.9870    8.8680 C.2   149  ASN149      0.2266
     65  O          0.0270    3.6810    9.8810 O.2   149  ASN149     -0.2867
     66  CB         2.0800    3.8150    7.7140 C.3   149  ASN149      0.1155
     67  CG         2.8910    2.5900    8.0440 C.2   149  ASN149      0.2627
     68  OD1        2.3770    1.4640    8.0710 O.2   149  ASN149     -0.2716
     69  ND2        4.1790    2.7940    8.2810 N.am  149  ASN149     -0.0877
     70  N          3.0050    0.8290   11.7120 N.3   152  GLU152     -0.1245
     71  CA         3.8930    1.4850   12.6900 C.3   152  GLU152      0.1567
     72  C          3.0740    2.3540   13.6490 C.2   152  GLU152      0.2260
     73  O          2.2990    3.2090   13.2040 O.2   152  GLU152     -0.2867
     74  CB         4.9510    2.3170   11.9790 C.3   152  GLU152      0.0388
     75  CG         6.0980    1.4950   11.3810 C.3   152  GLU152      0.1160
     76  CD         7.0480    0.9290   12.4380 C.2   152  GLU152      0.3649
     77  OE1        6.9750    1.3570   13.6190 O.co2 152  GLU152     -0.2457
     78  OE2        7.8810    0.0660   12.0820 O.co2 152  GLU152     -0.2457
     79  N          3.6770    4.8080   15.5000 N.3   154  TYR154     -0.1227
     80  CA         3.9140    6.2460   15.3280 C.3   154  TYR154      0.1736
     81  C          2.7220    6.9370   14.6690 C.2   154  TYR154      0.2595
     82  O          2.2980    8.0080   15.1090 O.2   154  TYR154     -0.2718
     83  CB         5.1890    6.4370   14.5020 C.3   154  TYR154      0.0548
     84  CG         5.6570    7.8670   14.2830 C.ar  154  TYR154     -0.0200
     85  CD1        6.1860    8.6250   15.3280 C.ar  154  TYR154     -0.0009
     86  CD2        5.6220    8.4400   13.0050 C.ar  154  TYR154     -0.0009
     87  CE1        6.6460    9.9320   15.1110 C.ar  154  TYR154      0.0417
     88  CE2        6.0740    9.7350   12.7830 C.ar  154  TYR154      0.0417
     89  CZ         6.5840   10.4720   13.8350 C.ar  154  TYR154      0.1957
     90  OH         7.0170   11.7510   13.6080 O.3   154  TYR154     -0.2866
     91  N          2.1360    6.2900   13.6610 N.am  155  PHE155     -0.1976
     92  CA         1.1110    6.9230   12.8310 C.3   155  PHE155      0.1639
     93  C         -0.2790    6.8660   13.4600 C.2   155  PHE155      0.2290
     94  O         -1.1290    7.7260   13.1900 O.2   155  PHE155     -0.2864
     95  CB         1.1010    6.2740   11.4490 C.3   155  PHE155      0.0560
     96  CG         2.3950    6.4640   10.6850 C.ar  155  PHE155     -0.0200
     97  CD1        3.4530    5.6070   10.8700 C.ar  155  PHE155     -0.0042
     98  CD2        2.5370    7.5020    9.7810 C.ar  155  PHE155     -0.0042
     99  CE1        4.6310    5.7790   10.1900 C.ar  155  PHE155     -0.0003
    100  CE2        3.7280    7.6810    9.0980 C.ar  155  PHE155     -0.0003
    101  CZ         4.7710    6.8250    9.3030 C.ar  155  PHE155     -0.0000
    102  N          9.4500   14.4820    5.6680 N.3   229  TRP229     -0.1241
    103  CA        10.2190   13.7060    4.7270 C.3   229  TRP229      0.1605
    104  C          9.3870   13.2540    3.5010 C.2   229  TRP229      0.2264
    105  O          9.9500   12.9720    2.4370 O.2   229  TRP229     -0.2867
    106  CB        10.8170   12.4900    5.4310 C.3   229  TRP229      0.0550
    107  CG         9.7790   11.6720    6.0980 C.ar  229  TRP229      0.0003
    108  CD1        9.0220   10.6940    5.5310 C.ar  229  TRP229      0.0946
    109  CD2        9.3510   11.7780    7.4590 C.ar  229  TRP229      0.0152
    110  NE1        8.1500   10.1770    6.4540 N.ar  229  TRP229     -0.2442
    111  CE2        8.3350   10.8210    7.6490 C.ar  229  TRP229      0.0810
    112  CE3        9.7380   12.5800    8.5400 C.ar  229  TRP229      0.0012
    113  CZ2        7.6930   10.6450    8.8740 C.ar  229  TRP229      0.0191
    114  CZ3        9.1040   12.4020    9.7620 C.ar  229  TRP229      0.0001
    115  CH2        8.0880   11.4410    9.9160 C.ar  229  TRP229      0.0015
    116  N          9.2380   13.9880   17.3770 N.3   259  GLY259     -0.1225
    117  CA        10.6100   13.5250   17.3350 C.3   259  GLY259      0.1811
    118  C         11.5790   14.6240   16.9210 C.2   259  GLY259      0.2280
    119  O         11.2630   15.4900   16.0990 O.2   259  GLY259     -0.2866
    120  N          8.6870   13.3160   22.6320 N.3   329  MET329     -0.1245
    121  CA         8.8610   11.9530   23.0910 C.3   329  MET329      0.1570
    122  C          9.8350   11.9710   24.2440 C.2   329  MET329      0.2261
    123  O         10.7860   12.7560   24.2310 O.2   329  MET329     -0.2867
    124  CB         9.4130   11.0710   21.9840 C.3   329  MET329      0.0387
    125  CG         8.3680   10.7290   20.9210 C.3   329  MET329      0.0595
    126  SD         8.9490    9.4890   19.7680 S.3   329  MET329     -0.1393
    127  CE        10.1840   10.3450   18.8320 C.3   329  MET329      0.0692
    128  N          7.0990    1.2470   22.4660 N.3   339  TRP339     -0.1241
    129  CA         6.7840    1.2250   21.0380 C.3   339  TRP339      0.1605
    130  C          6.4970   -0.2040   20.5400 C.2   339  TRP339      0.2264
    131  O          5.5150   -0.4230   19.8210 O.2   339  TRP339     -0.2867
    132  CB         7.9190    1.8330   20.2050 C.3   339  TRP339      0.0550
    133  CG         7.9830    3.3620   20.1400 C.ar  339  TRP339      0.0003
    134  CD1        9.0790    4.1400   20.4080 C.ar  339  TRP339      0.0946
    135  CD2        6.9380    4.2740   19.7410 C.ar  339  TRP339      0.0152
    136  NE1        8.7790    5.4710   20.2140 N.ar  339  TRP339     -0.2442
    137  CE2        7.4760    5.5820   19.8090 C.ar  339  TRP339      0.0810
    138  CE3        5.6060    4.1160   19.3450 C.ar  339  TRP339      0.0012
    139  CZ2        6.7300    6.7160   19.4950 C.ar  339  TRP339      0.0191
    140  CZ3        4.8640    5.2460   19.0390 C.ar  339  TRP339      0.0001
    141  CH2        5.4310    6.5320   19.1170 C.ar  339  TRP339      0.0015
@<TRIPOS>BOND
     1   105   104    2
     2    20    19    2
     3   104   103    1
     4    19    18    1
     5    12    11    2
     6    10    11    1
     7    10     9    1
     8    10    13    1
     9    11    17   am
    10   103   106    1
    11   103   102    1
    12    17    18    1
    13    18    21    1
    14    13    14    1
    15   106   107    1
    16   108   107   ar
    17   108   110   ar
    18     4     3    2
    19   107   109   ar
    20   110   111   ar
    21    21    22    1
    22     3     2    1
    23    14    15   ar
    24    14    16   ar
    25    62    63    1
    26   109   111   ar
    27   109   112   ar
    28    63    66    1
    29    63    64    1
    30   111   113   ar
    31    66    67    1
    32    22    23    1
    33    23    24    1
    34    67    68    2
    35    67    69   am
    36     2     1    1
    37     2     5    1
    38   112   114   ar
    39     8     6   am
    40     6     7    2
    41     6     5    1
    42    64    65    2
    43   113   115   ar
    44   100   101   ar
    45   100    98   ar
    46    24    25    1
    47   101    99   ar
    48   114   115   ar
    49    98    96   ar
    50    99    97   ar
    51    96    97   ar
    52    96    95    1
    53    75    74    1
    54    75    76    1
    55    95    92    1
    56    61    59   ar
    57    70    71    1
    58    74    71    1
    59    78    76   ar
    60    59    58    1
    61    59    60   ar
    62    58    57    1
    63    38    39   ar
    64    38    36   ar
    65    76    77   ar
    66    71    72    1
    67    39    37   ar
    68    88    86   ar
    69    88    89   ar
    70    92    93    1
    71    92    91    1
    72    57    54    1
    73    86    84   ar
    74    36    33   ar
    75    94    93    2
    76    73    72    2
    77    54    55    1
    78    54    53    1
    79    90    89    1
    80    91    81   am
    81    89    87   ar
    82    37    35   ar
    83    55    56    2
    84    26    27    1
    85    84    83    1
    86    84    85   ar
    87    33    35   ar
    88    33    31   ar
    89    83    80    1
    90    27    30    1
    91    27    28    1
    92    81    82    2
    93    81    80    1
    94    35    34   ar
    95    87    85   ar
    96    80    79    1
    97    30    31    1
    98    31    32   ar
    99    28    40   am
   100    28    29    2
   101    40    41    1
   102    34    32   ar
   103   119   118    2
   104    44    41    1
   105    41    42    1
   106   118   117    1
   107   117   116    1
   108    42    43    2
   109   127   126    1
   110    51    50   ar
   111   140   141   ar
   112   140   138   ar
   113   141   139   ar
   114   138   135   ar
   115   139   137   ar
   116   135   137   ar
   117   135   133   ar
   118   126   125    1
   119   137   136   ar
   120   131   130    2
   121    52    50   ar
   122    50    49    1
   123   133   132    1
   124   133   134   ar
   125   132   129    1
   126   136   134   ar
   127   130   129    1
   128    45    46    1
   129   125   124    1
   130   129   128    1
   131    49    46    1
   132    46    47    1
   133    47    48    2
   134   124   121    1
   135   120   121    1
   136   121   122    1
   137   123   122    2
