@<TRIPOS>MOLECULE
tmp/5t0bA02.pdb
 124 117 0 0 0
SMALL
GASTEIGER

@<TRIPOS>ATOM
      1  N        132.6790    6.7010   98.4240 N.3    93  TYR93      -0.1241
      2  CA       131.3280    6.9410   98.9050 C.3    93  TYR93       0.1605
      3  C        131.3980    7.0620  100.4200 C.2    93  TYR93       0.2264
      4  O        131.8320    6.1220  101.0800 O.2    93  TYR93      -0.2867
      5  CB       130.3770    5.8110   98.4870 C.3    93  TYR93       0.0534
      6  CG       128.9250    6.1940   98.6050 C.ar   93  TYR93      -0.0201
      7  CD1      128.2830    6.2120   99.8400 C.ar   93  TYR93      -0.0009
      8  CD2      128.1870    6.5400   97.4720 C.ar   93  TYR93      -0.0009
      9  CE1      126.9610    6.5670   99.9410 C.ar   93  TYR93       0.0417
     10  CE2      126.8720    6.9050   97.5670 C.ar   93  TYR93       0.0417
     11  CZ       126.2580    6.9140   98.7950 C.ar   93  TYR93       0.1957
     12  OH       124.9340    7.2750   98.8650 O.3    93  TYR93      -0.2866
     13  N        122.5890   -1.1860   88.3150 N.3   131  ARG131     -0.1231
     14  CA       122.3420    0.2450   88.5040 C.3   131  ARG131      0.1694
     15  C        123.2190    0.7850   89.6740 C.2   131  ARG131      0.2593
     16  O        123.2450    1.9860   89.9490 O.2   131  ARG131     -0.2718
     17  CB       120.8410    0.4960   88.7500 C.3   131  ARG131      0.0321
     18  CG       120.4140    1.9390   89.0620 C.3   131  ARG131      0.0489
     19  CD       118.9120    2.0950   89.4300 C.3   131  ARG131      0.2205
     20  NE       117.9960    2.1150   88.2740 N.pl3 131  ARG131     -0.0865
     21  CZ       116.6810    1.8680   88.3350 C.cat 131  ARG131      0.5346
     22  NH1      116.1010    1.5820   89.4960 N.pl3 131  ARG131      0.1354
     23  NH2      115.9350    1.9160   87.2340 N.pl3 131  ARG131      0.1354
     24  N        123.9900   -0.0980   90.3120 N.am  132  GLY132     -0.1942
     25  CA       124.7140    0.2460   91.5380 C.3   132  GLY132      0.2014
     26  C        126.0240    0.9840   91.3360 C.2   132  GLY132      0.2639
     27  O        127.1280    0.4370   91.5020 O.2   132  GLY132     -0.2714
     28  N        125.8820    2.2580   91.0000 N.am  133  VAL133     -0.1963
     29  CA       126.9800    3.1400   90.6550 C.3   133  VAL133      0.1727
     30  C        126.8060    4.5810   91.1910 C.2   133  VAL133      0.2617
     31  O        125.6750    5.0100   91.4620 O.2   133  VAL133     -0.2715
     32  CB       127.1280    3.0870   89.1140 C.3   133  VAL133      0.0290
     33  CG1      127.6490    4.3110   88.5370 C.3   133  VAL133      0.0023
     34  CG2      127.8800    1.8370   88.6710 C.3   133  VAL133      0.0023
     35  N        127.9050    5.3310   91.3540 N.am  134  THR134     -0.1937
     36  CA       127.7880    6.6870   91.8970 C.3   134  THR134      0.2028
     37  C        128.8030    7.6990   91.3570 C.2   134  THR134      0.2642
     38  O        129.8770    7.3390   90.8800 O.2   134  THR134     -0.2714
     39  CB       127.9160    6.6800   93.4420 C.3   134  THR134      0.1808
     40  OG1      127.9990    8.0220   93.9400 O.3   134  THR134     -0.2208
     41  CG2      129.1390    5.8570   93.8980 C.3   134  THR134      0.0379
     42  N        128.4100    8.9700   91.4320 N.am  135  ASN135     -0.1971
     43  CA       129.2440   10.1290   91.1090 C.3   135  ASN135      0.1688
     44  C        130.4240   10.2760   92.0700 C.2   135  ASN135      0.2292
     45  O        131.4380   10.8880   91.7340 O.2   135  ASN135     -0.2864
     46  CB       128.4130   11.4160   91.1130 C.3   135  ASN135      0.1181
     47  CG       127.7910   11.7170   89.7560 C.2   135  ASN135      0.2629
     48  OD1      127.9960   10.9840   88.7820 O.2   135  ASN135     -0.2716
     49  ND2      127.0160   12.7950   89.6890 N.am  135  ASN135     -0.0877
     50  N        130.7470    7.6800   86.6010 N.3   144  SER144     -0.1217
     51  CA       130.0020    7.0190   87.6370 C.3   144  SER144      0.1889
     52  C        130.3620    5.5410   87.6590 C.2   144  SER144      0.2288
     53  O        130.2090    4.8490   86.6510 O.2   144  SER144     -0.2866
     54  CB       128.5050    7.2530   87.4080 C.3   144  SER144      0.2089
     55  OG       128.0490    8.3800   88.1310 O.3   144  SER144     -0.2183
     56  N        126.4470   -2.8490   94.6830 N.3   152  TRP152     -0.1241
     57  CA       125.3760   -2.0540   95.2410 C.3   152  TRP152      0.1605
     58  C        124.0500   -2.5080   94.6370 C.2   152  TRP152      0.2264
     59  O        123.6880   -2.0730   93.5430 O.2   152  TRP152     -0.2867
     60  CB       125.5900   -0.5660   94.9550 C.3   152  TRP152      0.0550
     61  CG       124.6250    0.3290   95.6680 C.ar  152  TRP152      0.0003
     62  CD1      123.5070   -0.0500   96.3520 C.ar  152  TRP152      0.0946
     63  CD2      124.7100    1.7510   95.7980 C.ar  152  TRP152      0.0152
     64  NE1      122.8770    1.0450   96.8800 N.ar  152  TRP152     -0.2442
     65  CE2      123.6050    2.1650   96.5700 C.ar  152  TRP152      0.0810
     66  CE3      125.6260    2.7130   95.3580 C.ar  152  TRP152      0.0012
     67  CZ2      123.3700    3.5070   96.8890 C.ar  152  TRP152      0.0191
     68  CZ3      125.3920    4.0520   95.6750 C.ar  152  TRP152      0.0001
     69  CH2      124.2770    4.4320   96.4400 C.ar  152  TRP152      0.0015
     70  N        120.0790   -2.9320   93.9640 N.3   154  VAL154     -0.1245
     71  CA       118.9190   -2.0600   93.9220 C.3   154  VAL154      0.1561
     72  C        117.6720   -2.8640   93.5170 C.2   154  VAL154      0.2260
     73  O        117.7630   -3.8640   92.8030 O.2   154  VAL154     -0.2867
     74  CB       119.1820   -0.8750   92.9690 C.3   154  VAL154      0.0252
     75  CG1      117.9180   -0.1770   92.5580 C.3   154  VAL154      0.0019
     76  CG2      120.1180    0.1240   93.6450 C.3   154  VAL154      0.0019
     77  N        123.8190    0.3590  103.3030 N.3   183  HIS183     -0.1241
     78  CA       123.5960    1.7150  102.8080 C.3   183  HIS183      0.1621
     79  C        122.5520    2.4480  103.6460 C.2   183  HIS183      0.2264
     80  O        121.4730    1.9200  103.9300 O.2   183  HIS183     -0.2867
     81  CB       123.1930    1.6830  101.3360 C.3   183  HIS183      0.0745
     82  CG       122.8940    3.0300  100.7620 C.ar  183  HIS183      0.0817
     83  ND1      121.6520    3.3660  100.2720 N.ar  183  HIS183     -0.2268
     84  CD2      123.6720    4.1280  100.6040 C.ar  183  HIS183      0.1154
     85  CE1      121.6780    4.6140   99.8360 C.ar  183  HIS183      0.1986
     86  NE2      122.8910    5.0990  100.0280 N.ar  183  HIS183     -0.2212
     87  N        119.9210    9.2990  102.8880 N.3   186  LEU186     -0.1245
     88  CA       119.6340   10.5860  103.5070 C.3   186  LEU186      0.1561
     89  C        118.1370   10.7050  103.7830 C.2   186  LEU186      0.2260
     90  O        117.7230   11.3470  104.7530 O.2   186  LEU186     -0.2867
     91  CB       120.1110   11.7480  102.6220 C.3   186  LEU186      0.0270
     92  CG       119.2970   12.0370  101.3570 C.3   186  LEU186      0.0019
     93  CD1      118.5380   13.3240  101.5520 C.3   186  LEU186      0.0001
     94  CD2      120.1720   12.1080  100.1190 C.3   186  LEU186      0.0001
     95  N        114.5480    8.4830   99.1470 N.3   190  VAL190     -0.1245
     96  CA       115.5930    7.7180   98.4790 C.3   190  VAL190      0.1561
     97  C        115.5110    6.2550   98.9200 C.2   190  VAL190      0.2260
     98  O        115.6990    5.3320   98.1160 O.2   190  VAL190     -0.2867
     99  CB       116.9930    8.3190   98.7700 C.3   190  VAL190      0.0252
    100  CG1      118.0900    7.4220   98.2420 C.3   190  VAL190      0.0019
    101  CG2      117.1080    9.7060   98.1340 C.3   190  VAL190      0.0019
    102  N        114.9870    3.3690   96.0960 N.3   194  LEU194     -0.1245
    103  CA       116.0170    2.3360   95.8560 C.3   194  LEU194      0.1561
    104  C        115.6520    0.9170   96.3230 C.2   194  LEU194      0.2260
    105  O        115.9970   -0.0700   95.6820 O.2   194  LEU194     -0.2867
    106  CB       117.3330    2.7440   96.5340 C.3   194  LEU194      0.0270
    107  CG       118.3350    3.5970   95.7500 C.3   194  LEU194      0.0019
    108  CD1      117.7430    4.9130   95.3590 C.3   194  LEU194      0.0001
    109  CD2      119.6220    3.8160   96.5790 C.3   194  LEU194      0.0001
    110  N        127.6450   13.7310   98.7350 N.3   226  GLN226     -0.1245
    111  CA       126.7200   12.7500   99.3020 C.3   226  GLN226      0.1566
    112  C        126.3360   13.0710  100.7550 C.2   226  GLN226      0.2260
    113  O        127.1980   13.3260  101.6130 O.2   226  GLN226     -0.2867
    114  CB       127.3370   11.3540   99.2140 C.3   226  GLN226      0.0367
    115  CG       127.7810   11.0060   97.8000 C.3   226  GLN226      0.0905
    116  CD       126.6180   10.7300   96.8480 C.2   226  GLN226      0.2608
    117  OE1      125.4950   10.4640   97.2780 O.2   226  GLN226     -0.2717
    118  NE2      126.8840   10.8270   95.5460 N.am  226  GLN226     -0.0878
    119  N        124.1270   10.8520  102.0560 N.3   228  SER228     -0.1217
    120  CA       123.8920    9.4740  102.4950 C.3   228  SER228      0.1889
    121  C        125.2250    8.8900  102.9510 C.2   228  SER228      0.2288
    122  O        126.2630    9.5200  102.7390 O.2   228  SER228     -0.2866
    123  CB       123.2960    8.6140  101.3740 C.3   228  SER228      0.2089
    124  OG       121.9670    8.9820  101.0770 O.3   228  SER228     -0.2183
@<TRIPOS>BOND
     1    50    51    1
     2    53    52    2
     3    23    21    1
     4    54    51    1
     5    54    55    1
     6    51    52    1
     7    20    21    2
     8    20    19    1
     9    13    14    1
    10    21    22    1
    11    14    17    1
    12    14    15    1
    13    33    32    1
    14    34    32    1
    15    17    18    1
    16    48    47    2
    17    18    19    1
    18    32    29    1
    19    15    16    2
    20    15    24   am
    21    49    47   am
    22    47    46    1
    23    24    25    1
    24    29    28    1
    25    29    30    1
    26    38    37    2
    27    28    26   am
    28    43    46    1
    29    43    42    1
    30    43    44    1
    31    30    35   am
    32    30    31    2
    33    26    27    2
    34    26    25    1
    35    35    36    1
    36    37    42   am
    37    37    36    1
    38    45    44    2
    39    36    39    1
    40    75    74    1
    41    73    72    2
    42    74    76    1
    43    74    71    1
    44    39    41    1
    45    39    40    1
    46    72    71    1
    47    59    58    2
    48    71    70    1
    49    58    57    1
    50    56    57    1
    51    60    57    1
    52    60    61    1
    53    66    68   ar
    54    66    63   ar
    55   108   107    1
    56   118   116   am
    57    61    63   ar
    58    61    62   ar
    59    68    69   ar
    60   105   104    2
    61   107   106    1
    62   107   109    1
    63    63    65   ar
    64   103   102    1
    65   103   104    1
    66   103   106    1
    67    62    64   ar
    68    69    67   ar
    69    65    64   ar
    70    65    67   ar
    71   116   117    2
    72   116   115    1
    73     8    10   ar
    74     8     6   ar
    75    10    11   ar
    76   115   114    1
    77    98    97    2
    78   101    99    1
    79   100    99    1
    80     1     2    1
    81    96    99    1
    82    96    97    1
    83    96    95    1
    84     5     6    1
    85     5     2    1
    86     6     7   ar
    87   110   111    1
    88    11    12    1
    89    11     9   ar
    90     2     3    1
    91   114   111    1
    92   111   112    1
    93    85    86   ar
    94    85    83   ar
    95     7     9   ar
    96    86    84   ar
    97    94    92    1
    98    83    82   ar
    99     3     4    2
   100    84    82   ar
   101   112   113    2
   102    82    81    1
   103   124   123    1
   104    81    78    1
   105    92    93    1
   106    92    91    1
   107   123   120    1
   108   119   120    1
   109   120   121    1
   110    91    88    1
   111   122   121    2
   112    78    77    1
   113    78    79    1
   114    87    88    1
   115    88    89    1
   116    79    80    2
   117    89    90    2
