@<TRIPOS>MOLECULE
tmp/5t0cN01.pdb
 172 162 0 0 0
SMALL
GASTEIGER

@<TRIPOS>ATOM
      1  N        255.8530  371.2580  231.9060 N.3    94  ASP94      -0.1225
      2  CA       257.2880  371.2970  232.1600 C.3    94  ASP94       0.1805
      3  C        257.7950  370.0440  232.8600 C.2    94  ASP94       0.2598
      4  O        259.0040  369.9180  233.0780 O.2    94  ASP94      -0.2718
      5  CB       257.6370  372.5300  232.9950 C.3    94  ASP94       0.1424
      6  CG       257.1420  373.8180  232.3650 C.2    94  ASP94       0.3668
      7  OD1      256.9290  373.8380  231.1340 O.co2  94  ASP94      -0.2456
      8  OD2      256.9620  374.8110  233.1020 O.co2  94  ASP94      -0.2456
      9  N        256.9010  369.1320  233.2280 N.am   95  ILE95      -0.1966
     10  CA       257.2530  367.8520  233.8280 C.3    95  ILE95       0.1727
     11  C        256.6650  366.7540  232.9520 C.2    95  ILE95       0.2616
     12  O        255.6670  366.9600  232.2550 O.2    95  ILE95      -0.2715
     13  CB       256.7400  367.7470  235.2780 C.3    95  ILE95       0.0290
     14  CG1      255.2120  367.7310  235.2990 C.3    95  ILE95       0.0022
     15  CG2      257.2420  368.9230  236.0900 C.3    95  ILE95       0.0023
     16  CD1      254.6010  367.9230  236.6710 C.3    95  ILE95       0.0001
     17  N        257.2980  365.5840  232.9740 N.am   96  GLY96      -0.1955
     18  CA       256.9250  364.5310  232.0570 C.3    96  GLY96       0.1869
     19  C        256.9420  363.1700  232.7180 C.2    96  GLY96       0.2309
     20  O        257.5080  362.9780  233.7980 O.2    96  GLY96      -0.2863
     21  N        254.5230  361.5560  234.0690 N.3    98  LEU98      -0.1245
     22  CA       253.3940  361.3870  234.9730 C.3    98  LEU98       0.1561
     23  C        252.0660  361.7510  234.3250 C.2    98  LEU98       0.2260
     24  O        251.0830  361.9850  235.0350 O.2    98  LEU98      -0.2867
     25  CB       253.6150  362.2100  236.2420 C.3    98  LEU98       0.0270
     26  CG       254.0810  363.6660  236.1220 C.3    98  LEU98       0.0019
     27  CD1      252.9640  364.6150  235.7180 C.3    98  LEU98       0.0001
     28  CD2      254.7030  364.1120  237.4320 C.3    98  LEU98       0.0001
     29  N        262.0710  361.1610  248.6240 N.3   137  GLY137     -0.1210
     30  CA       261.9430  362.5020  249.1500 C.3   137  GLY137      0.1956
     31  C        261.2160  363.4240  248.1970 C.2   137  GLY137      0.2613
     32  O        261.5700  364.5990  248.0690 O.2   137  GLY137     -0.2717
     33  N        260.2000  362.8970  247.5200 N.am  138  THR138     -0.1938
     34  CA       259.4420  363.6620  246.5440 C.3   138  THR138      0.2028
     35  C        258.2400  364.2880  247.2570 C.2   138  THR138      0.2643
     36  O        258.2400  364.4360  248.4830 O.2   138  THR138     -0.2714
     37  CB       259.0860  362.7560  245.3600 C.3   138  THR138      0.1808
     38  OG1      258.6540  361.4800  245.8410 O.3   138  THR138     -0.2208
     39  CG2      260.3340  362.5300  244.5140 C.3   138  THR138      0.0379
     40  N        257.2020  364.6640  246.5190 N.am  139  GLY139     -0.1939
     41  CA       256.0840  365.3420  247.1410 C.3   139  GLY139      0.2014
     42  C        256.0400  366.8070  246.7750 C.2   139  GLY139      0.2639
     43  O        254.9970  367.3140  246.3490 O.2   139  GLY139     -0.2714
     44  N        257.1660  367.5050  246.9330 N.am  140  LYS140     -0.1963
     45  CA       257.3440  368.7210  246.1550 C.3   140  LYS140      0.1728
     46  C        257.5470  368.3990  244.6830 C.2   140  LYS140      0.2616
     47  O        257.2520  369.2430  243.8290 O.2   140  LYS140     -0.2715
     48  CB       258.5010  369.5550  246.7030 C.3   140  LYS140      0.0311
     49  CG       258.6630  370.9280  246.0870 C.3   140  LYS140      0.0038
     50  CD       259.6490  371.7730  246.8790 C.3   140  LYS140      0.0206
     51  CE       260.9980  371.0890  247.0260 C.3   140  LYS140      0.1093
     52  NZ       261.8950  371.8480  247.9440 N.3   140  LYS140     -0.1314
     53  N        258.0100  367.1850  244.3660 N.am  141  THR141     -0.1951
     54  CA       257.8540  366.6770  243.0080 C.3   141  THR141      0.1897
     55  C        256.3920  366.7160  242.5890 C.2   141  THR141      0.2313
     56  O        256.0820  366.9190  241.4090 O.2   141  THR141     -0.2863
     57  CB       258.4010  365.2520  242.9010 C.3   141  THR141      0.1794
     58  OG1      259.7890  365.2430  243.2550 O.3   141  THR141     -0.2208
     59  CG2      258.2570  364.7330  241.4880 C.3   141  THR141      0.0378
     60  N        254.5290  369.0430  244.0770 N.3   143  LEU143     -0.1231
     61  CA       254.3540  370.4860  243.9520 C.3   143  LEU143      0.1693
     62  C        254.7550  370.9740  242.5650 C.2   143  LEU143      0.2591
     63  O        254.4900  372.1290  242.2240 O.2   143  LEU143     -0.2718
     64  CB       255.1520  371.2270  245.0410 C.3   143  LEU143      0.0284
     65  CG       255.2080  372.7640  245.1280 C.3   143  LEU143      0.0019
     66  CD1      255.2300  373.2140  246.5880 C.3   143  LEU143      0.0001
     67  CD2      256.3970  373.3560  244.3670 C.3   143  LEU143      0.0001
     68  N        255.4010  370.1220  241.7670 N.am  144  ALA144     -0.1980
     69  CA       255.4380  370.3500  240.3320 C.3   144  ALA144      0.1597
     70  C        254.1010  370.0100  239.6850 C.2   144  ALA144      0.2287
     71  O        253.8460  370.4230  238.5480 O.2   144  ALA144     -0.2864
     72  CB       256.5690  369.5450  239.6910 C.3   144  ALA144      0.0319
     73  N        251.0420  369.0530  252.6620 N.3   193  ASP193     -0.1225
     74  CA       252.1160  368.1730  252.2260 C.3   193  ASP193      0.1805
     75  C        252.9440  367.7840  253.4370 C.2   193  ASP193      0.2597
     76  O        253.0840  368.5580  254.3870 O.2   193  ASP193     -0.2718
     77  CB       252.9950  368.8420  251.1530 C.3   193  ASP193      0.1424
     78  CG       254.1630  367.9670  250.7080 C.2   193  ASP193      0.3668
     79  OD1      253.9740  366.7460  250.5520 O.co2 193  ASP193     -0.2456
     80  OD2      255.2720  368.5110  250.5030 O.co2 193  ASP193     -0.2456
     81  N        253.4660  366.5610  253.3970 N.am  194  GLU194     -0.1979
     82  CA       254.3900  366.0380  254.4010 C.3   194  GLU194      0.1602
     83  C        253.8340  366.2470  255.8110 C.2   194  GLU194      0.2287
     84  O        254.3140  367.0660  256.5960 O.2   194  GLU194     -0.2864
     85  CB       255.7730  366.6810  254.2410 C.3   194  GLU194      0.0415
     86  CG       256.4000  366.4540  252.8670 C.3   194  GLU194      0.1163
     87  CD       256.7600  365.0020  252.6120 C.2   194  GLU194      0.3649
     88  OE1      257.0570  364.2780  253.5870 O.co2 194  GLU194     -0.2457
     89  OE2      256.7410  364.5820  251.4350 O.co2 194  GLU194     -0.2457
     90  N        255.5690  361.8500  252.1880 N.3   240  ASN240     -0.1240
     91  CA       256.5200  360.8020  251.8430 C.3   240  ASN240      0.1653
     92  C        255.9990  359.4400  252.2800 C.2   240  ASN240      0.2266
     93  O        256.0400  358.4700  251.5130 O.2   240  ASN240     -0.2867
     94  CB       257.8710  361.0810  252.5110 C.3   240  ASN240      0.1155
     95  CG       258.7050  362.1010  251.7570 C.2   240  ASN240      0.2627
     96  OD1      258.5980  362.2350  250.5400 O.2   240  ASN240     -0.2716
     97  ND2      259.5430  362.8330  252.4870 N.am  240  ASN240     -0.0877
     98  N        253.0370  358.0600  243.5590 N.3   261  PHE261     -0.1241
     99  CA       254.1160  358.6460  242.7790 C.3   261  PHE261      0.1605
    100  C        255.1460  357.5790  242.4430 C.2   261  PHE261      0.2264
    101  O        255.8870  357.1430  243.3370 O.2   261  PHE261     -0.2867
    102  CB       254.7700  359.8000  243.5390 C.3   261  PHE261      0.0534
    103  CG       256.0390  360.3100  242.9020 C.ar  261  PHE261     -0.0203
    104  CD1      255.9950  361.1960  241.8410 C.ar  261  PHE261     -0.0042
    105  CD2      257.2800  359.9060  243.3780 C.ar  261  PHE261     -0.0042
    106  CE1      257.1600  361.6530  241.2560 C.ar  261  PHE261     -0.0003
    107  CE2      258.4450  360.3630  242.7950 C.ar  261  PHE261     -0.0003
    108  CZ       258.3870  361.2440  241.7390 C.ar  261  PHE261     -0.0000
    109  N        260.8390  357.5430  238.1120 N.3   264  PRO264     -0.2116
    110  CA       260.8680  357.6300  236.6440 C.3   264  PRO264      0.1372
    111  C        261.5670  356.4420  236.0020 C.2   264  PRO264      0.2244
    112  O        262.4310  355.7960  236.6040 O.2   264  PRO264     -0.2868
    113  CB       261.6380  358.9300  236.3770 C.3   264  PRO264      0.0268
    114  CG       262.3910  359.2070  237.6430 C.3   264  PRO264      0.0207
    115  CD       261.5640  358.6540  238.7540 C.3   264  PRO264      0.0892
    116  N        261.4780  358.5330  230.9320 N.3   268  THR268     -0.1218
    117  CA       261.0760  359.6460  231.7810 C.3   268  THR268      0.1862
    118  C        262.2950  360.3820  232.3240 C.2   268  THR268      0.2287
    119  O        262.3420  361.6170  232.3060 O.2   268  THR268     -0.2866
    120  CB       260.1900  359.1490  232.9200 C.3   268  THR268      0.1770
    121  OG1      259.1440  358.3290  232.3840 O.3   268  THR268     -0.2211
    122  CG2      259.5760  360.3220  233.6590 C.3   268  THR268      0.0375
    123  N        263.2610  364.2280  231.4970 N.3   272  ILE272     -0.1245
    124  CA       263.4640  365.2740  232.4910 C.3   272  ILE272      0.1561
    125  C        264.8120  365.9500  232.2870 C.2   272  ILE272      0.2260
    126  O        264.9350  367.1780  232.3910 O.2   272  ILE272     -0.2867
    127  CB       263.3360  364.6740  233.9000 C.3   272  ILE272      0.0252
    128  CG1      261.9300  364.1180  234.0990 C.3   272  ILE272      0.0019
    129  CG2      263.6130  365.7240  234.9440 C.3   272  ILE272      0.0019
    130  CD1      261.8290  363.1660  235.2520 C.3   272  ILE272      0.0001
    131  N        264.3930  368.3150  229.7900 N.3   275  ILE275     -0.1231
    132  CA       263.6340  369.4640  230.2850 C.3   275  ILE275      0.1692
    133  C        264.5660  370.4760  230.9390 C.2   275  ILE275      0.2592
    134  O        264.4940  371.6800  230.6650 O.2   275  ILE275     -0.2718
    135  CB       262.5320  369.0060  231.2580 C.3   275  ILE275      0.0266
    136  CG1      261.3520  368.4130  230.4860 C.3   275  ILE275      0.0019
    137  CG2      262.0660  370.1620  232.1240 C.3   275  ILE275      0.0020
    138  CD1      260.4020  367.6170  231.3460 C.3   275  ILE275      0.0001
    139  N        265.4630  370.0040  231.8120 N.am  276  HIS276     -0.1976
    140  CA       266.3540  370.9170  232.5210 C.3   276  HIS276      0.1656
    141  C        267.4750  371.4450  231.6390 C.2   276  HIS276      0.2291
    142  O        267.8970  372.5930  231.8050 O.2   276  HIS276     -0.2864
    143  CB       266.9590  370.2360  233.7410 C.3   276  HIS276      0.0771
    144  CG       265.9710  369.9690  234.8260 C.ar  276  HIS276      0.0820
    145  ND1      265.6460  368.6950  235.2350 N.ar  276  HIS276     -0.2267
    146  CD2      265.2130  370.8100  235.5660 C.ar  276  HIS276      0.1154
    147  CE1      264.7440  368.7630  236.1960 C.ar  276  HIS276      0.1986
    148  NE2      264.4620  370.0340  236.4130 N.ar  276  HIS276     -0.2212
    149  N        265.0920  361.6660  240.7740 N.3   299  SER299     -0.1202
    150  CA       263.9460  362.4210  240.2870 C.3   299  SER299      0.2020
    151  C        264.4420  363.6680  239.5550 C.2   299  SER299      0.2619
    152  O        265.6080  363.7510  239.1560 O.2   299  SER299     -0.2717
    153  CB       263.0030  362.7780  241.4330 C.3   299  SER299      0.2103
    154  OG       263.5000  363.8860  242.1490 O.3   299  SER299     -0.2182
    155  N        263.5640  364.6570  239.3890 N.am  300  GLY300     -0.1942
    156  CA       263.8970  365.7940  238.5470 C.3   300  GLY300      0.2014
    157  C        264.9760  366.6760  239.1440 C.2   300  GLY300      0.2638
    158  O        265.9760  366.9730  238.4900 O.2   300  GLY300     -0.2714
    159  N        264.7870  367.1090  240.3920 N.am  301  ALA301     -0.1977
    160  CA       265.7150  368.0610  240.9920 C.3   301  ALA301      0.1597
    161  C        267.0790  367.4620  241.2990 C.2   301  ALA301      0.2287
    162  O        268.0020  368.2130  241.6280 O.2   301  ALA301     -0.2864
    163  CB       265.1190  368.6470  242.2680 C.3   301  ALA301      0.0319
    164  N        268.6040  367.8930  237.9300 N.3   304  LYS304     -0.1245
    165  CA       268.5770  369.3510  237.8580 C.3   304  LYS304      0.1561
    166  C        269.6770  369.9570  238.7190 C.2   304  LYS304      0.2260
    167  O        270.2710  370.9770  238.3440 O.2   304  LYS304     -0.2867
    168  CB       267.2030  369.8710  238.2910 C.3   304  LYS304      0.0271
    169  CG       267.1540  371.3670  238.5880 C.3   304  LYS304      0.0035
    170  CD       266.2130  371.6900  239.7450 C.3   304  LYS304      0.0206
    171  CE       264.7560  371.3790  239.4200 C.3   304  LYS304      0.1093
    172  NZ       264.2320  372.1930  238.2880 N.3   304  LYS304     -0.1314
@<TRIPOS>BOND
     1   131   132    1
     2   132   133    1
     3   132   135    1
     4   136   135    1
     5   136   138    1
     6   134   133    2
     7   116   117    1
     8   133   139   am
     9     7     6   ar
    10   135   137    1
    11   123   124    1
    12   141   142    2
    13   141   140    1
    14   117   118    1
    15   117   120    1
    16   139   140    1
    17     1     2    1
    18    18    19    1
    19    18    17    1
    20     2     3    1
    21     2     5    1
    22    12    11    2
    23   125   126    2
    24   125   124    1
    25   119   118    2
    26     6     5    1
    27     6     8   ar
    28   121   120    1
    29   124   127    1
    30   140   143    1
    31    19    20    2
    32     3     4    2
    33     3     9   am
    34   120   122    1
    35    11    17   am
    36    11    10    1
    37     9    10    1
    38   143   144    1
    39    10    13    1
    40   127   128    1
    41   127   129    1
    42    21    22    1
    43   128   130    1
    44    23    22    1
    45    23    24    2
    46   144   145   ar
    47   144   146   ar
    48    22    25    1
    49   145   147   ar
    50    13    14    1
    51    13    15    1
    52    14    16    1
    53   146   148   ar
    54    27    26    1
    55   111   112    2
    56   111   110    1
    57    26    25    1
    58    26    28    1
    59   147   148   ar
    60   113   110    1
    61   113   114    1
    62   110   109    1
    63   114   115    1
    64   165   164    1
    65   165   168    1
    66   165   166    1
    67   109   115    1
    68   172   171    1
    69   168   169    1
    70   167   166    2
    71   158   157    2
    72   156   157    1
    73   156   155    1
    74    71    70    2
    75   169   170    1
    76   157   159   am
    77   152   151    2
    78   155   151   am
    79   171   170    1
    80   151   150    1
    81    70    69    1
    82    72    69    1
    83   150   149    1
    84   150   153    1
    85    69    68    1
    86   159   160    1
    87   160   161    1
    88   160   163    1
    89   106   108   ar
    90   106   104   ar
    91   161   162    2
    92    56    55    2
    93   153   154    1
    94    59    57    1
    95   108   107   ar
    96    68    62   am
    97   104   103   ar
    98    63    62    2
    99   100    99    1
   100   100   101    2
   101    62    61    1
   102    55    54    1
   103    99   102    1
   104    99    98    1
   105   107   105   ar
   106    57    54    1
   107    57    58    1
   108   103   105   ar
   109   103   102    1
   110    54    53    1
   111    47    46    2
   112    61    60    1
   113    61    64    1
   114    53    46   am
   115    67    65    1
   116    39    37    1
   117    46    45    1
   118    64    65    1
   119    65    66    1
   120    37    38    1
   121    37    34    1
   122    49    48    1
   123    49    50    1
   124    45    48    1
   125    45    44    1
   126    43    42    2
   127    40    41    1
   128    40    35   am
   129    34    35    1
   130    34    33    1
   131    42    44   am
   132    42    41    1
   133    50    51    1
   134    51    52    1
   135    35    36    2
   136    33    31   am
   137    32    31    2
   138    31    30    1
   139    29    30    1
   140    80    78   ar
   141    96    95    2
   142    79    78   ar
   143    78    77    1
   144    77    74    1
   145    89    87   ar
   146    93    92    2
   147    95    97   am
   148    95    94    1
   149    91    90    1
   150    91    92    1
   151    91    94    1
   152    74    73    1
   153    74    75    1
   154    87    86    1
   155    87    88   ar
   156    86    85    1
   157    81    75   am
   158    81    82    1
   159    75    76    2
   160    85    82    1
   161    82    83    1
   162    83    84    2
