@<TRIPOS>MOLECULE
tmp/5t0hD00.pdb
 136 127 0 0 0
SMALL
GASTEIGER

@<TRIPOS>ATOM
      1  N        168.8360  115.5050  165.5440 N.3   129  ILE129     -0.1245
      2  CA       169.5660  116.3750  166.4600 C.3   129  ILE129      0.1561
      3  C        168.7730  116.4870  167.7570 C.2   129  ILE129      0.2260
      4  O        167.6820  117.0680  167.7870 O.2   129  ILE129     -0.2867
      5  CB       169.8300  117.7520  165.8370 C.3   129  ILE129      0.0252
      6  CG1      168.6140  118.2230  165.0330 C.3   129  ILE129      0.0019
      7  CG2      171.0700  117.7000  164.9600 C.3   129  ILE129      0.0019
      8  CD1      168.7450  119.6270  164.4850 C.3   129  ILE129      0.0001
      9  N        169.3440  120.0730  171.0850 N.3   132  MET132     -0.1245
     10  CA       168.5430  121.2780  171.2360 C.3   132  MET132      0.1570
     11  C        167.3040  121.0650  172.1000 C.2   132  MET132      0.2261
     12  O        166.4390  121.9450  172.1370 O.2   132  MET132     -0.2867
     13  CB       168.1600  121.8160  169.8560 C.3   132  MET132      0.0387
     14  CG       169.3780  122.1130  168.9910 C.3   132  MET132      0.0595
     15  SD       169.0040  122.4750  167.2680 S.3   132  MET132     -0.1393
     16  CE       170.6550  122.5850  166.5810 C.3   132  MET132      0.0692
     17  N        173.3820  132.5880  165.4200 N.3   169  PRO169     -0.2116
     18  CA       174.0550  131.8120  164.3690 C.3   169  PRO169      0.1372
     19  C        175.3370  132.4250  163.8050 C.2   169  PRO169      0.2244
     20  O        175.4020  133.6400  163.6140 O.2   169  PRO169     -0.2868
     21  CB       172.9970  131.7500  163.2730 C.3   169  PRO169      0.0268
     22  CG       172.3000  133.0450  163.3900 C.3   169  PRO169      0.0207
     23  CD       172.2410  133.3440  164.8660 C.3   169  PRO169      0.0892
     24  N        176.4640  128.9160  166.0620 N.3   171  GLY171     -0.1210
     25  CA       175.7080  127.8230  165.4700 C.3   171  GLY171      0.1956
     26  C        174.2740  128.1660  165.1240 C.2   171  GLY171      0.2612
     27  O        173.5750  128.8280  165.8900 O.2   171  GLY171     -0.2717
     28  N        173.8390  127.7100  163.9500 N.am  172  CYS172     -0.1956
     29  CA       172.6110  128.2350  163.3570 C.3   172  CYS172      0.1843
     30  C        171.3590  127.6540  164.0080 C.2   172  CYS172      0.2626
     31  O        170.6590  128.3450  164.7540 O.2   172  CYS172     -0.2714
     32  CB       172.6180  127.9780  161.8470 C.3   172  CYS172      0.0997
     33  SG       173.8830  128.9110  160.9520 S.3   172  CYS172     -0.0797
     34  N        171.0700  126.3830  163.7520 N.am  173  GLY173     -0.1940
     35  CA       169.7650  125.8740  164.1410 C.3   173  GLY173      0.2014
     36  C        168.7140  126.6380  163.3600 C.2   173  GLY173      0.2639
     37  O        168.6950  126.6180  162.1240 O.2   173  GLY173     -0.2714
     38  N        167.8170  127.3090  164.0850 N.am  174  LYS174     -0.1963
     39  CA       166.9710  128.3500  163.5060 C.3   174  LYS174      0.1728
     40  C        166.1260  127.8720  162.3330 C.2   174  LYS174      0.2617
     41  O        165.2100  127.0630  162.5090 O.2   174  LYS174     -0.2715
     42  CB       167.8280  129.5400  163.0710 C.3   174  LYS174      0.0311
     43  CG       168.1760  130.4970  164.1980 C.3   174  LYS174      0.0038
     44  CD       169.0700  131.6220  163.7080 C.3   174  LYS174      0.0206
     45  CE       168.5110  132.2700  162.4500 C.3   174  LYS174      0.1093
     46  NZ       169.3060  133.4550  162.0250 N.3   174  LYS174     -0.1314
     47  N        166.4090  128.4130  161.1420 N.am  175  THR175     -0.1937
     48  CA       165.5880  128.1590  159.9600 C.3   175  THR175      0.2028
     49  C        165.2970  126.6750  159.7690 C.2   175  THR175      0.2642
     50  O        164.1710  126.2950  159.4260 O.2   175  THR175     -0.2714
     51  CB       166.2810  128.7280  158.7200 C.3   175  THR175      0.1808
     52  OG1      166.5170  130.1300  158.9020 O.3   175  THR175     -0.2208
     53  CG2      165.4250  128.5210  157.4820 C.3   175  THR175      0.0379
     54  N        166.2950  125.8190  159.9970 N.am  176  MET176     -0.1976
     55  CA       166.0670  124.3830  159.8730 C.3   176  MET176      0.1605
     56  C        165.1860  123.8530  160.9960 C.2   176  MET176      0.2287
     57  O        164.4530  122.8780  160.7980 O.2   176  MET176     -0.2864
     58  CB       167.4010  123.6440  159.8400 C.3   176  MET176      0.0413
     59  CG       168.2640  124.0140  158.6500 C.3   176  MET176      0.0598
     60  SD       169.9740  123.5190  158.8850 S.3   176  MET176     -0.1393
     61  CE       170.3750  124.4610  160.3530 C.3   176  MET176      0.0692
     62  N        161.7650  124.2740  159.9260 N.3   179  LYS179     -0.1245
     63  CA       161.3260  123.2250  159.0130 C.3   179  LYS179      0.1561
     64  C        160.7810  122.0220  159.7690 C.2   179  LYS179      0.2260
     65  O        159.9980  121.2440  159.2140 O.2   179  LYS179     -0.2867
     66  CB       162.4820  122.7840  158.1150 C.3   179  LYS179      0.0271
     67  CG       163.2520  123.9150  157.4600 C.3   179  LYS179      0.0035
     68  CD       164.4710  123.3840  156.7210 C.3   179  LYS179      0.0206
     69  CE       165.3910  124.5090  156.2780 C.3   179  LYS179      0.1093
     70  NZ       166.6610  123.9850  155.7030 N.3   179  LYS179     -0.1314
     71  N        162.2780  134.7130  158.2140 N.3   227  ASP227     -0.1225
     72  CA       163.6810  134.3670  158.3990 C.3   227  ASP227      0.1805
     73  C        164.5300  135.6290  158.3450 C.2   227  ASP227      0.2597
     74  O        164.4770  136.3740  157.3630 O.2   227  ASP227     -0.2718
     75  CB       164.1240  133.3730  157.3280 C.3   227  ASP227      0.1424
     76  CG       165.6300  133.2070  157.2750 C.2   227  ASP227      0.3668
     77  OD1      166.1830  132.4890  158.1350 O.co2 227  ASP227     -0.2456
     78  OD2      166.2620  133.7950  156.3720 O.co2 227  ASP227     -0.2456
     79  N        165.3090  135.8710  159.4010 N.am  228  GLU228     -0.1979
     80  CA       166.1900  137.0350  159.4970 C.3   228  GLU228      0.1602
     81  C        165.3910  138.3370  159.3600 C.2   228  GLU228      0.2287
     82  O        165.4650  139.0560  158.3600 O.2   228  GLU228     -0.2864
     83  CB       167.3080  136.9590  158.4500 C.3   228  GLU228      0.0415
     84  CG       168.0460  135.6330  158.4280 C.3   228  GLU228      0.1163
     85  CD       168.8920  135.4570  157.1840 C.2   228  GLU228      0.3649
     86  OE1      168.8240  136.3250  156.2870 O.co2 228  GLU228     -0.2457
     87  OE2      169.6210  134.4480  157.1010 O.co2 228  GLU228     -0.2457
     88  N        170.6910  137.2200  164.0020 N.3   274  ASN274     -0.1240
     89  CA       172.0470  136.9580  164.4660 C.3   274  ASN274      0.1653
     90  C        172.6230  138.1260  165.2510 C.2   274  ASN274      0.2266
     91  O        173.6370  137.9540  165.9360 O.2   274  ASN274     -0.2867
     92  CB       172.9610  136.6160  163.2850 C.3   274  ASN274      0.1155
     93  CG       172.9120  137.6550  162.1860 C.2   274  ASN274      0.2627
     94  OD1      172.1110  138.5860  162.2290 O.2   274  ASN274     -0.2716
     95  ND2      173.7660  137.4910  161.1820 N.am  274  ASN274     -0.0877
     96  N        170.9500  131.1440  171.5510 N.3   295  PHE295     -0.1241
     97  CA       171.6310  129.9340  171.1190 C.3   295  PHE295      0.1605
     98  C        172.3830  129.3320  172.2950 C.2   295  PHE295      0.2264
     99  O        173.4430  129.8520  172.6780 O.2   295  PHE295     -0.2867
    100  CB       172.5900  130.2350  169.9650 C.3   295  PHE295      0.0534
    101  CG       173.4170  129.0570  169.5420 C.ar  295  PHE295     -0.0203
    102  CD1      172.8390  127.9940  168.8680 C.ar  295  PHE295     -0.0042
    103  CD2      174.7740  129.0130  169.8150 C.ar  295  PHE295     -0.0042
    104  CE1      173.5980  126.9080  168.4780 C.ar  295  PHE295     -0.0003
    105  CE2      175.5390  127.9310  169.4260 C.ar  295  PHE295     -0.0003
    106  CZ       174.9500  126.8770  168.7570 C.ar  295  PHE295     -0.0000
    107  N        175.6950  115.0410  169.1660 N.3   306  ILE306     -0.1245
    108  CA       176.1610  115.3820  167.8270 C.3   306  ILE306      0.1561
    109  C        177.2880  114.4590  167.3830 C.2   306  ILE306      0.2260
    110  O        177.5680  114.3630  166.1840 O.2   306  ILE306     -0.2867
    111  CB       176.5900  116.8610  167.7560 C.3   306  ILE306      0.0252
    112  CG1      176.3050  117.4360  166.3690 C.3   306  ILE306      0.0019
    113  CG2      178.0640  117.0190  168.0830 C.3   306  ILE306      0.0019
    114  CD1      176.4840  118.9350  166.2920 C.3   306  ILE306      0.0001
    115  N        178.8910  124.7380  165.1380 N.3   336  ASP336     -0.1239
    116  CA       179.3370  124.2430  163.8050 C.3   336  ASP336      0.1674
    117  C        179.9180  122.8140  163.8110 C.2   336  ASP336      0.2266
    118  O        180.3420  122.3030  162.7740 O.2   336  ASP336     -0.2867
    119  CB       180.3150  125.2430  163.1510 C.3   336  ASP336      0.1410
    120  CG       180.6890  124.8710  161.7340 C.2   336  ASP336      0.3668
    121  OD1      179.8360  124.3170  161.0110 O.co2 336  ASP336     -0.2456
    122  OD2      181.8520  125.1200  161.3560 O.co2 336  ASP336     -0.2456
    123  N        178.3850  120.1650  163.8090 N.3   338  ASN338     -0.1225
    124  CA       177.6270  119.3350  162.8740 C.3   338  ASN338      0.1785
    125  C        178.3330  119.2350  161.5290 C.2   338  ASN338      0.2597
    126  O        178.4890  118.1410  160.9750 O.2   338  ASN338     -0.2718
    127  CB       176.2170  119.8900  162.6820 C.3   338  ASN338      0.1169
    128  CG       175.4390  119.1310  161.6220 C.2   338  ASN338      0.2627
    129  OD1      175.4400  117.9010  161.6000 O.2   338  ASN338     -0.2716
    130  ND2      174.8020  119.8620  160.7180 N.am  338  ASN338     -0.0877
    131  N        178.7560  120.3740  160.9810 N.am  339  SER339     -0.1952
    132  CA       179.5480  120.3400  159.7590 C.3   339  SER339      0.1924
    133  C        180.9220  119.7370  160.0160 C.2   339  SER339      0.2314
    134  O        181.4350  118.9790  159.1860 O.2   339  SER339     -0.2863
    135  CB       179.6750  121.7440  159.1780 C.3   339  SER339      0.2116
    136  OG       178.4030  122.2940  158.8840 O.3   339  SER339     -0.2180
@<TRIPOS>BOND
     1    70    69    1
     2    69    68    1
     3    86    85   ar
     4    78    76   ar
     5    68    67    1
     6    87    85   ar
     7    85    84    1
     8    76    75    1
     9    76    77   ar
    10    75    72    1
    11    74    73    2
    12    67    66    1
    13    53    51    1
    14    66    63    1
    15    71    72    1
    16    73    72    1
    17    73    79   am
    18    82    81    2
    19    84    83    1
    20    83    80    1
    21    59    60    1
    22    59    58    1
    23    51    52    1
    24    51    48    1
    25   136   135    1
    26    60    61    1
    27    63    64    1
    28    63    62    1
    29   135   132    1
    30   134   133    2
    31    65    64    2
    32    81    80    1
    33    79    80    1
    34    50    49    2
    35   132   133    1
    36   132   131    1
    37    49    48    1
    38    49    54   am
    39    58    55    1
    40    55    54    1
    41    55    56    1
    42    48    47    1
    43   130   128   am
    44    57    56    2
    45    33    32    1
    46   126   125    2
    47   131   125   am
    48   121   120   ar
    49    47    40   am
    50    95    93   am
    51   122   120   ar
    52   125   124    1
    53   129   128    2
    54   128   127    1
    55   120   119    1
    56    32    29    1
    57    46    45    1
    58    37    36    2
    59    93    94    2
    60    93    92    1
    61    40    41    2
    62    40    39    1
    63    45    44    1
    64   127   124    1
    65   118   117    2
    66   124   123    1
    67    42    39    1
    68    42    43    1
    69   119   116    1
    70    21    22    1
    71    21    18    1
    72    92    89    1
    73    29    28    1
    74    29    30    1
    75    36    38   am
    76    36    35    1
    77    22    23    1
    78    39    38    1
    79    20    19    2
    80    44    43    1
    81    34    30   am
    82    34    35    1
    83   116   117    1
    84   116   115    1
    85    19    18    1
    86    28    26   am
    87    88    89    1
    88    30    31    2
    89    18    17    1
    90    89    90    1
    91     8     6    1
    92    23    17    1
    93     7     5    1
    94     6     5    1
    95    26    25    1
    96    26    27    2
    97    90    91    2
    98    25    24    1
    99     1     2    1
   100     5     2    1
   101   110   109    2
   102   114   112    1
   103   112   111    1
   104     2     3    1
   105    16    15    1
   106    15    14    1
   107   109   108    1
   108   111   108    1
   109   111   113    1
   110     3     4    2
   111   108   107    1
   112   104   106   ar
   113   104   102   ar
   114   106   105   ar
   115   102   101   ar
   116    14    13    1
   117   105   103   ar
   118   101   103   ar
   119   101   100    1
   120    13    10    1
   121   100    97    1
   122     9    10    1
   123    97    96    1
   124    97    98    1
   125    10    11    1
   126    11    12    2
   127    98    99    2
