@<TRIPOS>MOLECULE
tmp/5t0hC00.pdb
 167 160 0 0 0
SMALL
GASTEIGER

@<TRIPOS>ATOM
      1  N        153.6110  150.5790  176.8420 N.3   133  VAL133     -0.1231
      2  CA       153.1390  150.1150  178.1460 C.3   133  VAL133      0.1678
      3  C        151.6370  150.3270  178.3050 C.2   133  VAL133      0.2434
      4  O        151.0760  151.2830  177.7470 O.2   133  VAL133     -0.2733
      5  CB       153.9110  150.8160  179.2780 C.3   133  VAL133      0.0265
      6  CG1      153.4190  152.2460  179.4630 C.3   133  VAL133      0.0020
      7  CG2      153.8070  150.0300  180.5780 C.3   133  VAL133      0.0020
      8  N        150.9400  149.4370  179.0230 N.am  134  PRO134     -0.2729
      9  CA       149.5860  149.7570  179.4940 C.3   134  PRO134      0.1401
     10  C        149.6160  150.5690  180.7820 C.2   134  PRO134      0.2269
     11  O        150.6800  151.0330  181.2030 O.2   134  PRO134     -0.2865
     12  CB       148.9530  148.3770  179.7040 C.3   134  PRO134      0.0296
     13  CG       150.1060  147.4920  180.0150 C.3   134  PRO134      0.0237
     14  CD       151.2590  148.0080  179.1950 C.3   134  PRO134      0.0939
     15  N        147.9020  147.8260  191.3470 N.3   141  ILE141     -0.1231
     16  CA       149.2800  148.0110  191.7750 C.3   141  ILE141      0.1692
     17  C        149.3340  147.8930  193.2930 C.2   141  ILE141      0.2593
     18  O        148.3180  147.9950  193.9860 O.2   141  ILE141     -0.2718
     19  CB       149.8580  149.3630  191.3020 C.3   141  ILE141      0.0266
     20  CG1      151.3570  149.2350  191.0270 C.3   141  ILE141      0.0019
     21  CG2      149.5860  150.4590  192.3240 C.3   141  ILE141      0.0020
     22  CD1      151.6850  148.1890  189.9910 C.3   141  ILE141      0.0001
     23  N        150.5390  147.6650  193.8100 N.am  142  GLY142     -0.1942
     24  CA       150.7160  147.5060  195.2420 C.3   142  GLY142      0.2014
     25  C        152.1170  147.8710  195.6810 C.2   142  GLY142      0.2639
     26  O        153.0460  147.9620  194.8710 O.2   142  GLY142     -0.2714
     27  N        152.2550  148.0860  196.9900 N.am  143  GLY143     -0.1939
     28  CA       153.5310  148.4040  197.5950 C.3   143  GLY143      0.2014
     29  C        153.9690  149.8460  197.4750 C.2   143  GLY143      0.2638
     30  O        154.9470  150.2350  198.1280 O.2   143  GLY143     -0.2714
     31  N        153.2860  150.6550  196.6700 N.am  144  LEU144     -0.1977
     32  CA       153.6600  152.0430  196.4390 C.3   144  LEU144      0.1596
     33  C        152.9460  153.0180  197.3690 C.2   144  LEU144      0.2287
     34  O        153.0680  154.2320  197.1750 O.2   144  LEU144     -0.2864
     35  CB       153.3980  152.4240  194.9800 C.3   144  LEU144      0.0297
     36  CG       154.2370  151.6760  193.9420 C.3   144  LEU144      0.0022
     37  CD1      154.0220  152.2560  192.5530 C.3   144  LEU144      0.0001
     38  CD2      155.7120  151.7060  194.3180 C.3   144  LEU144      0.0001
     39  N        165.4950  148.5480  188.4310 N.3   182  PRO182     -0.2102
     40  CA       164.7910  148.6390  187.1500 C.3   182  PRO182      0.1504
     41  C        164.1570  147.3130  186.7200 C.2   182  PRO182      0.2576
     42  O        164.6540  146.7110  185.7680 O.2   182  PRO182     -0.2718
     43  CB       165.9040  149.0400  186.1860 C.3   182  PRO182      0.0282
     44  CG       167.1100  148.3110  186.7360 C.3   182  PRO182      0.0208
     45  CD       166.9020  148.1530  188.2350 C.3   182  PRO182      0.0893
     46  N        163.0850  146.8630  187.3660 N.am  183  GLY183     -0.1943
     47  CA       162.2380  147.6700  188.2230 C.3   183  GLY183      0.2014
     48  C        160.8990  147.8840  187.5550 C.2   183  GLY183      0.2640
     49  O        160.8070  147.9210  186.3290 O.2   183  GLY183     -0.2714
     50  N        159.8520  148.0290  188.3660 N.am  184  THR184     -0.1936
     51  CA       158.4960  147.7520  187.9090 C.3   184  THR184      0.2028
     52  C        157.4960  148.7270  188.5100 C.2   184  THR184      0.2643
     53  O        157.4940  148.9510  189.7230 O.2   184  THR184     -0.2714
     54  CB       158.0950  146.3240  188.2860 C.3   184  THR184      0.1808
     55  OG1      158.2590  146.1480  189.6990 O.3   184  THR184     -0.2208
     56  CG2      158.9460  145.3030  187.5400 C.3   184  THR184      0.0379
     57  N        156.6140  149.2590  187.6690 N.am  185  GLY185     -0.1939
     58  CA       155.5190  150.0890  188.1090 C.3   185  GLY185      0.2014
     59  C        155.7520  151.5760  187.9620 C.2   185  GLY185      0.2639
     60  O        154.7790  152.3350  187.9080 O.2   185  GLY185     -0.2714
     61  N        157.0120  152.0090  187.8960 N.am  186  LYS186     -0.1963
     62  CA       157.2990  153.4130  187.6240 C.3   186  LYS186      0.1728
     63  C        156.7110  153.8470  186.2890 C.2   186  LYS186      0.2617
     64  O        156.1880  154.9610  186.1720 O.2   186  LYS186     -0.2715
     65  CB       158.8080  153.6470  187.6470 C.3   186  LYS186      0.0311
     66  CG       159.5660  152.7190  186.7160 C.3   186  LYS186      0.0038
     67  CD       161.0630  152.9080  186.7990 C.3   186  LYS186      0.0206
     68  CE       161.7530  152.0740  185.7350 C.3   186  LYS186      0.1093
     69  NZ       161.4670  150.6220  185.8980 N.3   186  LYS186     -0.1314
     70  N        156.7820  152.9810  185.2760 N.am  187  THR187     -0.1937
     71  CA       156.1430  153.2630  183.9980 C.3   187  THR187      0.2028
     72  C        154.6360  153.0670  184.0900 C.2   187  THR187      0.2642
     73  O        153.8730  153.7920  183.4410 O.2   187  THR187     -0.2714
     74  CB       156.7380  152.3740  182.9070 C.3   187  THR187      0.1808
     75  OG1      158.1680  152.4570  182.9510 O.3   187  THR187     -0.2208
     76  CG2      156.2650  152.8250  181.5370 C.3   187  THR187      0.0379
     77  N        154.1910  152.0930  184.8870 N.am  188  LEU188     -0.1977
     78  CA       152.7700  151.9940  185.1990 C.3   188  LEU188      0.1596
     79  C        152.2970  153.2410  185.9310 C.2   188  LEU188      0.2287
     80  O        151.3060  153.8650  185.5370 O.2   188  LEU188     -0.2864
     81  CB       152.4900  150.7430  186.0330 C.3   188  LEU188      0.0297
     82  CG       152.6770  149.3780  185.3710 C.3   188  LEU188      0.0022
     83  CD1      152.1450  148.2890  186.2870 C.3   188  LEU188      0.0001
     84  CD2      151.9900  149.3270  184.0160 C.3   188  LEU188      0.0001
     85  N        163.6810  154.5730  178.1990 N.3   240  GLU240     -0.1245
     86  CA       163.6140  154.3680  179.6430 C.3   240  GLU240      0.1567
     87  C        164.8180  155.0190  180.3090 C.2   240  GLU240      0.2260
     88  O        164.6680  155.8750  181.1790 O.2   240  GLU240     -0.2867
     89  CB       163.5600  152.8800  179.9980 C.3   240  GLU240      0.0388
     90  CG       162.2200  152.2170  179.7310 C.3   240  GLU240      0.1160
     91  CD       162.1590  150.7940  180.2560 C.2   240  GLU240      0.3649
     92  OE1      163.2030  150.2790  180.7080 O.co2 240  GLU240     -0.2457
     93  OE2      161.0650  150.1920  180.2220 O.co2 240  GLU240     -0.2457
     94  N        166.5720  153.7920  182.4020 N.3   242  ASP242     -0.1239
     95  CA       166.7620  153.2210  183.7280 C.3   242  ASP242      0.1674
     96  C        167.5250  151.9150  183.5430 C.2   242  ASP242      0.2266
     97  O        166.9520  150.9110  183.1040 O.2   242  ASP242     -0.2867
     98  CB       165.4170  152.9960  184.4150 C.3   242  ASP242      0.1410
     99  CG       165.5600  152.6610  185.8850 C.2   242  ASP242      0.3668
    100  OD1      166.6430  152.1970  186.2750 O.co2 242  ASP242     -0.2456
    101  OD2      164.5990  152.8640  186.6530 O.co2 242  ASP242     -0.2456
    102  N        162.7450  154.6910  194.1790 N.3   307  PHE307     -0.1241
    103  CA       161.8990  153.5660  193.7950 C.3   307  PHE307      0.1605
    104  C        162.2390  152.3640  194.6590 C.2   307  PHE307      0.2264
    105  O        163.4010  151.9280  194.6620 O.2   307  PHE307     -0.2867
    106  CB       162.0870  153.2270  192.3210 C.3   307  PHE307      0.0534
    107  CG       161.3490  151.9970  191.8880 C.ar  307  PHE307     -0.0203
    108  CD1      160.0020  152.0530  191.5800 C.ar  307  PHE307     -0.0042
    109  CD2      162.0050  150.7810  191.7900 C.ar  307  PHE307     -0.0042
    110  CE1      159.3240  150.9210  191.1860 C.ar  307  PHE307     -0.0003
    111  CE2      161.3320  149.6460  191.3950 C.ar  307  PHE307     -0.0003
    112  CZ       159.9930  149.7160  191.0940 C.ar  307  PHE307     -0.0000
    113  N        161.1690  145.3820  196.1690 N.3   310  PRO310     -0.2116
    114  CA       159.9310  144.6950  196.5500 C.3   310  PRO310      0.1372
    115  C        160.0110  144.1220  197.9570 C.2   310  PRO310      0.2244
    116  O        161.0880  143.8770  198.5050 O.2   310  PRO310     -0.2868
    117  CB       159.8040  143.5830  195.5030 C.3   310  PRO310      0.0268
    118  CG       161.2050  143.3330  195.0570 C.3   310  PRO310      0.0207
    119  CD       161.8880  144.6720  195.0970 C.3   310  PRO310      0.0892
    120  N        153.5230  143.8410  199.1350 N.3   314  ALA314     -0.1245
    121  CA       152.9760  143.7570  197.7860 C.3   314  ALA314      0.1562
    122  C        152.8870  142.3110  197.3120 C.2   314  ALA314      0.2260
    123  O        151.9090  141.9270  196.6610 O.2   314  ALA314     -0.2867
    124  CB       153.8230  144.5870  196.8220 C.3   314  ALA314      0.0290
    125  N        149.7630  141.8750  195.1680 N.3   318  ILE318     -0.1245
    126  CA       150.0190  142.0760  193.7430 C.3   318  ILE318      0.1561
    127  C        149.9770  140.7460  193.0000 C.2   318  ILE318      0.2260
    128  O        149.6890  140.7100  191.7970 O.2   318  ILE318     -0.2867
    129  CB       151.3490  142.8210  193.5150 C.3   318  ILE318      0.0252
    130  CG1      151.3840  143.4190  192.1080 C.3   318  ILE318      0.0019
    131  CG2      152.5340  141.8950  193.6950 C.3   318  ILE318      0.0019
    132  CD1      150.2620  144.3890  191.8310 C.3   318  ILE318      0.0001
    133  N        147.1970  139.7670  190.1590 N.3   322  HIS322     -0.1241
    134  CA       147.3540  138.9190  188.9850 C.3   322  HIS322      0.1621
    135  C        146.5140  137.6510  189.0740 C.2   322  HIS322      0.2264
    136  O        146.2600  137.0190  188.0430 O.2   322  HIS322     -0.2867
    137  CB       148.8260  138.5480  188.7890 C.3   322  HIS322      0.0745
    138  CG       149.7200  139.7220  188.5310 C.ar  322  HIS322      0.0817
    139  ND1      150.1080  140.5960  189.5240 N.ar  322  HIS322     -0.2268
    140  CD2      150.3070  140.1630  187.3930 C.ar  322  HIS322      0.1154
    141  CE1      150.8930  141.5250  189.0080 C.ar  322  HIS322      0.1986
    142  NE2      151.0290  141.2850  187.7170 N.ar  322  HIS322     -0.2212
    143  N        159.7210  143.0830  190.5000 N.3   346  GLY346     -0.1210
    144  CA       158.2830  143.1530  190.3480 C.3   346  GLY346      0.1956
    145  C        157.8360  142.3120  189.1720 C.2   346  GLY346      0.2611
    146  O        156.7120  141.8020  189.1460 O.2   346  GLY346     -0.2717
    147  N        158.7220  142.1620  188.1850 N.am  347  ALA347     -0.1979
    148  CA       158.4900  141.2240  187.0960 C.3   347  ALA347      0.1597
    149  C        158.4770  139.7810  187.5750 C.2   347  ALA347      0.2287
    150  O        158.0210  138.9030  186.8350 O.2   347  ALA347     -0.2864
    151  CB       159.5510  141.4040  186.0090 C.3   347  ALA347      0.0319
    152  N        156.5530  138.7730  189.9840 N.3   349  VAL349     -0.1231
    153  CA       155.1360  138.4970  190.2020 C.3   349  VAL349      0.1692
    154  C        154.4500  138.1140  188.8990 C.2   349  VAL349      0.2591
    155  O        153.4880  137.3350  188.8990 O.2   349  VAL349     -0.2718
    156  CB       154.4560  139.7090  190.8660 C.3   349  VAL349      0.0266
    157  CG1      153.0130  139.3820  191.2210 C.3   349  VAL349      0.0020
    158  CG2      155.2360  140.1320  192.1000 C.3   349  VAL349      0.0020
    159  N        154.9290  138.6450  187.7730 N.am  350  LYS350     -0.1980
    160  CA       154.3910  138.2410  186.4790 C.3   350  LYS350      0.1596
    161  C        154.6260  136.7560  186.2330 C.2   350  LYS350      0.2287
    162  O        153.6980  136.0160  185.8900 O.2   350  LYS350     -0.2864
    163  CB       155.0230  139.0770  185.3650 C.3   350  LYS350      0.0298
    164  CG       154.8550  140.5760  185.5380 C.3   350  LYS350      0.0038
    165  CD       155.4930  141.3380  184.3880 C.3   350  LYS350      0.0206
    166  CE       154.8120  141.0160  183.0680 C.3   350  LYS350      0.1093
    167  NZ       153.3770  141.4130  183.0730 N.3   350  LYS350     -0.1314
@<TRIPOS>BOND
     1     1     2    1
     2     4     3    2
     3     2     3    1
     4     2     5    1
     5    85    86    1
     6     3     8   am
     7     8    14    1
     8     8     9    1
     9    14    13    1
    10     5     6    1
    11     5     7    1
    12     9    12    1
    13     9    10    1
    14    86    89    1
    15    86    87    1
    16    12    13    1
    17    90    89    1
    18    90    91    1
    19    93    91   ar
    20    91    92   ar
    21    87    88    2
    22    10    11    2
    23    76    74    1
    24    94    95    1
    25    74    75    1
    26    74    71    1
    27   166   167    1
    28   166   165    1
    29    97    96    2
    30    73    72    2
    31    96    95    1
    32    95    98    1
    33    71    72    1
    34    71    70    1
    35    84    82    1
    36    72    77   am
    37   165   164    1
    38    98    99    1
    39    77    78    1
    40    78    79    1
    41    78    81    1
    42    70    63   am
    43   163   164    1
    44   163   160    1
    45    82    81    1
    46    82    83    1
    47    80    79    2
    48    68    69    1
    49    68    67    1
    50    42    41    2
    51    99   100   ar
    52    99   101   ar
    53   162   161    2
    54   151   148    1
    55    64    63    2
    56    43    44    1
    57    43    40    1
    58   161   160    1
    59    63    62    1
    60    49    48    2
    61   160   159    1
    62    66    67    1
    63    66    65    1
    64    41    40    1
    65    41    46   am
    66    44    45    1
    67   150   149    2
    68   148   149    1
    69   148   147    1
    70    40    39    1
    71    46    47    1
    72   140   142   ar
    73   140   138   ar
    74    56    54    1
    75    48    47    1
    76    48    50   am
    77    62    65    1
    78    62    61    1
    79    57    58    1
    80    57    52   am
    81   142   141   ar
    82   159   154   am
    83    61    59   am
    84    60    59    2
    85    51    54    1
    86    51    50    1
    87    51    52    1
    88    59    58    1
    89   136   135    2
    90   147   145   am
    91    45    39    1
    92    54    55    1
    93    52    53    2
    94   138   137    1
    95   138   139   ar
    96   137   134    1
    97   154   155    2
    98   154   153    1
    99   134   135    1
   100   134   133    1
   101   141   139   ar
   102   146   145    2
   103   145   144    1
   104   152   153    1
   105    22    20    1
   106   153   156    1
   107   144   143    1
   108   156   157    1
   109   156   158    1
   110    20    19    1
   111   112   110   ar
   112   112   111   ar
   113   110   108   ar
   114    19    16    1
   115    19    21    1
   116    15    16    1
   117   111   109   ar
   118   108   107   ar
   119    16    17    1
   120   109   107   ar
   121   128   127    2
   122   132   130    1
   123   107   106    1
   124   130   129    1
   125   106   103    1
   126    37    36    1
   127   127   126    1
   128    17    23   am
   129    17    18    2
   130   129   131    1
   131   129   126    1
   132   126   125    1
   133   103   102    1
   134   103   104    1
   135    23    24    1
   136    36    38    1
   137    36    35    1
   138   104   105    2
   139    26    25    2
   140    35    32    1
   141   118   119    1
   142   118   117    1
   143   119   113    1
   144    24    25    1
   145   117   114    1
   146    25    27   am
   147   113   114    1
   148    32    31    1
   149    32    33    1
   150   114   115    1
   151   123   122    2
   152    31    29   am
   153   124   121    1
   154    27    28    1
   155    34    33    2
   156   122   121    1
   157    29    28    1
   158    29    30    2
   159   121   120    1
   160   115   116    2
