@<TRIPOS>MOLECULE
tmp/5t0iD00.pdb
 126 118 0 0 0
SMALL
GASTEIGER

@<TRIPOS>ATOM
      1  N        167.3600  119.5580  154.1440 N.3   124  VAL124     -0.1245
      2  CA       167.9820  119.1000  155.3850 C.3   124  VAL124      0.1561
      3  C        166.9670  118.2680  156.1580 C.2   124  VAL124      0.2260
      4  O        165.7980  118.6530  156.2660 O.2   124  VAL124     -0.2867
      5  CB       168.4820  120.2790  156.2480 C.3   124  VAL124      0.0252
      6  CG1      168.8660  119.8070  157.6430 C.3   124  VAL124      0.0019
      7  CG2      169.6650  120.9750  155.5860 C.3   124  VAL124      0.0019
      8  N        174.1230  135.8090  162.6160 N.3   169  PRO169     -0.2116
      9  CA       175.1140  135.4030  161.6100 C.3   169  PRO169      0.1372
     10  C        176.3510  136.2990  161.5890 C.2   169  PRO169      0.2244
     11  O        176.2240  137.5020  161.8190 O.2   169  PRO169     -0.2868
     12  CB       174.3410  135.5170  160.2910 C.3   169  PRO169      0.0268
     13  CG       173.2820  136.5110  160.5650 C.3   169  PRO169      0.0207
     14  CD       172.8650  136.2340  161.9730 C.3   169  PRO169      0.0892
     15  N        177.3740  132.0970  161.9410 N.3   171  GLY171     -0.1210
     16  CA       177.2520  131.5340  160.6060 C.3   171  GLY171      0.1956
     17  C        175.8940  131.6750  159.9460 C.2   171  GLY171      0.2612
     18  O        175.0270  132.3920  160.4400 O.2   171  GLY171     -0.2717
     19  N        175.7160  130.9790  158.8190 N.am  172  CYS172     -0.1956
     20  CA       174.5190  131.1710  158.0050 C.3   172  CYS172      0.1843
     21  C        173.2530  130.7640  158.7520 C.2   172  CYS172      0.2626
     22  O        172.3850  131.6040  159.0180 O.2   172  CYS172     -0.2714
     23  CB       174.6460  130.3820  156.7010 C.3   172  CYS172      0.0997
     24  SG       176.0170  130.8990  155.6450 S.3   172  CYS172     -0.0797
     25  N        173.1480  129.4920  159.1330 N.am  173  GLY173     -0.1940
     26  CA       171.9060  128.9970  159.7110 C.3   173  GLY173      0.2014
     27  C        170.7220  129.3380  158.8270 C.2   173  GLY173      0.2639
     28  O        170.7680  129.1740  157.6020 O.2   173  GLY173     -0.2714
     29  N        169.6480  129.8290  159.4520 N.am  174  LYS174     -0.1963
     30  CA       168.5440  130.4650  158.7380 C.3   174  LYS174      0.1728
     31  C        167.9280  129.5780  157.6600 C.2   174  LYS174      0.2617
     32  O        167.3080  128.5570  157.9720 O.2   174  LYS174     -0.2715
     33  CB       169.0090  131.7970  158.1430 C.3   174  LYS174      0.0311
     34  CG       169.1530  132.8910  159.1930 C.3   174  LYS174      0.0038
     35  CD       169.5270  134.2320  158.5860 C.3   174  LYS174      0.0206
     36  CE       170.9940  134.2860  158.2160 C.3   174  LYS174      0.1093
     37  NZ       171.3690  135.5990  157.6210 N.3   174  LYS174     -0.1314
     38  N        168.0900  129.9760  156.3900 N.am  175  THR175     -0.1937
     39  CA       167.3230  129.4000  155.2850 C.3   175  THR175      0.2028
     40  C        167.3820  127.8740  155.2530 C.2   175  THR175      0.2642
     41  O        166.4850  127.2320  154.6920 O.2   175  THR175     -0.2714
     42  CB       167.8220  129.9810  153.9580 C.3   175  THR175      0.1808
     43  OG1      167.8470  131.4110  154.0440 O.3   175  THR175     -0.2208
     44  CG2      166.9090  129.5800  152.8080 C.3   175  THR175      0.0379
     45  N        168.4140  127.2710  155.8470 N.am  176  MET176     -0.1976
     46  CA       168.3860  125.8260  156.0520 C.3   176  MET176      0.1605
     47  C        167.1390  125.4030  156.8150 C.2   176  MET176      0.2287
     48  O        166.3780  124.5470  156.3500 O.2   176  MET176     -0.2864
     49  CB       169.6320  125.3650  156.8020 C.3   176  MET176      0.0413
     50  CG       170.8730  125.2480  155.9560 C.3   176  MET176      0.0598
     51  SD       172.0430  124.1680  156.7880 S.3   176  MET176     -0.1393
     52  CE       172.3700  125.1160  158.2710 C.3   176  MET176      0.0692
     53  N        158.6000  135.6150  154.8980 N.3   225  PHE225     -0.1241
     54  CA       160.0190  135.7470  155.2050 C.3   225  PHE225      0.1605
     55  C        160.5770  136.9580  154.4740 C.2   225  PHE225      0.2264
     56  O        160.5280  137.0200  153.2400 O.2   225  PHE225     -0.2867
     57  CB       160.7850  134.4820  154.8120 C.3   225  PHE225      0.0534
     58  CG       162.2740  134.6020  154.9650 C.ar  225  PHE225     -0.0203
     59  CD1      162.8680  134.4740  156.2090 C.ar  225  PHE225     -0.0042
     60  CD2      163.0800  134.8400  153.8640 C.ar  225  PHE225     -0.0042
     61  CE1      164.2380  134.5820  156.3520 C.ar  225  PHE225     -0.0003
     62  CE2      164.4490  134.9500  154.0010 C.ar  225  PHE225     -0.0003
     63  CZ       165.0290  134.8200  155.2470 C.ar  225  PHE225     -0.0000
     64  N        164.1650  139.2250  154.2660 N.3   227  ASP227     -0.1225
     65  CA       165.5840  139.0870  154.5630 C.3   227  ASP227      0.1805
     66  C        166.1950  140.4520  154.8410 C.2   227  ASP227      0.2597
     67  O        166.1930  141.3260  153.9670 O.2   227  ASP227     -0.2718
     68  CB       166.3210  138.4060  153.4030 C.3   227  ASP227      0.1424
     69  CG       167.7470  138.0320  153.7570 C.2   227  ASP227      0.3668
     70  OD1      168.0840  138.0220  154.9600 O.co2 227  ASP227     -0.2456
     71  OD2      168.5320  137.7460  152.8280 O.co2 227  ASP227     -0.2456
     72  N        166.7110  140.6280  156.0610 N.am  228  GLU228     -0.1979
     73  CA       167.5230  141.7840  156.4280 C.3   228  GLU228      0.1602
     74  C        166.7980  143.1060  156.2040 C.2   228  GLU228      0.2287
     75  O        167.1300  143.8550  155.2800 O.2   228  GLU228     -0.2864
     76  CB       168.8470  141.7630  155.6580 C.3   228  GLU228      0.0415
     77  CG       169.7560  140.6070  156.0550 C.3   228  GLU228      0.1163
     78  CD       171.0790  140.6050  155.3140 C.2   228  GLU228      0.3649
     79  OE1      171.2480  141.4180  154.3830 O.co2 228  GLU228     -0.2457
     80  OE2      171.9520  139.7820  155.6630 O.co2 228  GLU228     -0.2457
     81  N        171.4340  140.3430  159.3780 N.3   274  ASN274     -0.1240
     82  CA       172.8470  140.1420  159.6740 C.3   274  ASN274      0.1653
     83  C        173.3360  141.0650  160.7820 C.2   274  ASN274      0.2266
     84  O        174.1980  140.6690  161.5760 O.2   274  ASN274     -0.2867
     85  CB       173.6870  140.3320  158.4080 C.3   274  ASN274      0.1155
     86  CG       173.5260  141.7110  157.7960 C.2   274  ASN274      0.2627
     87  OD1      172.5690  142.4280  158.0880 O.2   274  ASN274     -0.2716
     88  ND2      174.4660  142.0860  156.9330 N.am  274  ASN274     -0.0877
     89  N        179.8260  121.1120  160.0880 N.3   306  ILE306     -0.1245
     90  CA       179.8570  121.7760  158.7870 C.3   306  ILE306      0.1561
     91  C        180.9060  121.1940  157.8520 C.2   306  ILE306      0.2260
     92  O        180.8230  121.4090  156.6360 O.2   306  ILE306     -0.2867
     93  CB       180.0630  123.2860  159.0080 C.3   306  ILE306      0.0252
     94  CG1      179.2010  124.0870  158.0430 C.3   306  ILE306      0.0019
     95  CG2      181.5190  123.6610  158.8210 C.3   306  ILE306      0.0019
     96  CD1      178.8010  125.4240  158.6060 C.3   306  ILE306      0.0001
     97  N        178.8360  118.0070  156.3730 N.3   309  THR309     -0.1218
     98  CA       177.7670  118.2520  155.4100 C.3   309  THR309      0.1862
     99  C        178.3100  118.5910  154.0280 C.2   309  THR309      0.2287
    100  O        177.6420  118.3240  153.0220 O.2   309  THR309     -0.2866
    101  CB       176.8440  119.3690  155.9050 C.3   309  THR309      0.1770
    102  OG1      175.7760  119.5580  154.9670 O.3   309  THR309     -0.2211
    103  CG2      177.6090  120.6750  156.0680 C.3   309  THR309      0.0375
    104  N        181.4980  128.3220  157.1950 N.3   338  ASN338     -0.1225
    105  CA       180.5680  127.5070  156.4190 C.3   338  ASN338      0.1785
    106  C        181.0750  127.2360  155.0100 C.2   338  ASN338      0.2597
    107  O        181.2790  126.0800  154.6200 O.2   338  ASN338     -0.2718
    108  CB       179.2030  128.1940  156.3610 C.3   338  ASN338      0.1169
    109  CG       178.2880  127.5890  155.3140 C.2   338  ASN338      0.2627
    110  OD1      178.2700  126.3740  155.1130 O.2   338  ASN338     -0.2716
    111  ND2      177.5250  128.4390  154.6350 N.am  338  ASN338     -0.0877
    112  N        181.2880  128.2890  154.2300 N.am  339  SER339     -0.1952
    113  CA       181.4470  128.1380  152.7930 C.3   339  SER339      0.1924
    114  C        182.9020  128.0800  152.3500 C.2   339  SER339      0.2314
    115  O        183.1640  127.8650  151.1630 O.2   339  SER339     -0.2863
    116  CB       180.7090  129.2680  152.0700 C.3   339  SER339      0.2116
    117  OG       179.3160  129.2170  152.3240 O.3   339  SER339     -0.2180
    118  N        183.1340  124.7810  151.3640 N.3   342  GLN342     -0.1245
    119  CA       182.7640  124.6710  149.9580 C.3   342  GLN342      0.1566
    120  C        183.9280  125.0450  149.0510 C.2   342  GLN342      0.2260
    121  O        184.0730  124.4770  147.9620 O.2   342  GLN342     -0.2867
    122  CB       181.5480  125.5500  149.6600 C.3   342  GLN342      0.0367
    123  CG       180.2950  125.1640  150.4290 C.3   342  GLN342      0.0905
    124  CD       179.1060  126.0370  150.0810 C.2   342  GLN342      0.2608
    125  OE1      179.2600  127.1120  149.5000 O.2   342  GLN342     -0.2717
    126  NE2      177.9100  125.5780  150.4320 N.am  342  GLN342     -0.0878
@<TRIPOS>BOND
     1   121   120    2
     2   120   119    1
     3   125   124    2
     4   122   119    1
     5   122   123    1
     6   119   118    1
     7   124   123    1
     8   124   126   am
     9   115   114    2
    10   116   117    1
    11   116   113    1
    12   114   113    1
    13   113   112    1
    14    44    42    1
    15    71    69   ar
    16   100    99    2
    17    56    55    2
    18    68    69    1
    19    68    65    1
    20    69    70   ar
    21    60    62   ar
    22    60    58   ar
    23    42    43    1
    24    42    39    1
    25    67    66    2
    26    62    63   ar
    27    99    98    1
    28     1     2    1
    29   112   106   am
    30    64    65    1
    31    79    78   ar
    32    55    54    1
    33    65    66    1
    34   107   106    2
    35   111   109   am
    36    41    40    2
    37    57    58    1
    38    57    54    1
    39    66    72   am
    40    53    54    1
    41    58    59   ar
    42   102   101    1
    43   106   105    1
    44   110   109    2
    45    63    61   ar
    46    40    39    1
    47    40    45   am
    48    75    74    2
    49    39    38    1
    50    78    80   ar
    51    78    77    1
    52   109   108    1
    53     2     3    1
    54     2     5    1
    55    98   101    1
    56    98    97    1
    57     7     5    1
    58    24    23    1
    59    76    77    1
    60    76    73    1
    61    45    46    1
    62   101   103    1
    63    50    51    1
    64    50    49    1
    65    46    49    1
    66    46    47    1
    67    72    73    1
    68     3     4    2
    69    74    73    1
    70    59    61   ar
    71     5     6    1
    72    48    47    2
    73   108   105    1
    74    38    31   am
    75   105   104    1
    76    92    91    2
    77    23    20    1
    78    51    52    1
    79    88    86   am
    80    28    27    2
    81    37    36    1
    82    31    32    2
    83    31    30    1
    84    86    87    2
    85    86    85    1
    86    91    90    1
    87    20    21    1
    88    20    19    1
    89    94    96    1
    90    94    93    1
    91    33    30    1
    92    33    34    1
    93    36    35    1
    94    85    82    1
    95    35    34    1
    96    30    29    1
    97    21    22    2
    98    21    25   am
    99    90    93    1
   100    90    89    1
   101    19    17   am
   102    95    93    1
   103    27    29   am
   104    27    26    1
   105    25    26    1
   106    81    82    1
   107    82    83    1
   108    17    18    2
   109    17    16    1
   110    12    13    1
   111    12     9    1
   112    13    14    1
   113    16    15    1
   114    83    84    2
   115    10     9    1
   116    10    11    2
   117     9     8    1
   118    14     8    1
