@<TRIPOS>MOLECULE
tmp/5t0jT01.pdb
 143 135 0 0 0
SMALL
GASTEIGER

@<TRIPOS>ATOM
      1  N        209.7630  174.9810  122.1570 N.3   114  ASP114     -0.1225
      2  CA       209.8580  176.0340  123.1580 C.3   114  ASP114      0.1805
      3  C        210.4360  175.5420  124.4790 C.2   114  ASP114      0.2597
      4  O        210.4850  176.3120  125.4450 O.2   114  ASP114     -0.2718
      5  CB       208.4820  176.6610  123.3970 C.3   114  ASP114      0.1424
      6  CG       207.8860  177.2580  122.1370 C.2   114  ASP114      0.3668
      7  OD1      208.6540  177.5510  121.1960 O.co2 114  ASP114     -0.2456
      8  OD2      206.6510  177.4370  122.0880 O.co2 114  ASP114     -0.2456
      9  N        210.8670  174.2840  124.5470 N.am  115  ILE115     -0.1980
     10  CA       211.4000  173.7040  125.7700 C.3   115  ILE115      0.1595
     11  C        212.8480  173.2920  125.5340 C.2   115  ILE115      0.2287
     12  O        213.2970  173.1130  124.3990 O.2   115  ILE115     -0.2864
     13  CB       210.5620  172.5020  126.2590 C.3   115  ILE115      0.0276
     14  CG1      210.5860  171.3670  125.2310 C.3   115  ILE115      0.0022
     15  CG2      209.1310  172.9310  126.5420 C.3   115  ILE115      0.0022
     16  CD1      211.5460  170.2390  125.5730 C.3   115  ILE115      0.0001
     17  N        214.7000  169.0160  128.4440 N.3   118  LEU118     -0.1245
     18  CA       213.8150  167.8620  128.4600 C.3   118  LEU118      0.1561
     19  C        213.9800  166.9960  127.2190 C.2   118  LEU118      0.2260
     20  O        213.2200  166.0400  127.0400 O.2   118  LEU118     -0.2867
     21  CB       212.3560  168.3120  128.5930 C.3   118  LEU118      0.0270
     22  CG       211.7930  168.6810  129.9710 C.3   118  LEU118      0.0019
     23  CD1      212.5070  169.8760  130.5890 C.3   118  LEU118      0.0001
     24  CD2      210.2990  168.9490  129.8710 C.3   118  LEU118      0.0001
     25  N        205.2980  171.9670  139.5400 N.3   156  PRO156     -0.2102
     26  CA       204.8600  173.0490  138.6520 C.3   156  PRO156      0.1504
     27  C        205.5350  174.3860  138.9460 C.2   156  PRO156      0.2576
     28  O        205.9070  174.6330  140.0920 O.2   156  PRO156     -0.2718
     29  CB       203.3510  173.1380  138.9240 C.3   156  PRO156      0.0282
     30  CG       202.9990  171.8780  139.6710 C.3   156  PRO156      0.0208
     31  CD       204.2240  171.5450  140.4510 C.3   156  PRO156      0.0893
     32  N        205.6690  175.2430  137.9360 N.am  157  GLY157     -0.1943
     33  CA       205.3810  174.8900  136.5560 C.3   157  GLY157      0.2014
     34  C        206.4000  174.0150  135.8450 C.2   157  GLY157      0.2640
     35  O        207.5860  174.3430  135.8010 O.2   157  GLY157     -0.2714
     36  N        205.9390  172.8980  135.2870 N.am  158  THR158     -0.1936
     37  CA       206.7280  172.1050  134.3530 C.3   158  THR158      0.2028
     38  C        206.3670  172.3670  132.8970 C.2   158  THR158      0.2643
     39  O        206.9980  171.7930  132.0040 O.2   158  THR158     -0.2714
     40  CB       206.5800  170.6120  134.6610 C.3   158  THR158      0.1808
     41  OG1      205.2220  170.3280  135.0180 O.3   158  THR158     -0.2208
     42  CG2      207.5080  170.1990  135.7910 C.3   158  THR158      0.0379
     43  N        205.3750  173.2160  132.6340 N.am  159  GLY159     -0.1939
     44  CA       204.9450  173.4730  131.2740 C.3   159  GLY159      0.2014
     45  C        204.2110  172.3350  130.6030 C.2   159  GLY159      0.2639
     46  O        204.0410  172.3660  129.3810 O.2   159  GLY159     -0.2714
     47  N        203.7570  171.3370  131.3650 N.am  160  LYS160     -0.1963
     48  CA       203.1150  170.1720  130.7640 C.3   160  LYS160      0.1728
     49  C        201.7630  170.5170  130.1550 C.2   160  LYS160      0.2617
     50  O        201.2830  169.8010  129.2680 O.2   160  LYS160     -0.2715
     51  CB       202.9520  169.0700  131.8080 C.3   160  LYS160      0.0311
     52  CG       204.2400  168.6950  132.5120 C.3   160  LYS160      0.0038
     53  CD       203.9930  167.6560  133.5900 C.3   160  LYS160      0.0206
     54  CE       202.8740  168.0820  134.5280 C.3   160  LYS160      0.1093
     55  NZ       203.1840  169.3540  135.2340 N.3   160  LYS160     -0.1314
     56  N        201.1310  171.5960  130.6170 N.am  161  THR161     -0.1937
     57  CA       199.8180  171.9690  130.0990 C.3   161  THR161      0.2028
     58  C        199.9040  172.3670  128.6300 C.2   161  THR161      0.2642
     59  O        199.1700  171.8400  127.7850 O.2   161  THR161     -0.2714
     60  CB       199.2250  173.1050  130.9360 C.3   161  THR161      0.1808
     61  OG1      199.1600  172.7040  132.3100 O.3   161  THR161     -0.2208
     62  CG2      197.8270  173.4530  130.4480 C.3   161  THR161      0.0379
     63  N        200.7980  173.3030  128.3060 N.am  162  LEU162     -0.1977
     64  CA       200.9630  173.7430  126.9270 C.3   162  LEU162      0.1596
     65  C        201.8160  172.7930  126.0960 C.2   162  LEU162      0.2287
     66  O        201.6120  172.7070  124.8800 O.2   162  LEU162     -0.2864
     67  CB       201.5780  175.1450  126.8860 C.3   162  LEU162      0.0297
     68  CG       200.6430  176.3420  127.0960 C.3   162  LEU162      0.0022
     69  CD1      200.1710  176.4520  128.5420 C.3   162  LEU162      0.0001
     70  CD2      201.3170  177.6310  126.6480 C.3   162  LEU162      0.0001
     71  N        194.1590  166.4920  132.8620 N.3   213  ASP213     -0.1225
     72  CA       195.0790  167.1620  133.7700 C.3   213  ASP213      0.1805
     73  C        194.7190  166.8150  135.2060 C.2   213  ASP213      0.2597
     74  O        193.5380  166.8020  135.5670 O.2   213  ASP213     -0.2718
     75  CB       195.0430  168.6790  133.5540 C.3   213  ASP213      0.1424
     76  CG       196.2450  169.3830  134.1490 C.2   213  ASP213      0.3668
     77  OD1      197.3200  168.7540  134.2370 O.co2 213  ASP213     -0.2456
     78  OD2      196.1160  170.5700  134.5150 O.co2 213  ASP213     -0.2456
     79  N        195.7420  166.5340  136.0170 N.am  214  GLU214     -0.1979
     80  CA       195.5950  166.1670  137.4270 C.3   214  GLU214      0.1602
     81  C        194.7040  164.9290  137.5820 C.2   214  GLU214      0.2287
     82  O        193.5830  164.9790  138.0930 O.2   214  GLU214     -0.2864
     83  CB       195.0550  167.3400  138.2530 C.3   214  GLU214      0.0415
     84  CG       196.0110  168.5140  138.3790 C.3   214  GLU214      0.1163
     85  CD       195.6730  169.6470  137.4320 C.2   214  GLU214      0.3649
     86  OE1      194.6140  169.5760  136.7740 O.co2 214  GLU214     -0.2457
     87  OE2      196.4640  170.6100  137.3480 O.co2 214  GLU214     -0.2457
     88  N        198.0990  163.7260  132.6500 N.3   258  ALA258     -0.1245
     89  CA       199.0900  164.5210  133.3600 C.3   258  ALA258      0.1562
     90  C        198.6360  164.7160  134.7990 C.2   258  ALA258      0.2260
     91  O        197.4430  164.8680  135.0730 O.2   258  ALA258     -0.2867
     92  CB       199.3160  165.8790  132.6870 C.3   258  ALA258      0.0290
     93  N        199.9630  166.4520  138.8690 N.3   260  ASN260     -0.1240
     94  CA       200.8850  167.3260  139.5860 C.3   260  ASN260      0.1653
     95  C        201.8870  166.5410  140.4220 C.2   260  ASN260      0.2266
     96  O        203.0640  166.9130  140.4800 O.2   260  ASN260     -0.2867
     97  CB       200.1110  168.2950  140.4810 C.3   260  ASN260      0.1155
     98  CG       199.2950  169.2950  139.6890 C.2   260  ASN260      0.2627
     99  OD1      199.5440  169.5180  138.5040 O.2   260  ASN260     -0.2716
    100  ND2      198.3160  169.9090  140.3420 N.am  260  ASN260     -0.0877
    101  N        214.0510  172.0910  135.8900 N.3   284  PRO284     -0.2116
    102  CA       214.9040  172.1890  134.6980 C.3   284  PRO284      0.1372
    103  C        216.3210  172.6210  135.0420 C.2   284  PRO284      0.2244
    104  O        216.5690  173.2680  136.0600 O.2   284  PRO284     -0.2868
    105  CB       214.1930  173.2400  133.8380 C.3   284  PRO284      0.0268
    106  CG       212.7720  173.2010  134.2940 C.3   284  PRO284      0.0207
    107  CD       212.8300  172.9050  135.7650 C.3   284  PRO284      0.0892
    108  N        214.4890  177.8910  127.9250 N.3   292  ILE292     -0.1245
    109  CA       213.0350  178.0100  127.9020 C.3   292  ILE292      0.1561
    110  C        212.6110  179.4570  128.1190 C.2   292  ILE292      0.2260
    111  O        211.5860  179.9040  127.5900 O.2   292  ILE292     -0.2867
    112  CB       212.4050  177.0670  128.9450 C.3   292  ILE292      0.0252
    113  CG1      212.8650  177.4240  130.3620 C.3   292  ILE292      0.0019
    114  CG2      212.7560  175.6230  128.6340 C.3   292  ILE292      0.0019
    115  CD1      211.8340  178.1810  131.1760 C.3   292  ILE292      0.0001
    116  N        210.6760  182.4730  125.4070 N.3   296  HIS296     -0.1241
    117  CA       209.5550  183.3050  125.8260 C.3   296  HIS296      0.1621
    118  C        209.8790  184.7910  125.7310 C.2   296  HIS296      0.2264
    119  O        208.9720  185.6060  125.5280 O.2   296  HIS296     -0.2867
    120  CB       209.1430  182.9480  127.2560 C.3   296  HIS296      0.0745
    121  CG       208.7660  181.5100  127.4350 C.ar  296  HIS296      0.0817
    122  ND1      208.6890  180.9100  128.6730 N.ar  296  HIS296     -0.2268
    123  CD2      208.4430  180.5540  126.5320 C.ar  296  HIS296      0.1154
    124  CE1      208.3360  179.6450  128.5250 C.ar  296  HIS296      0.1986
    125  NE2      208.1800  179.4040  127.2360 N.ar  296  HIS296     -0.2212
    126  N        209.6000  176.1810  135.9760 N.3   320  GLY320     -0.1210
    127  CA       209.4340  176.8980  134.7220 C.3   320  GLY320      0.1956
    128  C        208.4280  178.0300  134.8130 C.2   320  GLY320      0.2611
    129  O        208.5460  179.0350  134.1070 O.2   320  GLY320     -0.2717
    130  N        207.4190  177.8820  135.6750 N.am  321  ALA321     -0.1979
    131  CA       206.4570  178.9630  135.8660 C.3   321  ALA321      0.1597
    132  C        207.1030  180.1480  136.5700 C.2   321  ALA321      0.2287
    133  O        206.8230  181.3060  136.2400 O.2   321  ALA321     -0.2864
    134  CB       205.2450  178.4630  136.6500 C.3   321  ALA321      0.0319
    135  N        208.8850  182.1100  133.9070 N.3   324  LYS324     -0.1245
    136  CA       208.0050  183.0650  133.2460 C.3   324  LYS324      0.1561
    137  C        207.6320  184.2280  134.1520 C.2   324  LYS324      0.2260
    138  O        207.3980  185.3330  133.6510 O.2   324  LYS324     -0.2867
    139  CB       206.7330  182.3770  132.7490 C.3   324  LYS324      0.0271
    140  CG       206.9240  181.5550  131.4870 C.3   324  LYS324      0.0035
    141  CD       205.6180  181.4150  130.7220 C.3   324  LYS324      0.0206
    142  CE       205.1190  182.7640  130.2320 C.3   324  LYS324      0.1093
    143  NZ       206.0860  183.4070  129.3000 N.3   324  LYS324     -0.1314
@<TRIPOS>BOND
     1     7     6   ar
     2     8     6   ar
     3     6     5    1
     4     1     2    1
     5     2     5    1
     6     2     3    1
     7    12    11    2
     8     3     9   am
     9     3     4    2
    10     9    10    1
    11    66    65    2
    12    14    16    1
    13    14    13    1
    14   116   117    1
    15   119   118    2
    16    11    10    1
    17   118   117    1
    18    10    13    1
    19   117   120    1
    20    65    64    1
    21    13    15    1
    22   123   125   ar
    23   123   121   ar
    24    70    68    1
    25    67    64    1
    26    67    68    1
    27    64    63    1
    28    20    19    2
    29    68    69    1
    30    19    18    1
    31   125   124   ar
    32   120   121    1
    33   121   122   ar
    34   111   110    2
    35    59    58    2
    36   109   108    1
    37   109   110    1
    38   109   112    1
    39    63    58   am
    40    17    18    1
    41    18    21    1
    42   124   122   ar
    43    21    22    1
    44    58    57    1
    45   114   112    1
    46   112   113    1
    47    50    49    2
    48   143   142    1
    49    46    45    2
    50    24    22    1
    51    22    23    1
    52    57    56    1
    53    57    60    1
    54    49    56   am
    55    49    48    1
    56   142   141    1
    57   113   115    1
    58    62    60    1
    59    45    44    1
    60    45    47   am
    61   141   140    1
    62    48    47    1
    63    48    51    1
    64    60    61    1
    65    44    43    1
    66   140   139    1
    67    51    52    1
    68    39    38    2
    69    52    53    1
    70    43    38   am
    71    88    89    1
    72    92    89    1
    73   139   136    1
    74    71    72    1
    75    38    37    1
    76   136   135    1
    77   136   137    1
    78    89    90    1
    79    75    72    1
    80    75    76    1
    81    53    54    1
    82   138   137    2
    83    72    73    1
    84   105   106    1
    85   105   102    1
    86   129   128    2
    87    76    77   ar
    88    76    78   ar
    89   106   107    1
    90    37    40    1
    91    37    36    1
    92    54    55    1
    93    40    41    1
    94    40    42    1
    95   102   103    1
    96   102   101    1
    97   127   128    1
    98   127   126    1
    99    90    91    2
   100   128   130   am
   101   103   104    2
   102    73    74    2
   103    73    79   am
   104    36    34   am
   105   130   131    1
   106   107   101    1
   107    35    34    2
   108    34    33    1
   109   131   132    1
   110   131   134    1
   111    79    80    1
   112   133   132    2
   113    33    32    1
   114    86    85   ar
   115    87    85   ar
   116    80    81    1
   117    80    83    1
   118    85    84    1
   119    81    82    2
   120    32    27   am
   121    83    84    1
   122    99    98    2
   123    26    29    1
   124    26    27    1
   125    26    25    1
   126    93    94    1
   127    29    30    1
   128    27    28    2
   129    25    31    1
   130    94    95    1
   131    94    97    1
   132    30    31    1
   133    98   100   am
   134    98    97    1
   135    95    96    2
