@<TRIPOS>MOLECULE
tmp/5t0lB03.pdb
 158 154 0 0 0
SMALL
GASTEIGER

@<TRIPOS>ATOM
      1  N          8.3830   39.6780  -69.0640 N.3     5  VAL5       -0.1231
      2  CA         8.0790   40.2230  -67.7370 C.3     5  VAL5        0.1692
      3  C          7.9490   39.1190  -66.6770 C.2     5  VAL5        0.2592
      4  O          7.0940   38.2330  -66.7770 O.2     5  VAL5       -0.2718
      5  CB         6.8520   41.1770  -67.7650 C.3     5  VAL5        0.0266
      6  CG1        5.6680   40.5450  -68.4880 C.3     5  VAL5        0.0020
      7  CG2        6.4620   41.6150  -66.3610 C.3     5  VAL5        0.0020
      8  N          8.8090   39.1880  -65.6630 N.am    6  VAL6       -0.1966
      9  CA         8.9930   38.0930  -64.7030 C.3     6  VAL6        0.1727
     10  C          9.1960   38.5330  -63.2620 C.2     6  VAL6        0.2616
     11  O          9.7740   39.5880  -63.0000 O.2     6  VAL6       -0.2715
     12  CB        10.2350   37.2430  -65.0430 C.3     6  VAL6        0.0290
     13  CG1        9.8390   36.0090  -65.8170 C.3     6  VAL6        0.0023
     14  CG2       11.2770   38.0620  -65.7960 C.3     6  VAL6        0.0023
     15  N          8.7320   37.6990  -62.3360 N.am    7  ALA7       -0.1977
     16  CA         9.0970   37.8080  -60.9250 C.3     7  ALA7        0.1597
     17  C          9.8740   36.5530  -60.5440 C.2     7  ALA7        0.2287
     18  O          9.4810   35.4430  -60.9030 O.2     7  ALA7       -0.2864
     19  CB         7.8640   37.9700  -60.0550 C.3     7  ALA7        0.0319
     20  N          1.1730   27.6700  -58.9410 N.3    19  GLY19      -0.1210
     21  CA         0.9150   28.8930  -58.1830 C.3    19  GLY19       0.1956
     22  C          2.2150   29.6140  -57.8730 C.2    19  GLY19       0.2611
     23  O          3.2990   29.0650  -58.0810 O.2    19  GLY19      -0.2717
     24  N          2.1090   30.8490  -57.3900 N.am   20  LEU20      -0.1979
     25  CA         3.2910   31.6520  -57.0750 C.3    20  LEU20       0.1596
     26  C          3.9190   31.1820  -55.7620 C.2    20  LEU20       0.2287
     27  O          3.2020   30.8000  -54.8340 O.2    20  LEU20      -0.2864
     28  CB         2.9490   33.1490  -57.0300 C.3    20  LEU20       0.0297
     29  CG         2.3960   33.8070  -58.3040 C.3    20  LEU20       0.0022
     30  CD1        2.0330   35.2570  -58.0270 C.3    20  LEU20       0.0001
     31  CD2        3.3740   33.7130  -59.4710 C.3    20  LEU20       0.0001
     32  N          5.6580   32.8670  -53.4320 N.3    22  TRP22      -0.1241
     33  CA         5.6300   33.8390  -52.3390 C.3    22  TRP22       0.1605
     34  C          4.2000   34.2770  -51.9730 C.2    22  TRP22       0.2264
     35  O          3.2470   33.9470  -52.6910 O.2    22  TRP22      -0.2867
     36  CB         6.4650   35.0600  -52.7470 C.3    22  TRP22       0.0550
     37  CG         6.2430   35.4510  -54.1780 C.ar   22  TRP22       0.0003
     38  CD1        5.1910   36.1590  -54.6770 C.ar   22  TRP22       0.0946
     39  CD2        7.0770   35.1310  -55.2940 C.ar   22  TRP22       0.0152
     40  NE1        5.3210   36.3100  -56.0340 N.ar   22  TRP22      -0.2442
     41  CE2        6.4720   35.6880  -56.4400 C.ar   22  TRP22       0.0810
     42  CE3        8.2810   34.4320  -55.4370 C.ar   22  TRP22       0.0012
     43  CZ2        7.0300   35.5700  -57.7160 C.ar   22  TRP22       0.0191
     44  CZ3        8.8390   34.3170  -56.7060 C.ar   22  TRP22       0.0001
     45  CH2        8.2130   34.8850  -57.8280 C.ar   22  TRP22       0.0015
     46  N          4.3270   44.6480  -56.9970 N.3    28  ASP28      -0.1225
     47  CA         4.6700   43.8410  -58.1680 C.3    28  ASP28       0.1805
     48  C          3.4990   43.7300  -59.1530 C.2    28  ASP28       0.2597
     49  O          3.6970   43.8310  -60.3670 O.2    28  ASP28      -0.2718
     50  CB         5.1570   42.4500  -57.7430 C.3    28  ASP28       0.1424
     51  CG         5.5650   41.5820  -58.9240 C.2    28  ASP28       0.3668
     52  OD1        6.3320   42.0550  -59.7880 O.co2  28  ASP28      -0.2456
     53  OD2        5.1220   40.4180  -58.9830 O.co2  28  ASP28      -0.2456
     54  N          2.2910   43.5300  -58.6260 N.am   29  PHE29      -0.1976
     55  CA         1.0940   43.4520  -59.4620 C.3    29  PHE29       0.1639
     56  C          0.7430   44.7890  -60.0970 C.2    29  PHE29       0.2290
     57  O          0.2870   44.8330  -61.2450 O.2    29  PHE29      -0.2864
     58  CB        -0.0930   42.8910  -58.6800 C.3    29  PHE29       0.0560
     59  CG        -0.1300   41.3920  -58.6510 C.ar   29  PHE29      -0.0200
     60  CD1       -0.6780   40.6790  -59.7130 C.ar   29  PHE29      -0.0042
     61  CD2        0.4060   40.6890  -57.5770 C.ar   29  PHE29      -0.0042
     62  CE1       -0.7000   39.2930  -59.6970 C.ar   29  PHE29      -0.0003
     63  CE2        0.3830   39.3030  -57.5540 C.ar   29  PHE29      -0.0003
     64  CZ        -0.1710   38.6050  -58.6160 C.ar   29  PHE29      -0.0000
     65  N          2.9950   46.9520  -60.8540 N.3    31  HIS31      -0.1226
     66  CA         4.0580   47.0230  -61.8530 C.3    31  HIS31       0.1752
     67  C          3.7090   46.2250  -63.1070 C.2    31  HIS31       0.2596
     68  O          3.8440   46.7290  -64.2260 O.2    31  HIS31      -0.2718
     69  CB         5.3700   46.5270  -61.2300 C.3    31  HIS31       0.0759
     70  CG         6.4340   46.1790  -62.2230 C.ar   31  HIS31       0.0818
     71  ND1        7.2130   47.1300  -62.8450 N.ar   31  HIS31      -0.2268
     72  CD2        6.8670   44.9810  -62.6810 C.ar   31  HIS31       0.1154
     73  CE1        8.0690   46.5340  -63.6550 C.ar   31  HIS31       0.1986
     74  NE2        7.8810   45.2290  -63.5730 N.ar   31  HIS31      -0.2212
     75  N          3.2580   44.9870  -62.9030 N.am   32  PHE32      -0.1976
     76  CA         2.8870   44.0750  -63.9880 C.3    32  PHE32       0.1639
     77  C          1.7590   44.6550  -64.8280 C.2    32  PHE32       0.2290
     78  O          1.7980   44.5970  -66.0590 O.2    32  PHE32      -0.2864
     79  CB         2.4780   42.7090  -63.4180 C.3    32  PHE32       0.0560
     80  CG         1.9820   41.7350  -64.4550 C.ar   32  PHE32      -0.0200
     81  CD1        2.8770   41.0590  -65.2830 C.ar   32  PHE32      -0.0042
     82  CD2        0.6170   41.4810  -64.5960 C.ar   32  PHE32      -0.0042
     83  CE1        2.4210   40.1620  -66.2400 C.ar   32  PHE32      -0.0003
     84  CE2        0.1560   40.5840  -65.5510 C.ar   32  PHE32      -0.0003
     85  CZ         1.0590   39.9260  -66.3750 C.ar   32  PHE32      -0.0000
     86  N          0.1750   28.8060  -67.0470 N.3    53  THR53      -0.1218
     87  CA         0.1300   30.1900  -66.5780 C.3    53  THR53       0.1862
     88  C         -1.3100   30.7040  -66.6150 C.2    53  THR53       0.2287
     89  O         -1.7960   31.2580  -65.6280 O.2    53  THR53      -0.2866
     90  CB         1.0680   31.0990  -67.4050 C.3    53  THR53       0.1770
     91  OG1        2.4210   30.6610  -67.2360 O.3    53  THR53      -0.2211
     92  CG2        0.9630   32.5590  -66.9640 C.3    53  THR53       0.0375
     93  N         -3.2310   29.1150  -63.9190 N.3    56  SER56      -0.1202
     94  CA        -2.7840   29.5490  -62.5960 C.3    56  SER56       0.2020
     95  C         -3.5020   30.8230  -62.1530 C.2    56  SER56       0.2619
     96  O         -3.6640   31.0640  -60.9540 O.2    56  SER56      -0.2717
     97  CB        -1.2690   29.7570  -62.5740 C.3    56  SER56       0.2103
     98  OG        -0.8810   30.8300  -63.4110 O.3    56  SER56      -0.2182
     99  N         -3.9200   31.6330  -63.1250 N.am   57  MET57      -0.1965
    100  CA        -4.6810   32.8510  -62.8590 C.3    57  MET57       0.1721
    101  C         -6.0840   32.5100  -62.3620 C.2    57  MET57       0.2458
    102  O         -6.7130   31.5840  -62.8770 O.2    57  MET57      -0.2730
    103  CB        -4.7930   33.6960  -64.1240 C.3    57  MET57       0.0427
    104  CG        -3.4880   34.2960  -64.6120 C.3    57  MET57       0.0599
    105  SD        -3.7290   35.1570  -66.1740 S.3    57  MET57      -0.1393
    106  CE        -4.8890   36.4320  -65.6790 C.3    57  MET57       0.0692
    107  N         -6.5760   33.2460  -61.3490 N.am   58  PRO58      -0.2727
    108  CA        -7.9630   33.0910  -60.9120 C.3    58  PRO58       0.1402
    109  C         -8.9490   33.6120  -61.9550 C.2    58  PRO58       0.2269
    110  O         -8.6270   34.5320  -62.7140 O.2    58  PRO58      -0.2865
    111  CB        -8.0320   33.9340  -59.6340 C.3    58  PRO58       0.0296
    112  CG        -6.9160   34.9060  -59.7580 C.3    58  PRO58       0.0237
    113  CD        -5.8280   34.1580  -60.4710 C.3    58  PRO58       0.0939
    114  N         -9.8760   37.4820  -63.0380 N.3    61  PHE61      -0.1241
    115  CA        -8.8310   38.3010  -63.6580 C.3    61  PHE61       0.1605
    116  C         -8.4830   37.8870  -65.0900 C.2    61  PHE61       0.2264
    117  O         -7.7630   38.6090  -65.7870 O.2    61  PHE61      -0.2867
    118  CB        -7.5640   38.3170  -62.7960 C.3    61  PHE61       0.0534
    119  CG        -7.6280   39.2660  -61.6300 C.ar   61  PHE61      -0.0203
    120  CD1       -7.6990   40.6420  -61.8330 C.ar   61  PHE61      -0.0042
    121  CD2       -7.5920   38.7840  -60.3250 C.ar   61  PHE61      -0.0042
    122  CE1       -7.7490   41.5140  -60.7560 C.ar   61  PHE61      -0.0003
    123  CE2       -7.6410   39.6510  -59.2450 C.ar   61  PHE61      -0.0003
    124  CZ        -7.7190   41.0180  -59.4610 C.ar   61  PHE61      -0.0000
    125  N         -6.7290   38.8630  -69.1140 N.3    64  LEU64      -0.1245
    126  CA        -6.1900   40.1300  -68.6300 C.3    64  LEU64       0.1561
    127  C         -6.8160   41.2930  -69.3950 C.2    64  LEU64       0.2260
    128  O         -6.6990   41.3820  -70.6230 O.2    64  LEU64      -0.2867
    129  CB        -4.6620   40.1570  -68.7440 C.3    64  LEU64       0.0270
    130  CG        -3.8650   39.3710  -67.6970 C.3    64  LEU64       0.0019
    131  CD1       -2.4120   39.2420  -68.1260 C.3    64  LEU64       0.0001
    132  CD2       -3.9630   40.0100  -66.3180 C.3    64  LEU64       0.0001
    133  N          4.6130   36.5180  -70.9330 N.3   121  VAL121     -0.1245
    134  CA         4.2300   36.6030  -69.5250 C.3   121  VAL121      0.1561
    135  C          4.4830   35.3090  -68.7370 C.2   121  VAL121      0.2260
    136  O          4.3830   35.2920  -67.5050 O.2   121  VAL121     -0.2867
    137  CB         2.7620   37.0920  -69.3990 C.3   121  VAL121      0.0252
    138  CG1        2.1830   36.8450  -68.0130 C.3   121  VAL121      0.0019
    139  CG2        2.6720   38.5700  -69.7490 C.3   121  VAL121      0.0019
    140  N          9.2230   31.4190  -71.8390 N.3   127  TYR127     -0.1241
    141  CA        10.4330   32.1780  -71.5230 C.3   127  TYR127      0.1605
    142  C         11.6460   31.5890  -72.2340 C.2   127  TYR127      0.2264
    143  O         12.4320   32.3200  -72.8450 O.2   127  TYR127     -0.2867
    144  CB        10.6810   32.2220  -70.0100 C.3   127  TYR127      0.0534
    145  CG         9.6790   33.0380  -69.2130 C.ar  127  TYR127     -0.0201
    146  CD1        9.1980   34.2620  -69.6880 C.ar  127  TYR127     -0.0009
    147  CD2        9.2370   32.6000  -67.9650 C.ar  127  TYR127     -0.0009
    148  CE1        8.2880   35.0080  -68.9550 C.ar  127  TYR127      0.0417
    149  CE2        8.3300   33.3380  -67.2230 C.ar  127  TYR127      0.0417
    150  CZ         7.8590   34.5410  -67.7220 C.ar  127  TYR127      0.1957
    151  OH         6.9620   35.2800  -66.9850 O.3   127  TYR127     -0.2866
    152  N         11.4370   41.2990  -61.8050 N.3   142  THR142     -0.1218
    153  CA        11.2490   41.6370  -60.3940 C.3   142  THR142      0.1862
    154  C         12.0410   40.6400  -59.5400 C.2   142  THR142      0.2287
    155  O         11.6820   39.4630  -59.4490 O.2   142  THR142     -0.2866
    156  CB         9.7570   41.6180  -60.0000 C.3   142  THR142      0.1770
    157  OG1        9.0410   42.5650  -60.8020 O.3   142  THR142     -0.2211
    158  CG2        9.5790   41.9740  -58.5370 C.3   142  THR142      0.0375
@<TRIPOS>BOND
     1   143   142    2
     2   142   141    1
     3   140   141    1
     4   141   144    1
     5   133   134    1
     6   128   127    2
     7   144   145    1
     8   139   137    1
     9   146   145   ar
    10   146   148   ar
    11   134   137    1
    12   134   135    1
    13   137   138    1
    14   127   126    1
    15   145   147   ar
    16   125   126    1
    17     1     2    1
    18   148   150   ar
    19   129   126    1
    20   129   130    1
    21   135   136    2
    22     6     5    1
    23   131   130    1
    24   147   149   ar
    25     5     2    1
    26     5     7    1
    27     2     3    1
    28   150   149   ar
    29   150   151    1
    30   130   132    1
    31    90    91    1
    32    90    92    1
    33    90    87    1
    34    86    87    1
    35     4     3    2
    36     3     8   am
    37    88    87    1
    38    88    89    2
    39    85    83   ar
    40    85    84   ar
    41    83    81   ar
    42   105   106    1
    43   105   104    1
    44    78    77    2
    45    13    12    1
    46    14    12    1
    47   117   116    2
    48     8     9    1
    49    84    82   ar
    50    81    80   ar
    51   116   115    1
    52    12     9    1
    53    77    76    1
    54     9    10    1
    55   104   103    1
    56    82    80   ar
    57    80    79    1
    58    68    67    2
    59   103   100    1
    60    76    79    1
    61    76    75    1
    62    93    94    1
    63   115   114    1
    64   115   118    1
    65    73    74   ar
    66    73    71   ar
    67    74    72   ar
    68    98    97    1
    69    10    11    2
    70    10    15   am
    71    99   100    1
    72    99    95   am
    73    67    75   am
    74    67    66    1
    75   102   101    2
    76   100   101    1
    77    71    70   ar
    78   118   119    1
    79   110   109    2
    80    72    70   ar
    81    94    97    1
    82    94    95    1
    83   101   107   am
    84    15    16    1
    85    70    69    1
    86    95    96    2
    87   109   108    1
    88    66    69    1
    89    66    65    1
    90   120   119   ar
    91   120   122   ar
    92   152   153    1
    93   119   121   ar
    94   107   108    1
    95   107   113    1
    96    57    56    2
    97    16    17    1
    98    16    19    1
    99   108   111    1
   100    18    17    2
   101   157   156    1
   102   122   124   ar
   103   113   112    1
   104   153   156    1
   105   153   154    1
   106    49    48    2
   107   121   123   ar
   108    56    55    1
   109   156   158    1
   110    52    51   ar
   111   112   111    1
   112    60    62   ar
   113    60    59   ar
   114    62    64   ar
   115   154   155    2
   116    31    29    1
   117    55    58    1
   118    55    54    1
   119   124   123   ar
   120    48    54   am
   121    48    47    1
   122    53    51   ar
   123    20    21    1
   124    51    50    1
   125    58    59    1
   126    59    61   ar
   127    64    63   ar
   128    29    30    1
   129    29    28    1
   130    21    22    1
   131    47    50    1
   132    47    46    1
   133    23    22    2
   134    22    24   am
   135    45    43   ar
   136    45    44   ar
   137    43    41   ar
   138    61    63   ar
   139    24    25    1
   140    25    28    1
   141    25    26    1
   142    44    42   ar
   143    41    40   ar
   144    41    39   ar
   145    40    38   ar
   146    26    27    2
   147    42    39   ar
   148    39    37   ar
   149    38    37   ar
   150    37    36    1
   151    32    33    1
   152    36    33    1
   153    35    34    2
   154    33    34    1
