@<TRIPOS>MOLECULE
tmp/5t0pB00.pdb
 192 180 0 0 0
SMALL
GASTEIGER

@<TRIPOS>ATOM
      1  N         -4.0810   76.9350   32.6010 N.3    16  LEU16      -0.1231
      2  CA        -4.3040   76.2540   31.3040 C.3    16  LEU16       0.1696
      3  C         -5.5570   76.7110   30.5330 C.2    16  LEU16       0.2632
      4  O         -5.5450   76.7440   29.2900 O.2    16  LEU16      -0.2714
      5  CB        -4.3660   74.7360   31.4920 C.3    16  LEU16       0.0284
      6  CG        -3.2590   74.0660   32.3320 C.3    16  LEU16       0.0019
      7  CD1       -3.4810   72.5630   32.4250 C.3    16  LEU16       0.0001
      8  CD2       -1.8790   74.3510   31.7670 C.3    16  LEU16       0.0001
      9  N         -6.6330   77.0370   31.2520 N.am   17  GLY17      -0.1718
     10  CA        -7.8340   77.5810   30.6150 C.2    17  GLY17       0.1480
     11  C         -8.8970   78.0950   31.5740 C.2    17  GLY17       0.2820
     12  O         -9.2310   77.4180   32.5430 O.2    17  GLY17      -0.2669
     13  N         -9.4190   79.2880   31.2830 N.am   18  GLN18      -0.1929
     14  CA       -10.5300   79.9140   32.0170 C.3    18  GLN18       0.1736
     15  C        -11.8720   79.3880   31.4790 C.2    18  GLN18       0.2617
     16  O        -11.9760   79.0670   30.2930 O.2    18  GLN18      -0.2715
     17  CB       -10.4330   81.4490   31.8620 C.3    18  GLN18       0.0408
     18  CG       -11.4790   82.3020   32.5780 C.3    18  GLN18       0.0908
     19  CD       -11.1270   83.7980   32.5930 C.2    18  GLN18       0.2608
     20  OE1      -10.1900   84.2490   31.9270 O.2    18  GLN18      -0.2717
     21  NE2      -11.8810   84.5690   33.3620 N.am   18  GLN18      -0.0878
     22  N        -12.8880   79.3120   32.3420 N.am   19  GLY19      -0.1955
     23  CA       -14.2140   78.7650   31.9790 C.3    19  GLY19       0.1869
     24  C        -15.3520   79.2630   32.8630 C.2    19  GLY19       0.2309
     25  O        -15.1130   79.9990   33.8240 O.2    19  GLY19      -0.2863
     26  N        -17.6550   77.0980   34.4670 N.3    21  PHE21      -0.1227
     27  CA       -17.4790   76.2250   35.6360 C.3    21  PHE21       0.1736
     28  C        -16.3210   76.7370   36.5130 C.2    21  PHE21       0.2596
     29  O        -16.4640   76.8400   37.7280 O.2    21  PHE21      -0.2718
     30  CB       -17.2450   74.7460   35.2350 C.3    21  PHE21       0.0547
     31  CG       -18.3700   74.1250   34.4390 C.ar   21  PHE21      -0.0202
     32  CD1      -19.5660   73.7360   35.0540 C.ar   21  PHE21      -0.0042
     33  CD2      -18.2200   73.8870   33.0750 C.ar   21  PHE21      -0.0042
     34  CE1      -20.5900   73.1500   34.3170 C.ar   21  PHE21      -0.0003
     35  CE2      -19.2430   73.2980   32.3350 C.ar   21  PHE21      -0.0003
     36  CZ       -20.4290   72.9300   32.9560 C.ar   21  PHE21      -0.0000
     37  N        -15.2020   77.0970   35.8820 N.am   22  GLY22      -0.1957
     38  CA       -14.0020   77.5490   36.5820 C.3    22  GLY22       0.1869
     39  C        -12.7350   77.2670   35.7900 C.2    22  GLY22       0.2309
     40  O        -12.7790   76.8190   34.6380 O.2    22  GLY22      -0.2863
     41  N         -8.7150   75.7130   34.9680 N.3    24  VAL24      -0.1245
     42  CA        -7.9960   74.4300   34.9250 C.3    24  VAL24       0.1561
     43  C         -6.4910   74.7040   34.9960 C.2    24  VAL24       0.2260
     44  O         -5.9730   75.4800   34.2030 O.2    24  VAL24      -0.2867
     45  CB        -8.3380   73.6430   33.6430 C.3    24  VAL24       0.0252
     46  CG1       -7.5390   72.3420   33.5610 C.3    24  VAL24       0.0019
     47  CG2       -9.8390   73.3650   33.6020 C.3    24  VAL24       0.0019
     48  N         -3.0210   67.6050   36.8600 N.3    36  ALA36      -0.1245
     49  CA        -3.9610   68.6040   36.3540 C.3    36  ALA36       0.1562
     50  C         -5.0120   68.8130   37.4270 C.2    36  ALA36       0.2260
     51  O         -5.2770   67.8930   38.2200 O.2    36  ALA36      -0.2867
     52  CB        -4.5940   68.1570   35.0460 C.3    36  ALA36       0.0290
     53  N         -8.8510   70.6270   37.8180 N.3    38  LYS38      -0.1245
     54  CA       -10.0790   71.3070   37.3990 C.3    38  LYS38       0.1561
     55  C        -10.7260   71.8810   38.6420 C.2    38  LYS38       0.2260
     56  O        -10.9360   71.1460   39.6180 O.2    38  LYS38      -0.2867
     57  CB       -11.0370   70.3290   36.7140 C.3    38  LYS38       0.0271
     58  CG       -12.1850   71.0120   35.9830 C.3    38  LYS38       0.0035
     59  CD       -12.9660   70.0220   35.1170 C.3    38  LYS38       0.0206
     60  CE       -13.7940   70.7060   34.0380 C.3    38  LYS38       0.1093
     61  NZ       -14.3450   69.7350   33.0450 N.3    38  LYS38      -0.1314
     62  N        -19.9150   65.2550   37.9730 N.3    53  GLU53      -0.1245
     63  CA       -18.7750   65.4140   37.0210 C.3    53  GLU53       0.1567
     64  C        -17.7320   64.2960   37.1780 C.2    53  GLU53       0.2260
     65  O        -17.2640   63.7340   36.1770 O.2    53  GLU53      -0.2867
     66  CB       -18.0730   66.7910   37.1930 C.3    53  GLU53       0.0388
     67  CG       -17.3720   67.3660   35.9510 C.3    53  GLU53       0.1160
     68  CD       -15.9880   66.7840   35.6390 C.2    53  GLU53       0.3649
     69  OE1      -14.9970   67.2670   36.2180 O.co2  53  GLU53      -0.2457
     70  OE2      -15.8670   65.8840   34.7780 O.co2  53  GLU53      -0.2457
     71  N        -15.9640   59.1840   36.8290 N.3    57  MET57      -0.1245
     72  CA       -14.5090   59.0470   36.9590 C.3    57  MET57       0.1570
     73  C        -14.0900   58.1830   38.1390 C.2    57  MET57       0.2261
     74  O        -13.0470   57.5280   38.0850 O.2    57  MET57      -0.2867
     75  CB       -13.8410   60.4250   37.0540 C.3    57  MET57       0.0387
     76  CG       -13.8790   61.1630   35.7280 C.3    57  MET57       0.0595
     77  SD       -13.1600   62.8030   35.7050 S.3    57  MET57      -0.1393
     78  CE       -11.4230   62.4180   35.8640 C.3    57  MET57       0.0692
     79  N         -8.6800   59.4470   30.8510 N.3    66  VAL66      -0.1245
     80  CA        -8.0180   60.3330   31.8100 C.3    66  VAL66       0.1561
     81  C         -8.3510   59.8880   33.2210 C.2    66  VAL66       0.2260
     82  O         -9.5180   59.7480   33.5770 O.2    66  VAL66      -0.2867
     83  CB        -8.4370   61.8050   31.6060 C.3    66  VAL66       0.0252
     84  CG1       -7.9710   62.6840   32.7780 C.3    66  VAL66       0.0019
     85  CG2       -7.8960   62.3280   30.2700 C.3    66  VAL66       0.0019
     86  N        -10.7200   69.0880   41.4030 N.3    79  ILE79      -0.1245
     87  CA       -10.6100   67.7090   40.9050 C.3    79  ILE79       0.1561
     88  C         -9.1920   67.5250   40.3680 C.2    79  ILE79       0.2260
     89  O         -8.7490   68.3360   39.5610 O.2    79  ILE79      -0.2867
     90  CB       -11.6490   67.4270   39.7980 C.3    79  ILE79       0.0252
     91  CG1      -13.0570   67.6520   40.3420 C.3    79  ILE79       0.0019
     92  CG2      -11.5380   65.9930   39.2750 C.3    79  ILE79       0.0019
     93  CD1      -14.1580   67.4750   39.3140 C.3    79  ILE79       0.0001
     94  N         -6.3540   65.1580   38.3930 N.3    81  THR81      -0.1203
     95  CA        -6.2140   64.1000   37.3930 C.3    81  THR81       0.1994
     96  C         -4.7800   64.0430   36.9170 C.2    81  THR81       0.2618
     97  O         -3.9730   64.9090   37.2730 O.2    81  THR81      -0.2717
     98  CB        -7.1100   64.3760   36.1630 C.3    81  THR81       0.1784
     99  OG1       -6.6450   65.5320   35.4460 O.3    81  THR81      -0.2211
    100  CG2       -8.5290   64.6330   36.5930 C.3    81  THR81       0.0376
    101  N         -4.4660   63.0500   36.0860 N.am   82  GLU82      -0.1965
    102  CA        -3.1480   63.0020   35.4370 C.3    82  GLU82       0.1733
    103  C         -2.9940   64.1960   34.4900 C.2    82  GLU82       0.2616
    104  O         -3.9570   64.6090   33.8510 O.2    82  GLU82      -0.2715
    105  CB        -2.9510   61.6850   34.6800 C.3    82  GLU82       0.0429
    106  CG        -3.7480   61.5230   33.3840 C.3    82  GLU82       0.1163
    107  CD        -3.4150   60.2390   32.6530 C.2    82  GLU82       0.3649
    108  OE1       -4.3360   59.4170   32.4580 O.co2  82  GLU82      -0.2457
    109  OE2       -2.2320   60.0650   32.2630 O.co2  82  GLU82      -0.2457
    110  N         -1.8000   64.7710   34.4360 N.am   83  TYR83      -0.1960
    111  CA        -1.5150   65.8630   33.5020 C.3    83  TYR83       0.1771
    112  C         -1.2110   65.2660   32.1460 C.2    83  TYR83       0.2619
    113  O         -0.4190   64.3290   32.0330 O.2    83  TYR83      -0.2715
    114  CB        -0.3200   66.6800   33.9730 C.3    83  TYR83       0.0574
    115  CG         0.0620   67.8080   33.0540 C.ar   83  TYR83      -0.0198
    116  CD1       -0.8190   68.8560   32.8020 C.ar   83  TYR83      -0.0009
    117  CD2        1.3140   67.8490   32.4640 C.ar   83  TYR83      -0.0009
    118  CE1       -0.4710   69.9090   31.9640 C.ar   83  TYR83       0.0417
    119  CE2        1.6840   68.8980   31.6210 C.ar   83  TYR83       0.0417
    120  CZ         0.7840   69.9190   31.3660 C.ar   83  TYR83       0.1957
    121  OH         1.1450   70.9510   30.5310 O.3    83  TYR83      -0.2866
    122  N         -1.8460   65.7920   31.1150 N.am   84  MET84      -0.1977
    123  CA        -1.5410   65.3860   29.7450 C.3    84  MET84       0.1605
    124  C         -0.6840   66.4880   29.1420 C.2    84  MET84       0.2287
    125  O         -1.1410   67.6010   28.9100 O.2    84  MET84      -0.2864
    126  CB        -2.8100   65.1510   28.9390 C.3    84  MET84       0.0413
    127  CG        -3.7960   64.2150   29.6290 C.3    84  MET84       0.0598
    128  SD        -3.2500   62.5300   29.7510 S.3    84  MET84      -0.1393
    129  CE        -3.0210   62.0440   28.0290 C.3    84  MET84       0.0692
    130  N         -1.7530   68.5150   25.7020 N.3    87  GLY87      -0.1210
    131  CA        -3.0320   69.2450   25.6980 C.3    87  GLY87       0.1956
    132  C         -4.1250   68.5210   24.9470 C.2    87  GLY87       0.2612
    133  O         -4.0360   67.3080   24.7550 O.2    87  GLY87      -0.2717
    134  N         -5.1510   69.2610   24.5080 N.am   88  SER88      -0.1952
    135  CA        -6.2380   68.6910   23.6820 C.3    88  SER88       0.1924
    136  C         -5.7250   68.1860   22.3330 C.2    88  SER88       0.2314
    137  O         -4.7530   68.7200   21.7940 O.2    88  SER88      -0.2863
    138  CB        -7.3590   69.7130   23.4280 C.3    88  SER88       0.2116
    139  OG        -7.1870   70.3770   22.1790 O.3    88  SER88      -0.2180
    140  N         -6.0680   71.0580   19.5380 N.3    91  ASP91      -0.1239
    141  CA        -4.9430   71.9960   19.6090 C.3    91  ASP91       0.1674
    142  C         -3.6610   71.3740   19.0530 C.2    91  ASP91       0.2266
    143  O         -2.8790   72.0280   18.3450 O.2    91  ASP91      -0.2867
    144  CB        -4.6980   72.4260   21.0520 C.3    91  ASP91       0.1410
    145  CG        -5.8560   73.1900   21.6310 C.2    91  ASP91       0.3668
    146  OD1       -6.9990   72.9640   21.1840 O.co2  91  ASP91      -0.2456
    147  OD2       -5.6260   74.0130   22.5430 O.co2  91  ASP91      -0.2456
    148  N        -11.9360   68.0990   20.6890 N.3   133  ALA133     -0.1231
    149  CA       -11.7480   68.9940   21.8240 C.3   133  ALA133      0.1694
    150  C        -11.8130   68.3050   23.1920 C.2   133  ALA133      0.2592
    151  O        -11.4270   68.9220   24.1870 O.2   133  ALA133     -0.2718
    152  CB       -12.7720   70.1140   21.7460 C.3   133  ALA133      0.0304
    153  N        -12.3080   67.0630   23.2450 N.am  134  ASN134     -0.1974
    154  CA       -12.3710   66.2410   24.4920 C.3   134  ASN134      0.1688
    155  C        -11.4960   64.9730   24.4880 C.2   134  ASN134      0.2292
    156  O        -11.7780   63.9980   25.2030 O.2   134  ASN134     -0.2864
    157  CB       -13.8190   65.8600   24.7690 C.3   134  ASN134      0.1181
    158  CG       -14.7030   67.0780   24.9340 C.2   134  ASN134      0.2629
    159  OD1      -14.4100   67.9290   25.7690 O.2   134  ASN134     -0.2716
    160  ND2      -15.7790   67.1800   24.1290 N.am  134  ASN134     -0.0877
    161  N         -7.3850   64.0640   24.9660 N.3   136  LEU136     -0.1245
    162  CA        -6.1160   64.6080   25.4510 C.3   136  LEU136      0.1561
    163  C         -4.9310   63.7510   24.9530 C.2   136  LEU136      0.2260
    164  O         -4.9460   62.5250   25.0720 O.2   136  LEU136     -0.2867
    165  CB        -6.1540   64.7490   26.9840 C.3   136  LEU136      0.0270
    166  CG        -7.1740   65.7500   27.5760 C.3   136  LEU136      0.0019
    167  CD1       -7.4140   65.5510   29.0560 C.3   136  LEU136      0.0001
    168  CD2       -6.7160   67.1810   27.3420 C.3   136  LEU136      0.0001
    169  N        -11.5370   62.2470   27.4710 N.3   146  ALA146     -0.1231
    170  CA       -11.4690   63.2040   28.5790 C.3   146  ALA146      0.1694
    171  C        -12.8140   63.5740   29.2270 C.2   146  ALA146      0.2592
    172  O        -13.2110   62.8940   30.1640 O.2   146  ALA146     -0.2718
    173  CB       -10.7000   64.4460   28.1570 C.3   146  ALA146      0.0304
    174  N        -13.5070   64.6120   28.7490 N.am  147  ASP147     -0.1960
    175  CA       -14.5350   65.2880   29.5880 C.3   147  ASP147      0.1840
    176  C        -15.7880   64.4670   29.9750 C.2   147  ASP147      0.2622
    177  O        -16.7530   64.4360   29.2050 O.2   147  ASP147     -0.2715
    178  CB       -14.9450   66.6360   28.9600 C.3   147  ASP147      0.1450
    179  CG       -13.9230   67.7450   29.2400 C.2   147  ASP147      0.3671
    180  OD1      -13.6030   67.9970   30.4270 O.co2 147  ASP147     -0.2456
    181  OD2      -13.4350   68.3760   28.2770 O.co2 147  ASP147     -0.2456
    182  N        -15.7410   63.8320   31.1640 N.am  148  PHE148     -0.1974
    183  CA       -16.8770   63.0800   31.7320 C.3   148  PHE148      0.1639
    184  C        -17.8540   63.9360   32.5760 C.2   148  PHE148      0.2290
    185  O        -18.5530   63.4040   33.4490 O.2   148  PHE148     -0.2864
    186  CB       -16.4050   61.9160   32.6460 C.3   148  PHE148      0.0560
    187  CG       -15.3780   61.0150   32.0560 C.ar  148  PHE148     -0.0200
    188  CD1      -14.0510   61.1330   32.4410 C.ar  148  PHE148     -0.0042
    189  CD2      -15.7300   60.0160   31.1600 C.ar  148  PHE148     -0.0042
    190  CE1      -13.0780   60.2870   31.9360 C.ar  148  PHE148     -0.0003
    191  CE2      -14.7620   59.1740   30.6370 C.ar  148  PHE148     -0.0003
    192  CZ       -13.4340   59.3170   31.0270 C.ar  148  PHE148     -0.0000
@<TRIPOS>BOND
     1   143   142    2
     2   142   141    1
     3   140   141    1
     4   141   144    1
     5   148   149    1
     6   144   145    1
     7   146   145   ar
     8   145   147   ar
     9   152   149    1
    10   137   136    2
    11   149   150    1
    12   139   138    1
    13   136   135    1
    14   150   153   am
    15   150   151    2
    16   153   154    1
    17   138   135    1
    18   135   134    1
    19   160   158   am
    20   155   154    1
    21   155   156    2
    22   154   157    1
    23   134   132   am
    24   133   132    2
    25   157   158    1
    26   158   159    2
    27   132   131    1
    28   163   164    2
    29   163   162    1
    30   161   162    1
    31   162   165    1
    32   131   130    1
    33   165   166    1
    34   168   166    1
    35   169   170    1
    36   166   167    1
    37   129   128    1
    38   173   170    1
    39   181   179   ar
    40   170   171    1
    41   174   171   am
    42   174   175    1
    43   125   124    2
    44   126   127    1
    45   126   123    1
    46   178   179    1
    47   178   175    1
    48   124   123    1
    49   177   176    2
    50   171   172    2
    51   179   180   ar
    52     4     3    2
    53   175   176    1
    54   127   128    1
    55   123   122    1
    56   176   182   am
    57    85    83    1
    58    16    15    2
    59   121   120    1
    60     3     9    1
    61     3     2    1
    62    10     9    2
    63    10    11    1
    64   191   192   ar
    65   191   189   ar
    66    79    80    1
    67   192   190   ar
    68   122   112   am
    69   189   187   ar
    70   182   183    1
    71    13    11   am
    72    13    14    1
    73     2     5    1
    74     2     1    1
    75   120   119   ar
    76   120   118   ar
    77    15    14    1
    78    15    22   am
    79     5     6    1
    80    11    12    2
    81    83    80    1
    82    83    84    1
    83   119   117   ar
    84   183   184    1
    85   183   186    1
    86     8     6    1
    87    80    81    1
    88    17    14    1
    89    17    18    1
    90    20    19    2
    91   190   188   ar
    92   118   116   ar
    93    23    22    1
    94    23    24    1
    95   113   112    2
    96   187   188   ar
    97   187   186    1
    98   112   111    1
    99   109   107   ar
   100     6     7    1
   101    35    36   ar
   102    35    33   ar
   103   108   107   ar
   104   117   115   ar
   105   184   185    2
   106    18    19    1
   107    19    21   am
   108   107   106    1
   109   116   115   ar
   110    24    25    2
   111    36    34   ar
   112    61    60    1
   113   115   114    1
   114    33    31   ar
   115    81    82    2
   116   106   105    1
   117   111   114    1
   118   111   110    1
   119    46    45    1
   120    47    45    1
   121    45    42    1
   122   104   103    2
   123    60    59    1
   124    44    43    2
   125    34    32   ar
   126   110   103   am
   127    31    32   ar
   128    31    30    1
   129    26    27    1
   130   103   102    1
   131    40    39    2
   132   105   102    1
   133    70    68   ar
   134    42    41    1
   135    42    43    1
   136    52    49    1
   137    59    58    1
   138    30    27    1
   139   102   101    1
   140    99    98    1
   141    27    28    1
   142    68    67    1
   143    68    69   ar
   144    77    76    1
   145    77    78    1
   146    76    75    1
   147    39    38    1
   148    37    28   am
   149    37    38    1
   150    67    66    1
   151    58    57    1
   152   101    96   am
   153    98   100    1
   154    98    95    1
   155    65    64    2
   156    49    48    1
   157    49    50    1
   158    28    29    2
   159    57    54    1
   160    71    72    1
   161    96    97    2
   162    96    95    1
   163    72    75    1
   164    72    73    1
   165    63    64    1
   166    63    66    1
   167    63    62    1
   168    95    94    1
   169    54    53    1
   170    54    55    1
   171    50    51    2
   172    74    73    2
   173    55    56    2
   174    92    90    1
   175    93    91    1
   176    89    88    2
   177    90    91    1
   178    90    87    1
   179    88    87    1
   180    87    86    1
