@<TRIPOS>MOLECULE
tmp/5t0wA00.pdb
 123 117 0 0 0
SMALL
GASTEIGER

@<TRIPOS>ATOM
      1  N        -12.9510    3.0240  -10.8180 N.3    17  ASP17      -0.1239
      2  CA       -13.5080    3.5370  -12.0750 C.3    17  ASP17       0.1674
      3  C        -12.3450    3.4370  -13.0300 C.2    17  ASP17       0.2266
      4  O        -11.4640    4.3140  -13.1010 O.2    17  ASP17      -0.2867
      5  CB       -14.0110    4.9840  -11.9890 C.3    17  ASP17       0.1410
      6  CG       -14.1710    5.6270  -13.3630 C.2    17  ASP17       0.3668
      7  OD1      -13.1380    5.9490  -14.0010 O.co2  17  ASP17      -0.2456
      8  OD2      -15.3280    5.7900  -13.8190 O.co2  17  ASP17      -0.2456
      9  N        -11.1430    3.5780  -16.0900 N.3    19  ASP19      -0.1225
     10  CA       -10.5220    4.3470  -17.1830 C.3    19  ASP19       0.1805
     11  C         -9.9380    5.6000  -16.5930 C.2    19  ASP19       0.2597
     12  O        -10.5150    6.6760  -16.7130 O.2    19  ASP19      -0.2718
     13  CB       -11.4410    4.6680  -18.3760 C.3    19  ASP19       0.1424
     14  CG       -10.6400    4.9140  -19.6720 C.2    19  ASP19       0.3668
     15  OD1       -9.3970    5.1070  -19.5810 O.co2  19  ASP19      -0.2456
     16  OD2      -11.2480    4.8790  -20.7870 O.co2  19  ASP19      -0.2456
     17  N         -8.7880    5.4510  -15.9380 N.am   20  TYR20      -0.1976
     18  CA        -8.1850    6.5650  -15.2330 C.3    20  TYR20       0.1639
     19  C         -6.7020    6.3400  -15.0880 C.2    20  TYR20       0.2290
     20  O         -6.2070    6.0800  -14.0030 O.2    20  TYR20      -0.2864
     21  CB        -8.8730    6.7290  -13.8810 C.3    20  TYR20       0.0560
     22  CG        -8.5780    8.0270  -13.2060 C.ar   20  TYR20      -0.0198
     23  CD1       -8.9190    9.2410  -13.8000 C.ar   20  TYR20      -0.0009
     24  CD2       -7.9840    8.0510  -11.9630 C.ar   20  TYR20      -0.0009
     25  CE1       -8.6640   10.4400  -13.1740 C.ar   20  TYR20       0.0417
     26  CE2       -7.7350    9.2400  -11.3360 C.ar   20  TYR20       0.0417
     27  CZ        -8.0780   10.4160  -11.9570 C.ar   20  TYR20       0.1957
     28  OH        -7.8230   11.5690  -11.3650 O.3    20  TYR20      -0.2866
     29  N        -17.6090    6.7720  -11.6590 N.3    58  TRP58      -0.1241
     30  CA       -17.0680    7.6960  -10.6560 C.3    58  TRP58       0.1605
     31  C        -18.1470    8.4380   -9.8380 C.2    58  TRP58       0.2264
     32  O        -18.0730    8.5150   -8.6140 O.2    58  TRP58      -0.2867
     33  CB       -16.1600    8.7290  -11.3120 C.3    58  TRP58       0.0550
     34  CG       -15.6310    9.6480  -10.3180 C.ar   58  TRP58       0.0003
     35  CD1      -15.9770   10.9570  -10.1590 C.ar   58  TRP58       0.0946
     36  CD2      -14.7160    9.3420   -9.2630 C.ar   58  TRP58       0.0152
     37  NE1      -15.3320   11.4630   -9.0910 N.ar   58  TRP58      -0.2442
     38  CE2      -14.5460   10.5050   -8.5220 C.ar   58  TRP58       0.0810
     39  CE3      -14.0220    8.2080   -8.8850 C.ar   58  TRP58       0.0012
     40  CZ2      -13.7170   10.5800   -7.4360 C.ar   58  TRP58       0.0191
     41  CZ3      -13.1890    8.2830   -7.7730 C.ar   58  TRP58       0.0001
     42  CH2      -13.0400    9.4590   -7.0750 C.ar   58  TRP58       0.0015
     43  N         -9.0490    4.4920   -6.2600 N.3    75  SER75      -0.1202
     44  CA        -9.4560    5.0640   -7.5550 C.3    75  SER75       0.2020
     45  C         -9.0880    6.5240   -7.6950 C.2    75  SER75       0.2619
     46  O         -9.8620    7.3300   -8.1970 O.2    75  SER75      -0.2717
     47  CB       -10.9570    4.8630   -7.8160 C.3    75  SER75       0.2103
     48  OG       -11.2140    4.8490   -9.2060 O.3    75  SER75      -0.2182
     49  N         -7.8880    6.8430   -7.2430 N.am   76  GLY76      -0.1942
     50  CA        -7.3530    8.1900   -7.3410 C.3    76  GLY76       0.2014
     51  C         -8.1830    9.2220   -6.6240 C.2    76  GLY76       0.2639
     52  O         -8.3510   10.3170   -7.1180 O.2    76  GLY76      -0.2714
     53  N         -8.7310    8.8440   -5.4730 N.am   77  MET77      -0.1963
     54  CA        -9.6680    9.6890   -4.7880 C.3    77  MET77       0.1736
     55  C         -9.0340   10.7280   -3.8620 C.2    77  MET77       0.2617
     56  O         -8.3590   10.4140   -2.9020 O.2    77  MET77      -0.2715
     57  CB       -10.6240    8.8400   -4.0090 C.3    77  MET77       0.0427
     58  CG       -11.7460    9.6430   -3.4250 C.3    77  MET77       0.0599
     59  SD       -13.0720    8.6060   -2.9060 S.3    77  MET77      -0.1393
     60  CE       -14.1220    9.8330   -2.1650 C.3    77  MET77       0.0692
     61  N         -9.2530   11.9880   -4.1900 N.am   78  THR78      -0.1951
     62  CA        -8.8250   13.1010   -3.3700 C.3    78  THR78       0.1897
     63  C         -9.6250   13.1220   -2.0550 C.2    78  THR78       0.2313
     64  O        -10.8130   12.8940   -2.0450 O.2    78  THR78      -0.2863
     65  CB        -9.0600   14.4150   -4.1300 C.3    78  THR78       0.1794
     66  OG1       -8.3040   14.4090   -5.3410 O.3    78  THR78      -0.2208
     67  CG2       -8.6570   15.5920   -3.3020 C.3    78  THR78       0.0378
     68  N        -16.3390   15.0920    1.4080 N.3    83  ARG83      -0.1245
     69  CA       -16.3080   13.6230    1.3240 C.3    83  ARG83       0.1563
     70  C        -16.0140   12.9370    2.6590 C.2    83  ARG83       0.2260
     71  O        -16.5530   11.8630    2.9270 O.2    83  ARG83      -0.2867
     72  CB       -15.2700   13.1570    0.3260 C.3    83  ARG83       0.0307
     73  CG       -15.6360   13.4420   -1.1040 C.3    83  ARG83       0.0489
     74  CD       -14.4200   13.3280   -2.0290 C.3    83  ARG83       0.2205
     75  NE       -14.8220   13.4420   -3.4190 N.pl3  83  ARG83      -0.0865
     76  CZ       -13.9870   13.3540   -4.4300 C.cat  83  ARG83       0.5346
     77  NH1      -12.6980   13.1510   -4.2270 N.pl3  83  ARG83       0.1354
     78  NH2      -14.4500   13.4860   -5.6510 N.pl3  83  ARG83       0.1354
     79  N        -14.4100   15.5580  -15.7840 N.3   126  GLN126     -0.1245
     80  CA       -15.1290   14.3650  -15.3850 C.3   126  GLN126      0.1566
     81  C        -16.1760   14.6870  -14.3170 C.2   126  GLN126      0.2260
     82  O        -15.8810   15.3600  -13.3540 O.2   126  GLN126     -0.2867
     83  CB       -14.1840   13.3010  -14.8940 C.3   126  GLN126      0.0367
     84  CG       -14.9010   12.0350  -14.3920 C.3   126  GLN126      0.0905
     85  CD       -13.9560   10.8850  -14.1020 C.2   126  GLN126      0.2608
     86  OE1      -12.8310   11.0660  -13.5880 O.2   126  GLN126     -0.2717
     87  NE2      -14.3890    9.6910  -14.4350 N.am  126  GLN126     -0.0878
     88  N        -15.9140   15.1030   -9.9230 N.3   129  THR129     -0.1203
     89  CA       -14.5360   15.1330   -9.5400 C.3   129  THR129      0.1994
     90  C        -14.1490   16.4740   -8.9460 C.2   129  THR129      0.2619
     91  O        -14.8610   17.4480   -9.0730 O.2   129  THR129     -0.2717
     92  CB       -13.6100   14.8670  -10.7240 C.3   129  THR129      0.1784
     93  OG1      -13.8970   15.7940  -11.7670 O.3   129  THR129     -0.2211
     94  CG2      -13.7390   13.4510  -11.2530 C.3   129  THR129      0.0376
     95  N        -12.9680   16.5280   -8.3250 N.am  130  THR130     -0.1938
     96  CA       -12.4580   17.7810   -7.7680 C.3   130  THR130      0.2028
     97  C        -12.1450   18.7890   -8.8890 C.2   130  THR130      0.2642
     98  O        -12.1630   19.9960   -8.6510 O.2   130  THR130     -0.2714
     99  CB       -11.2040   17.5880   -6.8730 C.3   130  THR130      0.1808
    100  OG1      -10.1450   16.9840   -7.6240 O.3   130  THR130     -0.2208
    101  CG2      -11.5160   16.7110   -5.6970 C.3   130  THR130      0.0379
    102  N        -11.9000   18.3000  -10.0960 N.am  131  SER131     -0.1949
    103  CA       -11.6950   19.1760  -11.2110 C.3   131  SER131      0.1924
    104  C        -13.0080   19.8980  -11.5600 C.2   131  SER131      0.2314
    105  O        -12.9920   21.0730  -11.9240 O.2   131  SER131     -0.2863
    106  CB       -11.1330   18.3880  -12.4020 C.3   131  SER131      0.2116
    107  OG        -9.9470   17.6920  -12.0610 O.3   131  SER131     -0.2180
    108  N         -6.5550   15.8020  -12.8140 N.3   168  ASP168     -0.1239
    109  CA        -5.4320   15.6620  -11.8950 C.3   168  ASP168      0.1674
    110  C         -4.1220   15.7470  -12.6490 C.2   168  ASP168      0.2266
    111  O         -3.9950   15.1720  -13.7390 O.2   168  ASP168     -0.2867
    112  CB        -5.5120   14.3390  -11.1190 C.3   168  ASP168      0.1410
    113  CG        -6.6190   14.3280  -10.0460 C.2   168  ASP168      0.3668
    114  OD1       -7.2300   15.3670   -9.7780 O.co2 168  ASP168     -0.2456
    115  OD2       -6.8170   13.2810   -9.4080 O.co2 168  ASP168     -0.2456
    116  N         -4.4520   12.2290   -1.9010 N.3   192  LEU192     -0.1245
    117  CA        -5.3940   11.1730   -2.2640 C.3   192  LEU192      0.1561
    118  C         -5.4070   10.1760   -1.1270 C.2   192  LEU192      0.2260
    119  O         -4.3950   10.0020   -0.4220 O.2   192  LEU192     -0.2867
    120  CB        -4.9480   10.4810   -3.5360 C.3   192  LEU192      0.0270
    121  CG        -4.5370   11.3670   -4.7000 C.3   192  LEU192      0.0019
    122  CD1       -4.1790   10.5410   -5.9240 C.3   192  LEU192      0.0001
    123  CD2       -5.6570   12.3310   -5.0590 C.3   192  LEU192      0.0001
@<TRIPOS>BOND
     1    16    14   ar
     2    14    15   ar
     3    14    13    1
     4    13    10    1
     5    10    11    1
     6    10     9    1
     7    12    11    2
     8    11    17   am
     9    17    18    1
    10    79    80    1
    11    80    83    1
    12    80    81    1
    13    18    19    1
    14    18    21    1
    15    19    20    2
    16    83    84    1
    17    87    85   am
    18    84    85    1
    19    81    82    2
    20    85    86    2
    21     7     6   ar
    22    21    22    1
    23     8     6   ar
    24    23    22   ar
    25    23    25   ar
    26   111   110    2
    27     6     5    1
    28    22    24   ar
    29    25    27   ar
    30     4     3    2
    31     3     2    1
    32   108   109    1
    33   110   109    1
    34   106   107    1
    35   106   103    1
    36     2     5    1
    37     2     1    1
    38    24    26   ar
    39    27    28    1
    40    27    26   ar
    41   105   104    2
    42   109   112    1
    43    93    92    1
    44    29    30    1
    45   104   103    1
    46    33    30    1
    47    33    34    1
    48    94    92    1
    49   103   102    1
    50   112   113    1
    51    92    89    1
    52    30    31    1
    53    34    35   ar
    54    34    36   ar
    55    35    37   ar
    56   102    97   am
    57   113   114   ar
    58   113   115   ar
    59    88    89    1
    60    31    32    2
    61    89    90    1
    62    36    39   ar
    63    36    38   ar
    64    48    47    1
    65    37    38   ar
    66    91    90    2
    67    90    95   am
    68    97    98    2
    69    97    96    1
    70    39    41   ar
    71    38    40   ar
    72    95    96    1
    73    46    45    2
    74    47    44    1
    75    41    42   ar
    76    96    99    1
    77    45    44    1
    78    45    49   am
    79   100    99    1
    80    44    43    1
    81    40    42   ar
    82    50    49    1
    83    50    51    1
    84    52    51    2
    85    99   101    1
    86    51    53   am
    87   122   121    1
    88    78    76    1
    89    53    54    1
    90    66    65    1
    91   123   121    1
    92    54    57    1
    93    54    55    1
    94   121   120    1
    95    76    77    1
    96    76    75    2
    97    61    55   am
    98    61    62    1
    99    65    62    1
   100    65    67    1
   101    57    58    1
   102    55    56    2
   103   120   117    1
   104    58    59    1
   105    75    74    1
   106    62    63    1
   107    59    60    1
   108   117   116    1
   109   117   118    1
   110    63    64    2
   111    74    73    1
   112   118   119    2
   113    73    72    1
   114    72    69    1
   115    69    68    1
   116    69    70    1
   117    70    71    2
