@<TRIPOS>MOLECULE
tmp/5t14B00.pdb
 91 87 0 0 0
SMALL
GASTEIGER

@<TRIPOS>ATOM
      1  N         -9.7510  -55.0500   25.6660 N.3   341  ALA341     -0.1231
      2  CA        -8.5430  -55.2420   26.4880 C.3   341  ALA341      0.1694
      3  C         -7.5890  -54.0500   26.4880 C.2   341  ALA341      0.2591
      4  O         -6.9790  -53.7320   27.5160 O.2   341  ALA341     -0.2718
      5  CB        -7.7970  -56.4870   26.0440 C.3   341  ALA341      0.0304
      6  N         -7.4600  -53.3850   25.3460 N.am  342  GLU342     -0.1979
      7  CA        -6.5730  -52.2400   25.2680 C.3   342  GLU342      0.1602
      8  C         -7.0580  -51.0830   26.1350 C.2   342  GLU342      0.2287
      9  O         -6.2410  -50.4160   26.7620 O.2   342  GLU342     -0.2864
     10  CB        -6.3860  -51.7830   23.8370 C.3   342  GLU342      0.0415
     11  CG        -5.2390  -50.7920   23.7220 C.3   342  GLU342      0.1163
     12  CD        -4.9860  -50.3460   22.3050 C.2   342  GLU342      0.3649
     13  OE1       -5.0300  -51.2150   21.4060 O.co2 342  GLU342     -0.2457
     14  OE2       -4.7380  -49.1330   22.1030 O.co2 342  GLU342     -0.2457
     15  N         -6.1920  -51.7950   29.8080 N.3   345  TYR345     -0.1241
     16  CA        -4.8010  -51.4370   30.1190 C.3   345  TYR345      0.1605
     17  C         -4.6360  -49.9330   30.2870 C.2   345  TYR345      0.2264
     18  O         -3.9790  -49.4880   31.2240 O.2   345  TYR345     -0.2867
     19  CB        -3.8320  -51.9290   29.0400 C.3   345  TYR345      0.0534
     20  CG        -3.6010  -53.4260   29.0280 C.ar  345  TYR345     -0.0201
     21  CD1       -3.1120  -54.0940   30.1560 C.ar  345  TYR345     -0.0009
     22  CD2       -3.8400  -54.1710   27.8830 C.ar  345  TYR345     -0.0009
     23  CE1       -2.8940  -55.4670   30.1460 C.ar  345  TYR345      0.0417
     24  CE2       -3.6250  -55.5390   27.8600 C.ar  345  TYR345      0.0417
     25  CZ        -3.1500  -56.1880   28.9880 C.ar  345  TYR345      0.1957
     26  OH        -2.9410  -57.5500   28.9380 O.3   345  TYR345     -0.2866
     27  N          2.4930  -49.1810   37.2520 N.3   398  PHE398     -0.1241
     28  CA         1.8190  -49.7130   36.0600 C.3   398  PHE398      0.1605
     29  C          2.4880  -51.0090   35.5900 C.2   398  PHE398      0.2264
     30  O          1.8050  -52.0050   35.3940 O.2   398  PHE398     -0.2867
     31  CB         1.6980  -48.6760   34.9280 C.3   398  PHE398      0.0534
     32  CG         1.0190  -49.2070   33.6850 C.ar  398  PHE398     -0.0203
     33  CD1       -0.1890  -49.9080   33.7650 C.ar  398  PHE398     -0.0042
     34  CD2        1.5870  -49.0110   32.4220 C.ar  398  PHE398     -0.0042
     35  CE1       -0.8080  -50.4060   32.6190 C.ar  398  PHE398     -0.0003
     36  CE2        0.9680  -49.5040   31.2750 C.ar  398  PHE398     -0.0003
     37  CZ        -0.2290  -50.2050   31.3740 C.ar  398  PHE398     -0.0000
     38  N          0.0290  -53.8970   35.3200 N.3   402  LYS402     -0.1231
     39  CA        -0.0960  -54.3520   33.9280 C.3   402  LYS402      0.1693
     40  C         -0.1180  -55.8810   33.8430 C.2   402  LYS402      0.2591
     41  O         -1.0220  -56.4650   33.2350 O.2   402  LYS402     -0.2718
     42  CB         1.0810  -53.7920   33.1150 C.3   402  LYS402      0.0285
     43  CG         1.1160  -54.0970   31.6210 C.3   402  LYS402      0.0035
     44  CD         2.5330  -53.9230   31.0470 C.3   402  LYS402      0.0206
     45  CE         2.8140  -52.5250   30.4870 C.3   402  LYS402      0.1093
     46  NZ         4.0540  -51.9140   31.0450 N.3   402  LYS402     -0.1314
     47  N          0.8710  -56.5150   34.4730 N.am  403  GLU403     -0.1979
     48  CA         1.0210  -57.9710   34.4090 C.3   403  GLU403      0.1602
     49  C         -0.0640  -58.6990   35.1640 C.2   403  GLU403      0.2287
     50  O         -0.4690  -59.7860   34.7460 O.2   403  GLU403     -0.2864
     51  CB         2.3990  -58.4180   34.9190 C.3   403  GLU403      0.0415
     52  CG         3.5750  -57.8990   34.0940 C.3   403  GLU403      0.1163
     53  CD         3.4330  -58.1510   32.5910 C.2   403  GLU403      0.3649
     54  OE1        3.0920  -59.2990   32.1920 O.co2 403  GLU403     -0.2457
     55  OE2        3.6580  -57.1880   31.8100 O.co2 403  GLU403     -0.2457
     56  N         -3.0490  -58.4350   32.8660 N.3   406  LYS406     -0.1245
     57  CA        -2.7970  -59.4050   31.7900 C.3   406  LYS406      0.1561
     58  C         -3.1600  -60.8430   32.1680 C.2   406  LYS406      0.2260
     59  O         -3.7450  -61.5600   31.3610 O.2   406  LYS406     -0.2867
     60  CB        -1.3320  -59.3710   31.3630 C.3   406  LYS406      0.0271
     61  CG        -1.0040  -60.3280   30.2310 C.3   406  LYS406      0.0035
     62  CD         0.4330  -60.1660   29.7840 C.3   406  LYS406      0.0206
     63  CE         0.8120  -61.2280   28.7610 C.3   406  LYS406      0.1093
     64  NZ         2.2720  -61.5270   28.8030 N.3   406  LYS406     -0.1314
     65  N         -7.0460  -61.2840   32.0660 N.3   409  ILE409     -0.1231
     66  CA        -7.5900  -61.3260   30.7040 C.3   409  ILE409      0.1692
     67  C         -7.2490  -62.6760   30.0600 C.2   409  ILE409      0.2592
     68  O         -8.1230  -63.3330   29.4860 O.2   409  ILE409     -0.2718
     69  CB        -7.0580  -60.1830   29.8040 C.3   409  ILE409      0.0266
     70  CG1       -7.3530  -58.8020   30.4040 C.3   409  ILE409      0.0019
     71  CG2       -7.7030  -60.2470   28.4230 C.3   409  ILE409      0.0020
     72  CD1       -6.4640  -57.7040   29.8560 C.3   409  ILE409      0.0001
     73  N         -5.9740  -63.0640   30.1610 N.am  410  ASP410     -0.1974
     74  CA        -5.4770  -64.3750   29.6920 C.3   410  ASP410      0.1709
     75  C         -6.2260  -65.5840   30.2960 C.2   410  ASP410      0.2293
     76  O         -6.3740  -66.6090   29.6320 O.2   410  ASP410     -0.2864
     77  CB        -3.9640  -64.5200   29.9780 C.3   410  ASP410      0.1436
     78  CG        -3.0810  -63.6490   29.0620 C.2   410  ASP410      0.3671
     79  OD1       -3.5670  -62.6620   28.4700 O.co2 410  ASP410     -0.2456
     80  OD2       -1.8740  -63.9470   28.9520 O.co2 410  ASP410     -0.2456
     81  N         -9.5190  -65.9470   28.4810 N.3   413  PHE413     -0.1241
     82  CA        -9.3210  -66.0730   27.0340 C.3   413  PHE413      0.1605
     83  C         -9.9220  -67.3780   26.5150 C.2   413  PHE413      0.2264
     84  O         -9.6450  -68.4310   27.0900 O.2   413  PHE413     -0.2867
     85  CB        -7.8370  -66.0190   26.6710 C.3   413  PHE413      0.0534
     86  CG        -7.5920  -65.7980   25.2100 C.ar  413  PHE413     -0.0203
     87  CD1       -7.5510  -66.8710   24.3250 C.ar  413  PHE413     -0.0042
     88  CD2       -7.4470  -64.5090   24.7070 C.ar  413  PHE413     -0.0042
     89  CE1       -7.3500  -66.6630   22.9700 C.ar  413  PHE413     -0.0003
     90  CE2       -7.2410  -64.2940   23.3520 C.ar  413  PHE413     -0.0003
     91  CZ        -7.1930  -65.3720   22.4820 C.ar  413  PHE413     -0.0000
@<TRIPOS>BOND
     1    13    12   ar
     2    14    12   ar
     3    12    11    1
     4    91    89   ar
     5    91    90   ar
     6    89    87   ar
     7    90    88   ar
     8    11    10    1
     9    10     7    1
    10    87    86   ar
    11    88    86   ar
    12    86    85    1
    13     7     6    1
    14     7     8    1
    15     6     3   am
    16     1     2    1
    17     5     2    1
    18     8     9    2
    19     2     3    1
    20     3     4    2
    21    83    82    1
    22    83    84    2
    23    85    82    1
    24    82    81    1
    25    24    22   ar
    26    24    25   ar
    27    22    20   ar
    28    71    69    1
    29    79    78   ar
    30    63    64    1
    31    63    62    1
    32    26    25    1
    33    80    78   ar
    34    25    23   ar
    35    20    19    1
    36    20    21   ar
    37    19    16    1
    38    78    77    1
    39    68    67    2
    40    76    75    2
    41    74    77    1
    42    74    73    1
    43    74    75    1
    44    62    61    1
    45    69    70    1
    46    69    66    1
    47    15    16    1
    48    72    70    1
    49    67    73   am
    50    67    66    1
    51    16    17    1
    52    23    21   ar
    53    61    60    1
    54    17    18    2
    55    45    46    1
    56    45    44    1
    57    66    65    1
    58    44    43    1
    59    36    37   ar
    60    36    34   ar
    61    59    58    2
    62    60    57    1
    63    37    35   ar
    64    43    42    1
    65    57    58    1
    66    57    56    1
    67    55    53   ar
    68    54    53   ar
    69    34    32   ar
    70    53    52    1
    71    35    33   ar
    72    42    39    1
    73    41    40    2
    74    32    33   ar
    75    32    31    1
    76    40    39    1
    77    40    47   am
    78    39    38    1
    79    52    51    1
    80    48    47    1
    81    48    51    1
    82    48    49    1
    83    50    49    2
    84    31    28    1
    85    30    29    2
    86    29    28    1
    87    28    27    1
