@<TRIPOS>MOLECULE
tmp/5t18A00.pdb
 174 164 0 0 0
SMALL
GASTEIGER

@<TRIPOS>ATOM
      1  N          4.2070  -23.8770    1.4140 N.3    13  LYS13      -0.1245
      2  CA         5.3010  -23.6400    0.4710 C.3    13  LYS13       0.1561
      3  C          6.0650  -22.3910    0.8770 C.2    13  LYS13       0.2260
      4  O          5.4830  -21.4550    1.4010 O.2    13  LYS13      -0.2867
      5  CB         4.7690  -23.4480   -0.9540 C.3    13  LYS13       0.0271
      6  CG         5.8630  -23.5600   -1.9980 C.3    13  LYS13       0.0035
      7  CD         5.2650  -23.5250   -3.3970 C.3    13  LYS13       0.0206
      8  CE         6.3720  -23.6810   -4.4250 C.3    13  LYS13       0.1093
      9  NZ         7.3230  -22.5940   -4.3190 N.3    13  LYS13      -0.1314
     10  N          7.7180  -19.0500   -0.2310 N.3    15  LEU15      -0.1231
     11  CA         7.6210  -18.1300   -1.3520 C.3    15  LEU15       0.1693
     12  C          8.8860  -17.3080   -1.5670 C.2    15  LEU15       0.2593
     13  O          9.0070  -16.6610   -2.5950 O.2    15  LEU15      -0.2718
     14  CB         6.4300  -17.1640   -1.1630 C.3    15  LEU15       0.0284
     15  CG         5.0630  -17.8140   -1.0350 C.3    15  LEU15       0.0019
     16  CD1        4.0120  -16.7970   -0.7030 C.3    15  LEU15       0.0001
     17  CD2        4.6770  -18.5580   -2.2840 C.3    15  LEU15       0.0001
     18  N          9.8200  -17.3600   -0.6380 N.am   16  GLY16      -0.1942
     19  CA        11.0420  -16.5790   -0.7690 C.3    16  GLY16       0.2014
     20  C         11.2500  -15.7180    0.4490 C.2    16  GLY16       0.2640
     21  O         10.6670  -15.9510    1.4940 O.2    16  GLY16      -0.2714
     22  N         12.1190  -14.7120    0.3240 N.am   17  THR17      -0.1936
     23  CA        12.5210  -13.8110    1.3610 C.3    17  THR17       0.2028
     24  C         12.3420  -12.3700    0.8960 C.2    17  THR17       0.2643
     25  O         12.8270  -11.9920   -0.1750 O.2    17  THR17      -0.2714
     26  CB        13.9820  -14.1180    1.7800 C.3    17  THR17       0.1808
     27  OG1       14.0260  -15.4600    2.2650 O.3    17  THR17      -0.2208
     28  CG2       14.4420  -13.2130    2.9000 C.3    17  THR17       0.0379
     29  N         11.5610  -11.6200    1.6480 N.am   18  GLY18      -0.1939
     30  CA        11.3620  -10.1970    1.3990 C.3    18  GLY18       0.2014
     31  C         12.2000   -9.3770    2.3540 C.2    18  GLY18       0.2638
     32  O         13.0600   -9.9070    3.0740 O.2    18  GLY18      -0.2714
     33  N         11.9270   -8.0770    2.4090 N.am   19  GLN19      -0.1977
     34  CA        12.5970   -7.1120    3.2960 C.3    19  GLN19       0.1601
     35  C         12.5850   -7.5270    4.7680 C.2    19  GLN19       0.2287
     36  O         13.5240   -7.2070    5.5130 O.2    19  GLN19      -0.2864
     37  CB        11.8470   -5.7830    3.1730 C.3    19  GLN19       0.0394
     38  CG        12.3290   -4.6480    4.0260 C.3    19  GLN19       0.0908
     39  CD        11.6200   -3.3730    3.6460 C.2    19  GLN19       0.2608
     40  OE1       10.5290   -3.3700    3.0550 O.2    19  GLN19      -0.2717
     41  NE2       12.2080   -2.2690    4.0080 N.am   19  GLN19      -0.0878
     42  N          8.7070  -15.5110    3.6760 N.3    23  VAL23      -0.1245
     43  CA         7.2870  -15.4390    3.3530 C.3    23  VAL23       0.1561
     44  C          6.8840  -16.8430    2.9700 C.2    23  VAL23       0.2260
     45  O          7.5130  -17.4580    2.1160 O.2    23  VAL23      -0.2867
     46  CB         6.9980  -14.4450    2.2140 C.3    23  VAL23       0.0252
     47  CG1        5.4830  -14.2980    2.0120 C.3    23  VAL23       0.0019
     48  CG2        7.6290  -13.0820    2.4830 C.3    23  VAL23       0.0019
     49  N         -0.7560  -15.6210    2.5390 N.3    35  ALA35      -0.1245
     50  CA         0.6800  -15.3770    2.6160 C.3    35  ALA35       0.1562
     51  C          0.9810  -15.0620    4.0880 C.2    35  ALA35       0.2260
     52  O          0.2060  -14.3550    4.7550 O.2    35  ALA35      -0.2867
     53  CB         1.1060  -14.2400    1.7080 C.3    35  ALA35       0.0290
     54  N          3.8910  -13.6300    6.4040 N.3    37  LYS37      -0.1245
     55  CA         5.1600  -12.9030    6.4470 C.3    37  LYS37       0.1561
     56  C          5.7070  -13.0680    7.8350 C.2    37  LYS37       0.2260
     57  O          5.0710  -12.6210    8.8060 O.2    37  LYS37      -0.2867
     58  CB         4.9760  -11.4330    6.1000 C.3    37  LYS37       0.0271
     59  CG         4.4510  -11.2240    4.7120 C.3    37  LYS37       0.0035
     60  CD         4.6300   -9.7830    4.2320 C.3    37  LYS37       0.0206
     61  CE         4.2370   -9.6900    2.7750 C.3    37  LYS37       0.1093
     62  NZ         4.5730   -8.3720    2.1830 N.3    37  LYS37      -0.1314
     63  N         -4.6210   -5.6700   -1.1790 N.3    65  VAL65      -0.1245
     64  CA        -4.3290   -7.0050   -0.6130 C.3    65  VAL65       0.1561
     65  C         -4.8020   -6.9700    0.8450 C.2    65  VAL65       0.2260
     66  O         -4.3230   -6.1680    1.6140 O.2    65  VAL65      -0.2867
     67  CB        -2.8180   -7.3090   -0.7280 C.3    65  VAL65       0.0252
     68  CG1       -2.4530   -8.6200   -0.0290 C.3    65  VAL65       0.0019
     69  CG2       -2.3940   -7.3660   -2.1880 C.3    65  VAL65       0.0019
     70  N         -1.8110  -12.3340    5.2220 N.3    81  THR81      -0.1203
     71  CA        -2.4920  -11.5930    4.1640 C.3    81  THR81       0.1994
     72  C         -3.0800  -12.4660    3.1020 C.2    81  THR81       0.2618
     73  O         -2.8070  -13.6620    3.0140 O.2    81  THR81      -0.2717
     74  CB        -1.5500  -10.5780    3.4800 C.3    81  THR81       0.1784
     75  OG1       -0.7000  -11.2720    2.5800 O.3    81  THR81      -0.2211
     76  CG2       -0.6980   -9.7760    4.4570 C.3    81  THR81       0.0376
     77  N         -3.9210  -11.8590    2.2700 N.am   82  GLU82      -0.1965
     78  CA        -4.4710  -12.4810    1.0970 C.3    82  GLU82       0.1733
     79  C         -3.3550  -13.0180    0.2030 C.2    82  GLU82       0.2616
     80  O         -2.3290  -12.3640    0.0210 O.2    82  GLU82      -0.2715
     81  CB        -5.3050  -11.4160    0.3700 C.3    82  GLU82       0.0429
     82  CG        -5.9100  -11.7720   -0.9580 C.3    82  GLU82       0.1163
     83  CD        -6.6780  -10.6220   -1.6010 C.2    82  GLU82       0.3649
     84  OE1       -7.2300  -10.8650   -2.6950 O.co2  82  GLU82      -0.2457
     85  OE2       -6.7690   -9.5180   -1.0160 O.co2  82  GLU82      -0.2457
     86  N         -3.5590  -14.2020   -0.3500 N.am   83  TYR83      -0.1960
     87  CA        -2.5860  -14.8390   -1.2220 C.3    83  TYR83       0.1771
     88  C         -2.8000  -14.4000   -2.6690 C.2    83  TYR83       0.2619
     89  O         -3.9190  -14.4080   -3.1700 O.2    83  TYR83      -0.2715
     90  CB        -2.6940  -16.3640   -1.1190 C.3    83  TYR83       0.0574
     91  CG        -1.6800  -17.0780   -1.9730 C.ar   83  TYR83      -0.0198
     92  CD1       -0.3140  -16.8730   -1.7840 C.ar   83  TYR83      -0.0009
     93  CD2       -2.0770  -17.8920   -3.0260 C.ar   83  TYR83      -0.0009
     94  CE1        0.6260  -17.4860   -2.6070 C.ar   83  TYR83       0.0417
     95  CE2       -1.1430  -18.5360   -3.8300 C.ar   83  TYR83       0.0417
     96  CZ         0.2120  -18.3200   -3.6200 C.ar   83  TYR83       0.1957
     97  OH         1.1790  -18.9240   -4.4060 O.3    83  TYR83      -0.2866
     98  N         -1.7150  -13.9870   -3.3150 N.am   84  MET84      -0.1963
     99  CA        -1.6800  -13.4900   -4.6730 C.3    84  MET84       0.1736
    100  C         -0.7470  -14.3870   -5.4650 C.2    84  MET84       0.2616
    101  O          0.4770  -14.2670   -5.3990 O.2    84  MET84      -0.2715
    102  CB        -1.1480  -12.0560   -4.6180 C.3    84  MET84       0.0427
    103  CG        -2.0040  -11.1230   -3.7610 C.3    84  MET84       0.0599
    104  SD        -3.6560  -10.8280   -4.4570 S.3    84  MET84      -0.1393
    105  CE        -3.1920   -9.7590   -5.7930 C.3    84  MET84       0.0692
    106  N         -1.3230  -15.3130   -6.2140 N.am   85  ALA85      -0.1963
    107  CA        -0.5570  -16.3890   -6.8010 C.3    85  ALA85       0.1728
    108  C          0.4430  -16.0420   -7.8490 C.2    85  ALA85       0.2616
    109  O          1.3560  -16.8440   -8.0920 O.2    85  ALA85      -0.2715
    110  CB        -1.5050  -17.4250   -7.3620 C.3    85  ALA85       0.0334
    111  N          0.3300  -14.8770   -8.4970 N.am   86  ASN86      -0.1958
    112  CA         1.2690  -14.4780   -9.5190 C.3    86  ASN86       0.1819
    113  C          2.3560  -13.5600   -8.9910 C.2    86  ASN86       0.2622
    114  O          3.1550  -13.1100   -9.8030 O.2    86  ASN86      -0.2715
    115  CB         0.5450  -13.8790  -10.7560 C.3    86  ASN86       0.1195
    116  CG         0.0930  -14.9410  -11.7210 C.2    86  ASN86       0.2630
    117  OD1        0.8980  -15.7780  -12.1270 O.2    86  ASN86      -0.2716
    118  ND2       -1.1540  -14.8750  -12.1740 N.am   86  ASN86      -0.0877
    119  N          2.4380  -13.3230   -7.6690 N.am   87  GLY87      -0.1940
    120  CA         3.5580  -12.5960   -7.1170 C.3    87  GLY87       0.2014
    121  C          3.5690  -11.1360   -7.4650 C.2    87  GLY87       0.2639
    122  O          2.5190  -10.5470   -7.6970 O.2    87  GLY87      -0.2714
    123  N          4.7350  -10.5350   -7.4200 N.am   88  CYS88      -0.1967
    124  CA         4.7710   -9.1030   -7.6110 C.3    88  CYS88       0.1712
    125  C          4.7010   -8.6760   -9.0420 C.2    88  CYS88       0.2296
    126  O          5.0920   -9.3670   -9.9630 O.2    88  CYS88      -0.2864
    127  CB         5.9240   -8.4450   -6.8830 C.3    88  CYS88       0.0983
    128  SG         7.5090   -8.5230   -7.7490 S.3    88  CYS88      -0.0798
    129  N          6.2810   -6.3650  -10.6200 N.3    90  LEU90      -0.1231
    130  CA         7.5390   -6.1580  -11.3290 C.3    90  LEU90       0.1693
    131  C          7.9750   -7.4080  -12.0580 C.2    90  LEU90       0.2592
    132  O          8.3460   -7.3320  -13.2450 O.2    90  LEU90      -0.2718
    133  CB         8.6300   -5.6660  -10.3540 C.3    90  LEU90       0.0284
    134  CG         9.9270   -5.2200  -10.9790 C.3    90  LEU90       0.0019
    135  CD1        9.6980   -4.0570  -11.9250 C.3    90  LEU90       0.0001
    136  CD2       10.9160   -4.8750   -9.8900 C.3    90  LEU90       0.0001
    137  N          7.9100   -8.5730  -11.4000 N.am   91  ASN91      -0.1974
    138  CA         8.3370   -9.8080  -12.0550 C.3    91  ASN91       0.1688
    139  C          7.3280  -10.2750  -13.0710 C.2    91  ASN91       0.2292
    140  O          7.7280  -10.8260  -14.0800 O.2    91  ASN91      -0.2864
    141  CB         8.6580  -10.8970  -11.0440 C.3    91  ASN91       0.1181
    142  CG        10.0410  -10.7740  -10.4550 C.2    91  ASN91       0.2629
    143  OD1       10.8010   -9.8910  -10.7930 O.2    91  ASN91      -0.2716
    144  ND2       10.3990  -11.6810   -9.5620 N.am   91  ASN91      -0.0877
    145  N          8.0540   -8.3100  -16.1870 N.3    94  ARG94      -0.1245
    146  CA         9.3400   -8.7130  -16.7640 C.3    94  ARG94       0.1563
    147  C          9.2910  -10.0590  -17.4140 C.2    94  ARG94       0.2260
    148  O         10.1810  -10.3290  -18.2230 O.2    94  ARG94      -0.2867
    149  CB        10.4390   -8.6810  -15.6920 C.3    94  ARG94       0.0307
    150  CG        10.8970   -7.2810  -15.3440 C.3    94  ARG94       0.0489
    151  CD        11.7750   -7.2380  -14.1030 C.3    94  ARG94       0.2205
    152  NE        12.2370   -5.8750  -13.8470 N.pl3  94  ARG94      -0.0865
    153  CZ        13.1170   -5.5140  -12.9190 C.cat  94  ARG94       0.5346
    154  NH1       13.6470   -6.4220  -12.1030 N.pl3  94  ARG94       0.1354
    155  NH2       13.4820   -4.2400  -12.8020 N.pl3  94  ARG94       0.1354
    156  N          7.2140   -3.2900   -7.3930 N.3   128  ARG128     -0.1245
    157  CA         7.6840   -4.3800   -6.5460 C.3   128  ARG128      0.1563
    158  C          6.7320   -4.7520   -5.4120 C.2   128  ARG128      0.2260
    159  O          6.8440   -5.8630   -4.8990 O.2   128  ARG128     -0.2867
    160  CB         9.0760   -4.0580   -5.9950 C.3   128  ARG128      0.0307
    161  CG         9.1230   -2.8550   -5.0640 C.3   128  ARG128      0.0489
    162  CD        10.5190   -2.5230   -4.5500 C.3   128  ARG128      0.2205
    163  NE        10.4840   -1.2190   -3.8820 N.pl3 128  ARG128     -0.0865
    164  CZ        10.5050   -0.0330   -4.4680 C.cat 128  ARG128      0.5346
    165  NH1       10.6510    0.0680   -5.7850 N.pl3 128  ARG128      0.1354
    166  NH2       10.3980    1.0650   -3.7470 N.pl3 128  ARG128      0.1354
    167  N          0.8810   -6.5970   -6.1970 N.3   131  LEU131     -0.1245
    168  CA         0.8260   -8.0640   -6.3970 C.3   131  LEU131      0.1561
    169  C         -0.2270   -8.4250   -7.4070 C.2   131  LEU131      0.2260
    170  O         -1.1290   -7.6330   -7.6560 O.2   131  LEU131     -0.2867
    171  CB         0.6130   -8.7720   -5.0530 C.3   131  LEU131      0.0270
    172  CG         1.6310   -8.5180   -3.9380 C.3   131  LEU131      0.0019
    173  CD1        1.2340   -9.2340   -2.6770 C.3   131  LEU131      0.0001
    174  CD2        3.0230   -8.9760   -4.3270 C.3   131  LEU131      0.0001
@<TRIPOS>BOND
     1   148   147    2
     2   147   146    1
     3   146   145    1
     4   146   149    1
     5   149   150    1
     6   150   151    1
     7   151   152    1
     8   140   139    2
     9   152   153    2
    10   132   131    2
    11   139   138    1
    12   153   155    1
    13   153   154    1
    14   118   116   am
    15   117   116    2
    16   131   137   am
    17   131   130    1
    18   138   137    1
    19   138   141    1
    20   135   134    1
    21   116   115    1
    22   130   129    1
    23   130   133    1
    24   141   142    1
    25   134   133    1
    26   134   136    1
    27   143   142    2
    28   115   112    1
    29   142   144   am
    30   126   125    2
    31   114   113    2
    32   112   113    1
    33   112   111    1
    34   125   124    1
    35   113   119   am
    36   111   108   am
    37   109   108    2
    38   108   107    1
    39   128   127    1
    40   122   121    2
    41   119   120    1
    42   170   169    2
    43   124   123    1
    44   124   127    1
    45   121   123   am
    46   121   120    1
    47   169   168    1
    48   156   157    1
    49   110   107    1
    50   107   106    1
    51   157   160    1
    52   157   158    1
    53   168   167    1
    54   168   171    1
    55   106   100   am
    56   160   161    1
    57   105   104    1
    58   165   164    1
    59   100   101    2
    60   100    99    1
    61   158   159    2
    62   161   162    1
    63   171   172    1
    64    99   102    1
    65    99    98    1
    66   102   103    1
    67   162   163    1
    68   164   163    2
    69   164   166    1
    70   104   103    1
    71     8     9    1
    72     8     7    1
    73    97    96    1
    74   174   172    1
    75   172   173    1
    76    95    96   ar
    77    95    93   ar
    78    96    94   ar
    79     7     6    1
    80    98    88   am
    81    89    88    2
    82    93    91   ar
    83    84    83   ar
    84    88    87    1
    85    94    92   ar
    86    13    12    2
    87    17    15    1
    88    69    67    1
    89     6     5    1
    90    91    92   ar
    91    91    90    1
    92    83    85   ar
    93    83    82    1
    94    12    11    1
    95    12    18   am
    96    11    14    1
    97    11    10    1
    98    87    90    1
    99    87    86    1
   100    63    64    1
   101    14    15    1
   102    15    16    1
   103    82    81    1
   104     5     2    1
   105    19    18    1
   106    19    20    1
   107    67    64    1
   108    67    68    1
   109    64    65    1
   110    86    79   am
   111    25    24    2
   112    80    79    2
   113    79    78    1
   114    22    20   am
   115    22    23    1
   116    81    78    1
   117    20    21    2
   118     2     3    1
   119     2     1    1
   120    65    66    2
   121     3     4    2
   122    24    23    1
   123    24    29   am
   124    78    77    1
   125    23    26    1
   126    30    29    1
   127    30    31    1
   128    53    50    1
   129    26    27    1
   130    26    28    1
   131    47    46    1
   132    45    44    2
   133    62    61    1
   134    46    48    1
   135    46    43    1
   136    77    72   am
   137    31    33   am
   138    31    32    2
   139    33    34    1
   140    49    50    1
   141    75    74    1
   142    50    51    1
   143    61    60    1
   144    44    43    1
   145    73    72    2
   146    40    39    2
   147    72    71    1
   148    37    34    1
   149    37    38    1
   150    34    35    1
   151    43    42    1
   152    74    71    1
   153    74    76    1
   154    39    41   am
   155    39    38    1
   156    51    52    2
   157    71    70    1
   158    60    59    1
   159    59    58    1
   160    35    36    2
   161    58    55    1
   162    54    55    1
   163    55    56    1
   164    56    57    2
