@<TRIPOS>MOLECULE
tmp/5t19A00.pdb
 145 136 0 0 0
SMALL
GASTEIGER

@<TRIPOS>ATOM
      1  N        -14.1340   70.4410    6.9500 N.3    26  ARG26      -0.1245
      2  CA       -13.0630   71.0780    6.1840 C.3    26  ARG26       0.1563
      3  C        -13.2920   72.5760    6.0300 C.2    26  ARG26       0.2260
      4  O        -12.3540   73.3610    6.1240 O.2    26  ARG26      -0.2867
      5  CB       -12.9240   70.4390    4.7950 C.3    26  ARG26       0.0307
      6  CG       -12.4130   69.0050    4.8320 C.3    26  ARG26       0.0489
      7  CD       -12.0590   68.4850    3.4520 C.3    26  ARG26       0.2205
      8  NE       -10.8890   69.1700    2.9250 N.pl3  26  ARG26      -0.0865
      9  CZ       -10.8870   69.9070    1.8220 C.cat  26  ARG26       0.5346
     10  NH1      -11.9940   70.0440    1.1010 N.pl3  26  ARG26       0.1354
     11  NH2       -9.7680   70.4980    1.4360 N.pl3  26  ARG26       0.1354
     12  N          5.6800   67.2800    1.7630 N.3    48  TYR48      -0.1241
     13  CA         4.6150   67.7500    0.8750 C.3    48  TYR48       0.1605
     14  C          4.5220   69.2710    0.9240 C.2    48  TYR48       0.2264
     15  O          4.4700   69.8630    2.0010 O.2    48  TYR48      -0.2867
     16  CB         3.2540   67.1290    1.2570 C.3    48  TYR48       0.0534
     17  CG         3.2570   65.6170    1.1810 C.ar   48  TYR48      -0.0201
     18  CD1        3.2050   64.9680   -0.0500 C.ar   48  TYR48      -0.0009
     19  CD2        3.3620   64.8460    2.3320 C.ar   48  TYR48      -0.0009
     20  CE1        3.2320   63.5940   -0.1340 C.ar   48  TYR48       0.0417
     21  CE2        3.3920   63.4670    2.2630 C.ar   48  TYR48       0.0417
     22  CZ         3.3280   62.8460    1.0260 C.ar   48  TYR48       0.1957
     23  OH         3.3610   61.4730    0.9470 O.3    48  TYR48      -0.2866
     24  N          2.1380   71.1850    0.4180 N.3    50  ASP50      -0.1225
     25  CA         0.8950   71.7270    0.9480 C.3    50  ASP50       0.1805
     26  C          0.5290   71.1860    2.3270 C.2    50  ASP50       0.2597
     27  O         -0.5800   71.4000    2.8010 O.2    50  ASP50      -0.2718
     28  CB        -0.2490   71.4520   -0.0330 C.3    50  ASP50       0.1424
     29  CG        -0.0610   72.1720   -1.3660 C.2    50  ASP50       0.3668
     30  OD1        0.6870   73.1730   -1.4080 O.co2  50  ASP50      -0.2456
     31  OD2       -0.6630   71.7420   -2.3710 O.co2  50  ASP50      -0.2456
     32  N          1.4440   70.4720    2.9690 N.am   51  VAL51      -0.1980
     33  CA         1.2020   70.0340    4.3400 C.3    51  VAL51       0.1595
     34  C          2.2710   70.6330    5.2540 C.2    51  VAL51       0.2287
     35  O          3.4290   70.1870    5.2550 O.2    51  VAL51      -0.2864
     36  CB         1.1910   68.4880    4.4650 C.3    51  VAL51       0.0276
     37  CG1        0.9820   68.0820    5.9100 C.3    51  VAL51       0.0022
     38  CG2        0.0960   67.8800    3.5750 C.3    51  VAL51       0.0022
     39  N          4.8080   52.7630   -0.2140 N.3   117  GLU117     -0.1245
     40  CA         3.3900   52.6180   -0.4850 C.3   117  GLU117      0.1567
     41  C          3.1330   53.0590   -1.9030 C.2   117  GLU117      0.2260
     42  O          3.5890   54.1290   -2.3140 O.2   117  GLU117     -0.2867
     43  CB         2.5430   53.4470    0.4880 C.3   117  GLU117      0.0388
     44  CG         2.7790   53.1080    1.9440 C.3   117  GLU117      0.1160
     45  CD         1.9440   53.9400    2.9110 C.2   117  GLU117      0.3649
     46  OE1        1.7370   55.1630    2.6830 O.co2 117  GLU117     -0.2457
     47  OE2        1.5020   53.3590    3.9150 O.co2 117  GLU117     -0.2457
     48  N          7.2600   56.8400    0.9040 N.3   122  LYS122     -0.1245
     49  CA         6.4160   57.7030    1.7180 C.3   122  LYS122      0.1561
     50  C          7.0400   58.0470    3.0650 C.2   122  LYS122      0.2260
     51  O          6.4900   58.8410    3.8200 O.2   122  LYS122     -0.2867
     52  CB         5.0530   57.0340    1.9420 C.3   122  LYS122      0.0271
     53  CG         4.2520   56.8240    0.6500 C.3   122  LYS122      0.0035
     54  CD         3.9880   58.1400   -0.0620 C.3   122  LYS122      0.0206
     55  CE         3.6730   57.9350   -1.5400 C.3   122  LYS122      0.1093
     56  NZ         2.3910   57.2090   -1.7880 N.3   122  LYS122     -0.1314
     57  N         -2.8470   54.2770    2.6720 N.3   183  ASP183     -0.1225
     58  CA        -2.9920   55.7250    2.5810 C.3   183  ASP183      0.1805
     59  C         -4.3530   56.0580    1.9620 C.2   183  ASP183      0.2597
     60  O         -4.8000   55.3910    1.0160 O.2   183  ASP183     -0.2718
     61  CB        -1.8580   56.3380    1.7620 C.3   183  ASP183      0.1424
     62  CG        -1.7880   55.7730    0.3680 C.2   183  ASP183      0.3668
     63  OD1       -1.3580   54.6060    0.2240 O.co2 183  ASP183     -0.2456
     64  OD2       -2.1680   56.4930   -0.5800 O.co2 183  ASP183     -0.2456
     65  N         -4.9940   57.0810    2.5210 N.am  184  PHE184     -0.1976
     66  CA        -6.3690   57.4720    2.2010 C.3   184  PHE184      0.1639
     67  C         -7.3640   56.3340    2.4190 C.2   184  PHE184      0.2290
     68  O         -8.4770   56.3670    1.8890 O.2   184  PHE184     -0.2864
     69  CB        -6.4570   58.0000    0.7610 C.3   184  PHE184      0.0560
     70  CG        -5.6680   59.2590    0.5510 C.ar  184  PHE184     -0.0200
     71  CD1       -6.2000   60.4910    0.8990 C.ar  184  PHE184     -0.0042
     72  CD2       -4.3750   59.2080    0.0500 C.ar  184  PHE184     -0.0042
     73  CE1       -5.4660   61.6490    0.7320 C.ar  184  PHE184     -0.0003
     74  CE2       -3.6370   60.3630   -0.1210 C.ar  184  PHE184     -0.0003
     75  CZ        -4.1850   61.5850    0.2220 C.ar  184  PHE184     -0.0000
     76  N          2.2620   59.3350    9.8380 N.3   217  CYS217     -0.1221
     77  CA         2.0700   58.4510    8.7090 C.3   217  CYS217      0.1808
     78  C          3.0160   58.9740    7.6350 C.2   217  CYS217      0.2602
     79  O          4.2060   59.1200    7.8960 O.2   217  CYS217     -0.2717
     80  CB         0.6120   58.4150    8.2510 C.3   217  CYS217      0.0970
     81  SG        -0.2740   59.9870    8.3960 S.3   217  CYS217     -0.0800
     82  N          2.5140   59.2770    6.4460 N.am  218  SER218     -0.1938
     83  CA         3.3900   59.8980    5.4560 C.3   218  SER218      0.2055
     84  C          3.3300   61.4210    5.5830 C.2   218  SER218      0.2642
     85  O          4.3460   62.0720    5.7770 O.2   218  SER218     -0.2714
     86  CB         3.0240   59.4610    4.0430 C.3   218  SER218      0.2130
     87  OG         3.9450   60.0280    3.1210 O.3   218  SER218     -0.2179
     88  N          2.1280   61.9820    5.4970 N.am  219  ALA219     -0.1977
     89  CA         1.9420   63.4200    5.6560 C.3   219  ALA219      0.1597
     90  C          1.7500   63.8090    7.1330 C.2   219  ALA219      0.2287
     91  O          1.9330   64.9560    7.5190 O.2   219  ALA219     -0.2864
     92  CB         0.7590   63.8770    4.8340 C.3   219  ALA219      0.0319
     93  N         -1.1840   63.5890    8.7710 N.3   221  ILE221     -0.1231
     94  CA        -2.5100   64.1700    8.9620 C.3   221  ILE221      0.1692
     95  C         -3.6870   63.1890    8.7770 C.2   221  ILE221      0.2593
     96  O         -4.6580   63.2810    9.5090 O.2   221  ILE221     -0.2718
     97  CB        -2.7250   65.3780    8.0190 C.3   221  ILE221      0.0266
     98  CG1       -2.6200   64.9610    6.5500 C.3   221  ILE221      0.0019
     99  CG2       -1.7270   66.4960    8.3380 C.3   221  ILE221      0.0020
    100  CD1       -2.7550   66.1530    5.5920 C.3   221  ILE221      0.0001
    101  N         -3.6090   62.2610    7.8190 N.am  222  GLY222     -0.1942
    102  CA        -4.7510   61.3960    7.4990 C.3   222  GLY222      0.2014
    103  C         -4.9820   60.2770    8.5140 C.2   222  GLY222      0.2638
    104  O         -5.8460   60.3650    9.4050 O.2   222  GLY222     -0.2714
    105  N         -4.2090   59.2100    8.3610 N.am  223  ARG223     -0.1977
    106  CA        -4.1820   58.1150    9.3180 C.3   223  ARG223      0.1597
    107  C         -3.7790   58.6030   10.7220 C.2   223  ARG223      0.2287
    108  O         -4.3350   58.1550   11.7140 O.2   223  ARG223     -0.2864
    109  CB        -3.2310   57.0210    8.8200 C.3   223  ARG223      0.0334
    110  CG        -3.7300   56.3340    7.5450 C.3   223  ARG223      0.0492
    111  CD        -2.6370   55.5510    6.8100 C.3   223  ARG223      0.2205
    112  NE        -1.6960   56.4240    6.1030 N.pl3 223  ARG223     -0.0865
    113  CZ        -0.7170   55.9880    5.3060 C.cat 223  ARG223      0.5346
    114  NH1       -0.5420   54.6820    5.1120 N.pl3 223  ARG223      0.1354
    115  NH2        0.0840   56.8590    4.6890 N.pl3 223  ARG223      0.1354
    116  N         -3.2450   71.2400   10.3700 N.3   260  MET260     -0.1230
    117  CA        -4.1840   71.1850    9.2530 C.3   260  MET260      0.1702
    118  C         -4.4830   69.7660    8.7480 C.2   260  MET260      0.2592
    119  O         -3.6790   68.8370    8.9040 O.2   260  MET260     -0.2718
    120  CB        -3.6420   72.0180    8.0860 C.3   260  MET260      0.0401
    121  CG        -2.3140   71.4580    7.5230 C.3   260  MET260      0.0596
    122  SD        -1.7020   72.2430    6.0130 S.3   260  MET260     -0.1393
    123  CE        -1.4370   73.9450    6.5470 C.3   260  MET260      0.0692
    124  N         -5.6540   69.6120    8.1470 N.am  261  GLY261     -0.1957
    125  CA        -5.9770   68.4400    7.3500 C.3   261  GLY261      0.1869
    126  C         -6.1640   67.1310    8.0860 C.2   261  GLY261      0.2309
    127  O         -6.2240   66.0830    7.4550 O.2   261  GLY261     -0.2863
    128  N         -8.3600   62.6730    6.3920 N.3   264  GLN264     -0.1245
    129  CA        -8.2250   63.0500    4.9940 C.3   264  GLN264      0.1566
    130  C         -9.3540   62.6040    4.0630 C.2   264  GLN264      0.2260
    131  O         -9.4410   63.0910    2.9470 O.2   264  GLN264     -0.2867
    132  CB        -6.8940   62.5200    4.4800 C.3   264  GLN264      0.0367
    133  CG        -5.7690   63.4740    4.7700 C.3   264  GLN264      0.0905
    134  CD        -5.9090   64.7320    3.9610 C.2   264  GLN264      0.2608
    135  OE1       -5.8020   64.6930    2.7410 O.2   264  GLN264     -0.2717
    136  NE2       -6.1920   65.8530    4.6270 N.am  264  GLN264     -0.0878
    137  N        -12.6060   57.8530    6.5420 N.3   268  GLN268     -0.1245
    138  CA       -11.7770   57.8660    7.7410 C.3   268  GLN268      0.1566
    139  C        -12.5390   58.5030    8.9000 C.2   268  GLN268      0.2260
    140  O        -12.3930   58.0870   10.0520 O.2   268  GLN268     -0.2867
    141  CB       -10.4560   58.6080    7.4970 C.3   268  GLN268      0.0367
    142  CG        -9.4630   57.8340    6.6320 C.3   268  GLN268      0.0905
    143  CD        -8.1880   58.6150    6.3750 C.2   268  GLN268      0.2608
    144  OE1       -8.1230   59.8280    6.6330 O.2   268  GLN268     -0.2717
    145  NE2       -7.1580   57.9240    5.8790 N.am  268  GLN268     -0.0878
@<TRIPOS>BOND
     1    31    29   ar
     2    42    41    2
     3    41    40    1
     4    56    55    1
     5    55    54    1
     6    30    29   ar
     7    29    28    1
     8    64    62   ar
     9    40    39    1
    10    40    43    1
    11    20    18   ar
    12    20    22   ar
    13    74    72   ar
    14    74    75   ar
    15    54    53    1
    16    18    17   ar
    17    28    25    1
    18    72    70   ar
    19    75    73   ar
    20    63    62   ar
    21    62    61    1
    22    24    25    1
    23    43    44    1
    24    70    69    1
    25    70    71   ar
    26    53    52    1
    27    73    71   ar
    28    69    66    1
    29    13    14    1
    30    13    16    1
    31    13    12    1
    32    48    49    1
    33    14    15    2
    34    23    22    1
    35    25    26    1
    36    60    59    2
    37    22    21   ar
    38    10     9    1
    39    17    16    1
    40    17    19   ar
    41    11     9    1
    42    49    52    1
    43    49    50    1
    44    61    58    1
    45     9     8    2
    46    68    67    2
    47    44    45    1
    48    59    65   am
    49    59    58    1
    50    66    67    1
    51    66    65    1
    52    21    19   ar
    53    26    27    2
    54    26    32   am
    55    58    57    1
    56    46    45   ar
    57   135   134    2
    58    45    47   ar
    59     8     7    1
    60   131   130    2
    61    32    33    1
    62    50    51    2
    63    87    86    1
    64     7     6    1
    65    38    36    1
    66   134   136   am
    67   134   133    1
    68    86    83    1
    69   130   129    1
    70    33    36    1
    71    33    34    1
    72    36    37    1
    73   132   133    1
    74   132   129    1
    75   115   113    1
    76     5     6    1
    77     5     2    1
    78    92    89    1
    79   129   128    1
    80   114   113    1
    81    34    35    2
    82   113   112    2
    83    83    84    1
    84    83    82    1
    85    88    84   am
    86    88    89    1
    87    84    85    2
    88   100    98    1
    89    89    90    1
    90   145   143   am
    91   122   123    1
    92   122   121    1
    93     3     4    2
    94     3     2    1
    95   112   111    1
    96     2     1    1
    97   143   142    1
    98   143   144    2
    99    82    78   am
   100   137   138    1
   101    98    97    1
   102   142   141    1
   103   111   110    1
   104    90    91    2
   105   125   126    1
   106   125   124    1
   107   127   126    2
   108   141   138    1
   109   102   101    1
   110   102   103    1
   111   121   120    1
   112   110   109    1
   113    78    79    2
   114    78    77    1
   115   138   139    1
   116   101    95   am
   117    97    99    1
   118    97    94    1
   119   120   117    1
   120   124   118   am
   121    80    81    1
   122    80    77    1
   123   105   103   am
   124   105   106    1
   125   103   104    2
   126    77    76    1
   127   118   119    2
   128   118   117    1
   129    93    94    1
   130    95    94    1
   131    95    96    2
   132   109   106    1
   133   139   140    2
   134   117   116    1
   135   106   107    1
   136   107   108    2
