@<TRIPOS>MOLECULE
tmp/5t1aA01.pdb
 178 168 0 0 0
SMALL
GASTEIGER

@<TRIPOS>ATOM
      1  N          7.8360   36.4150  179.9710 N.3    27  VAL27      -0.1245
      2  CA         8.3330   35.3030  180.7700 C.3    27  VAL27       0.1561
      3  C          9.7770   35.5510  181.2000 C.2    27  VAL27       0.2260
      4  O         10.1250   35.3760  182.3680 O.2    27  VAL27      -0.2867
      5  CB         8.2380   33.9750  179.9930 C.3    27  VAL27       0.0252
      6  CG1        9.0410   32.8860  180.6820 C.3    27  VAL27       0.0019
      7  CG2        6.7820   33.5620  179.8350 C.3    27  VAL27       0.0019
      8  N         10.1710   38.4960  183.7060 N.3    30  ILE30      -0.1231
      9  CA         9.7690   38.0540  185.0320 C.3    30  ILE30       0.1692
     10  C         10.8660   37.2260  185.6920 C.2    30  ILE30       0.2591
     11  O         11.2300   37.4700  186.8410 O.2    30  ILE30      -0.2718
     12  CB         8.4710   37.2330  184.9740 C.3    30  ILE30       0.0266
     13  CG1        7.2900   38.1450  184.6390 C.3    30  ILE30       0.0019
     14  CG2        8.2270   36.5210  186.2930 C.3    30  ILE30       0.0020
     15  CD1        5.9950   37.4070  184.4100 C.3    30  ILE30       0.0001
     16  N         11.4050   36.2600  184.9550 N.am   31  LEU31      -0.1980
     17  CA        12.4250   35.3640  185.4940 C.3    31  LEU31       0.1596
     18  C         13.7010   36.1020  185.8930 C.2    31  LEU31       0.2287
     19  O         14.4540   35.6330  186.7460 O.2    31  LEU31      -0.2864
     20  CB        12.7560   34.2660  184.4820 C.3    31  LEU31       0.0297
     21  CG        11.6680   33.2130  184.2670 C.3    31  LEU31       0.0022
     22  CD1       12.0560   32.2640  183.1500 C.3    31  LEU31       0.0001
     23  CD2       11.4010   32.4460  185.5500 C.3    31  LEU31       0.0001
     24  N         12.0080   36.7480  189.7380 N.3    35  LYS35      -0.1245
     25  CA        12.5860   35.5270  190.2900 C.3    35  LYS35       0.1561
     26  C         14.1000   35.6630  190.4250 C.2    35  LYS35       0.2260
     27  O         14.7140   35.0060  191.2680 O.2    35  LYS35      -0.2867
     28  CB        12.2390   34.3210  189.4140 C.3    35  LYS35       0.0271
     29  CG        11.1580   33.4050  189.9860 C.3    35  LYS35       0.0035
     30  CD        11.7320   32.4680  191.0400 C.3    35  LYS35       0.0206
     31  CE        10.7380   31.3800  191.4340 C.3    35  LYS35       0.1093
     32  NZ        11.3360   30.3870  192.3760 N.3    35  LYS35      -0.1314
     33  N         14.7830   25.6090  188.5160 N.3    41  THR41      -0.1203
     34  CA        13.6490   25.5630  187.6080 C.3    41  THR41       0.1994
     35  C         13.5060   26.8870  186.8580 C.2    41  THR41       0.2617
     36  O         12.9040   26.9380  185.7890 O.2    41  THR41      -0.2717
     37  CB        12.3410   25.2250  188.3630 C.3    41  THR41       0.1784
     38  OG1       11.4270   24.5710  187.4760 O.3    41  THR41      -0.2211
     39  CG2       11.6870   26.4760  188.9320 C.3    41  THR41       0.0376
     40  N         14.0820   27.9520  187.4070 N.am   42  ASP42      -0.1973
     41  CA        14.0570   29.2500  186.7410 C.3    42  ASP42       0.1709
     42  C         14.9830   29.2400  185.5300 C.2    42  ASP42       0.2293
     43  O         14.7300   29.9160  184.5340 O.2    42  ASP42      -0.2864
     44  CB        14.4620   30.3650  187.7060 C.3    42  ASP42       0.1436
     45  CG        13.5870   30.4130  188.9390 C.2    42  ASP42       0.3671
     46  OD1       12.3970   30.0430  188.8360 O.co2  42  ASP42      -0.2456
     47  OD2       14.0890   30.8150  190.0100 O.co2  42  ASP42      -0.2456
     48  N         13.1480   27.1950  182.5840 N.3    45  LEU45      -0.1245
     49  CA        12.0740   28.0080  182.0180 C.3    45  LEU45       0.1561
     50  C         12.6360   29.1410  181.1670 C.2    45  LEU45       0.2260
     51  O         12.0470   29.5220  180.1560 O.2    45  LEU45      -0.2867
     52  CB        11.1860   28.5800  183.1260 C.3    45  LEU45       0.0270
     53  CG        10.3210   27.5930  183.9100 C.3    45  LEU45       0.0019
     54  CD1        9.7040   28.2810  185.1160 C.3    45  LEU45       0.0001
     55  CD2        9.2400   27.0000  183.0240 C.3    45  LEU45       0.0001
     56  N         12.2730   19.8850  182.7260 N.3    98  LEU98      -0.1245
     57  CA        11.3210   20.3820  183.7120 C.3    98  LEU98       0.1561
     58  C         10.3670   19.2820  184.1560 C.2    98  LEU98       0.2260
     59  O          9.9630   19.2300  185.3170 O.2    98  LEU98      -0.2867
     60  CB        10.5310   21.5570  183.1460 C.3    98  LEU98       0.0270
     61  CG        11.2880   22.8810  183.0680 C.3    98  LEU98       0.0019
     62  CD1       10.7040   23.7680  181.9840 C.3    98  LEU98       0.0001
     63  CD2       11.2450   23.5820  184.4130 C.3    98  LEU98       0.0001
     64  N         10.2420   18.2580  188.1870 N.3   102  ARG102     -0.1245
     65  CA         9.0540   18.3960  189.0160 C.3   102  ARG102      0.1563
     66  C          8.4780   17.0380  189.3950 C.2   102  ARG102      0.2260
     67  O          7.7650   16.9170  190.3880 O.2   102  ARG102     -0.2867
     68  CB         8.0050   19.2560  188.3120 C.3   102  ARG102      0.0307
     69  CG         8.1330   20.7290  188.6660 C.3   102  ARG102      0.0489
     70  CD         8.1130   20.8940  190.1800 C.3   102  ARG102      0.2205
     71  NE         8.7120   22.1470  190.6320 N.pl3 102  ARG102     -0.0865
     72  CZ         9.9580   22.2590  191.0810 C.cat 102  ARG102      0.5346
     73  NH1       10.7450   21.1920  191.1330 N.pl3 102  ARG102      0.1354
     74  NH2       10.4200   23.4380  191.4770 N.pl3 102  ARG102      0.1354
     75  N          0.9570   22.9250  196.1550 N.3   361  ARG361     -0.1245
     76  CA         1.8640   23.5020  195.1670 C.3   361  ARG361      0.1563
     77  C          2.6760   22.4460  194.4230 C.2   361  ARG361      0.2260
     78  O          3.0180   22.6310  193.2540 O.2   361  ARG361     -0.2867
     79  CB         2.8070   24.5070  195.8320 C.3   361  ARG361      0.0307
     80  CG         2.1370   25.8140  196.2190 C.3   361  ARG361      0.0489
     81  CD         3.1470   26.8190  196.7400 C.3   361  ARG361      0.2205
     82  NE         3.7340   26.3950  198.0070 N.pl3 361  ARG361     -0.0865
     83  CZ         4.7550   27.0070  198.5980 C.cat 361  ARG361      0.5346
     84  NH1        5.3110   28.0710  198.0350 N.pl3 361  ARG361      0.1354
     85  NH2        5.2230   26.5500  199.7520 N.pl3 361  ARG361      0.1354
     86  N          0.2040   21.0630  191.9110 N.3   364  LYS364     -0.1231
     87  CA        -0.0920   22.1140  190.9420 C.3   364  LYS364      0.1693
     88  C          1.0820   22.3430  189.9970 C.2   364  LYS364      0.2591
     89  O          0.8990   22.7700  188.8580 O.2   364  LYS364     -0.2718
     90  CB        -0.4480   23.4200  191.6540 C.3   364  LYS364      0.0285
     91  CG        -1.8080   23.4230  192.3270 C.3   364  LYS364      0.0035
     92  CD        -2.0570   24.7350  193.0540 C.3   364  LYS364      0.0206
     93  CE        -3.4280   24.7560  193.7120 C.3   364  LYS364      0.1093
     94  NZ        -4.5240   24.8790  192.7100 N.3   364  LYS364     -0.1314
     95  N          2.2880   22.0570  190.4800 N.am  365  ALA365     -0.1980
     96  CA         3.4920   22.2220  189.6800 C.3   365  ALA365      0.1597
     97  C          3.5370   21.2190  188.5330 C.2   365  ALA365      0.2287
     98  O          3.7910   21.5930  187.3880 O.2   365  ALA365     -0.2864
     99  CB         4.7260   22.0850  190.5500 C.3   365  ALA365      0.0319
    100  N          1.0690   21.8900  185.7610 N.3   368  VAL368     -0.1231
    101  CA         1.4930   22.8740  184.7740 C.3   368  VAL368      0.1692
    102  C          2.3910   22.2540  183.7110 C.2   368  VAL368      0.2591
    103  O          2.1290   22.3860  182.5160 O.2   368  VAL368     -0.2718
    104  CB         2.2390   24.0540  185.4270 C.3   368  VAL368      0.0266
    105  CG1        2.8500   24.9480  184.3600 C.3   368  VAL368      0.0020
    106  CG2        1.2980   24.8530  186.3130 C.3   368  VAL368      0.0020
    107  N          3.4390   21.5650  184.1500 N.am  369  ILE369     -0.1980
    108  CA         4.4540   21.0640  183.2300 C.3   369  ILE369      0.1595
    109  C          3.9650   19.8720  182.4020 C.2   369  ILE369      0.2287
    110  O          4.3970   19.6860  181.2660 O.2   369  ILE369     -0.2864
    111  CB         5.7490   20.6770  183.9840 C.3   369  ILE369      0.0276
    112  CG1        6.8910   20.4420  182.9930 C.3   369  ILE369      0.0022
    113  CG2        5.5280   19.4670  184.8840 C.3   369  ILE369      0.0022
    114  CD1        7.0930   21.5920  182.0230 C.3   369  ILE369      0.0001
    115  N          0.8180   29.1670  180.8550 N.3   429  TYR429     -0.1241
    116  CA         1.2470   29.6880  182.1470 C.3   429  TYR429      0.1605
    117  C          0.1480   30.5330  182.7780 C.2   429  TYR429      0.2264
    118  O         -0.1870   30.3620  183.9470 O.2   429  TYR429     -0.2867
    119  CB         2.5190   30.5260  182.0050 C.3   429  TYR429      0.0534
    120  CG         3.7500   29.7540  181.5860 C.ar  429  TYR429     -0.0201
    121  CD1        3.8360   28.3830  181.7720 C.ar  429  TYR429     -0.0009
    122  CD2        4.8340   30.4060  181.0130 C.ar  429  TYR429     -0.0009
    123  CE1        4.9660   27.6820  181.3920 C.ar  429  TYR429      0.0417
    124  CE2        5.9650   29.7170  180.6320 C.ar  429  TYR429      0.0417
    125  CZ         6.0270   28.3560  180.8230 C.ar  429  TYR429      0.1957
    126  OH         7.1580   27.6720  180.4400 O.3   429  TYR429     -0.2866
    127  N         -3.0160   28.1500  183.6560 N.3   432  VAL432     -0.1231
    128  CA        -2.8360   27.0490  184.5950 C.3   432  VAL432      0.1692
    129  C         -2.0270   27.4590  185.8210 C.2   432  VAL432      0.2593
    130  O         -2.3430   27.0700  186.9440 O.2   432  VAL432     -0.2718
    131  CB        -2.1420   25.8530  183.9210 C.3   432  VAL432      0.0266
    132  CG1       -2.0880   24.6670  184.8680 C.3   432  VAL432      0.0020
    133  CG2       -2.8670   25.4760  182.6420 C.3   432  VAL432      0.0020
    134  N         -0.9860   28.2550  185.6000 N.am  433  GLY433     -0.1942
    135  CA        -0.0490   28.5960  186.6550 C.3   433  GLY433      0.2014
    136  C         -0.4410   29.7900  187.5020 C.2   433  GLY433      0.2639
    137  O         -0.5920   30.9020  186.9960 O.2   433  GLY433     -0.2714
    138  N         -0.5890   29.5590  188.8030 N.am  434  GLU434     -0.1963
    139  CA        -1.0020   30.6100  189.7240 C.3   434  GLU434      0.1733
    140  C          0.1610   31.5220  190.1080 C.2   434  GLU434      0.2616
    141  O         -0.0310   32.7170  190.3380 O.2   434  GLU434     -0.2715
    142  CB        -1.6280   30.0020  190.9810 C.3   434  GLU434      0.0429
    143  CG        -0.7320   29.0170  191.7090 C.3   434  GLU434      0.1163
    144  CD        -1.3450   28.5230  193.0010 C.2   434  GLU434      0.3649
    145  OE1       -2.5610   28.7290  193.1980 O.co2 434  GLU434     -0.2457
    146  OE2       -0.6100   27.9300  193.8200 O.co2 434  GLU434     -0.2457
    147  N          1.3650   30.9610  190.1780 N.am  435  LYS435     -0.1963
    148  CA         2.5410   31.7530  190.5240 C.3   435  LYS435      0.1728
    149  C          2.8710   32.7490  189.4190 C.2   435  LYS435      0.2616
    150  O          3.3400   33.8550  189.6880 O.2   435  LYS435     -0.2715
    151  CB         3.7490   30.8520  190.7980 C.3   435  LYS435      0.0311
    152  CG         3.7420   30.2080  192.1740 C.3   435  LYS435      0.0038
    153  CD         5.1030   29.6320  192.5330 C.3   435  LYS435      0.0206
    154  CE         5.1510   29.2420  194.0040 C.3   435  LYS435      0.1093
    155  NZ         6.5060   28.8000  194.4340 N.3   435  LYS435     -0.1314
    156  N          2.6190   32.3530  188.1760 N.am  436  PHE436     -0.1974
    157  CA         2.9080   33.2070  187.0320 C.3   436  PHE436      0.1639
    158  C          1.9870   34.4180  187.0190 C.2   436  PHE436      0.2290
    159  O          2.4230   35.5380  186.7520 O.2   436  PHE436     -0.2864
    160  CB         2.7740   32.4240  185.7270 C.3   436  PHE436      0.0560
    161  CG         3.1510   33.2130  184.5080 C.ar  436  PHE436     -0.0200
    162  CD1        4.4810   33.4700  184.2190 C.ar  436  PHE436     -0.0042
    163  CD2        2.1780   33.6890  183.6440 C.ar  436  PHE436     -0.0042
    164  CE1        4.8340   34.1940  183.0960 C.ar  436  PHE436     -0.0003
    165  CE2        2.5240   34.4130  182.5170 C.ar  436  PHE436     -0.0003
    166  CZ         3.8550   34.6650  182.2430 C.ar  436  PHE436     -0.0000
    167  N          3.1200   36.7710  189.5650 N.3   439  TYR439     -0.1241
    168  CA         4.2620   37.5320  189.0730 C.3   439  TYR439      0.1605
    169  C          3.8000   38.6540  188.1490 C.2   439  TYR439      0.2264
    170  O          4.4450   39.6970  188.0520 O.2   439  TYR439     -0.2867
    171  CB         5.2480   36.6170  188.3440 C.3   439  TYR439      0.0534
    172  CG         5.8890   35.5600  189.2200 C.ar  439  TYR439     -0.0201
    173  CD1        5.9810   35.7290  190.5950 C.ar  439  TYR439     -0.0009
    174  CD2        6.4050   34.3940  188.6680 C.ar  439  TYR439     -0.0009
    175  CE1        6.5680   34.7640  191.3980 C.ar  439  TYR439      0.0417
    176  CE2        6.9930   33.4250  189.4600 C.ar  439  TYR439      0.0417
    177  CZ         7.0720   33.6150  190.8230 C.ar  439  TYR439      0.1957
    178  OH         7.6570   32.6510  191.6120 O.3   439  TYR439     -0.2866
@<TRIPOS>BOND
     1     7     5    1
     2     1     2    1
     3     5     6    1
     4     5     2    1
     5    51    50    2
     6   126   125    1
     7   124   125   ar
     8   124   122   ar
     9     2     3    1
    10   125   123   ar
    11   115   116    1
    12   122   120   ar
    13    50    49    1
    14     3     4    2
    15   110   109    2
    16   123   121   ar
    17   120   121   ar
    18   120   119    1
    19    62    61    1
    20   119   116    1
    21    49    48    1
    22    49    52    1
    23   114   112    1
    24   116   117    1
    25   166   165   ar
    26   166   164   ar
    27   109   108    1
    28   103   102    2
    29   165   163   ar
    30   133   131    1
    31    56    57    1
    32   117   118    2
    33   112   111    1
    34    55    53    1
    35    61    60    1
    36    61    63    1
    37   164   162   ar
    38    52    53    1
    39    60    57    1
    40    22    21    1
    41   108   111    1
    42   108   107    1
    43   163   161   ar
    44   127   128    1
    45     8     9    1
    46   102   107   am
    47   102   101    1
    48    57    58    1
    49    53    54    1
    50   131   128    1
    51   131   132    1
    52   111   113    1
    53    58    59    2
    54   162   161   ar
    55    21    20    1
    56    21    23    1
    57   105   104    1
    58    15    13    1
    59    20    17    1
    60   161   160    1
    61    43    42    2
    62   128   129    1
    63    13    12    1
    64   101   104    1
    65   101   100    1
    66    16    17    1
    67    16    10   am
    68    12     9    1
    69    12    14    1
    70     9    10    1
    71   104   106    1
    72    17    18    1
    73    42    41    1
    74   134   129   am
    75   134   135    1
    76    10    11    2
    77   160   157    1
    78    36    35    2
    79   129   130    2
    80    18    19    2
    81   135   136    1
    82    41    40    1
    83    41    44    1
    84   159   158    2
    85    35    40   am
    86    35    34    1
    87   137   136    2
    88   158   157    1
    89   157   156    1
    90    98    97    2
    91    38    37    1
    92   136   138   am
    93    34    37    1
    94    34    33    1
    95    44    45    1
    96   170   169    2
    97   169   168    1
    98   156   149   am
    99    64    65    1
   100    68    69    1
   101    68    65    1
   102   171   168    1
   103   171   172    1
   104    37    39    1
   105    97    96    1
   106    69    70    1
   107   174   172   ar
   108   174   176   ar
   109   138   139    1
   110    46    45   ar
   111    89    88    2
   112    45    47   ar
   113    65    66    1
   114   168   167    1
   115   172   173   ar
   116    66    67    2
   117    28    29    1
   118    28    25    1
   119   149   150    2
   120   149   148    1
   121   176   177   ar
   122    96    95    1
   123    96    99    1
   124   139   140    1
   125   139   142    1
   126    24    25    1
   127    29    30    1
   128    88    95   am
   129    88    87    1
   130   140   147   am
   131   140   141    2
   132   147   148    1
   133    70    71    1
   134    25    26    1
   135    26    27    2
   136   148   151    1
   137   173   175   ar
   138    71    72    2
   139   151   152    1
   140   177   175   ar
   141   177   178    1
   142    87    90    1
   143    87    86    1
   144   142   143    1
   145    30    31    1
   146    72    73    1
   147    72    74    1
   148    31    32    1
   149    90    91    1
   150   143   144    1
   151   152   153    1
   152    91    92    1
   153   153   154    1
   154    94    93    1
   155   144   145   ar
   156   144   146   ar
   157    92    93    1
   158    78    77    2
   159   154   155    1
   160    77    76    1
   161    76    79    1
   162    76    75    1
   163    79    80    1
   164    80    81    1
   165    81    82    1
   166    82    83    2
   167    84    83    1
   168    83    85    1
