@<TRIPOS>MOLECULE
tmp/5t1aA00.pdb
 188 182 0 0 0
SMALL
GASTEIGER

@<TRIPOS>ATOM
      1  N         -1.4730   24.6060  146.0510 N.3     1  VAL1       -0.1231
      2  CA        -1.4960   24.9440  147.4820 C.3     1  VAL1        0.1692
      3  C         -0.9410   26.3680  147.7070 C.2     1  VAL1        0.2591
      4  O         -1.4520   27.0900  148.5450 O.2     1  VAL1       -0.2718
      5  CB        -0.7130   23.8690  148.3090 C.3     1  VAL1        0.0266
      6  CG1        0.4160   24.4970  149.1220 C.3     1  VAL1        0.0020
      7  CG2       -1.6610   23.0750  149.2300 C.3     1  VAL1        0.0020
      8  N          0.0550   26.7670  146.9090 N.am    2  LYS2       -0.1980
      9  CA         0.6690   28.0950  146.9870 C.3     2  LYS2        0.1596
     10  C         -0.3020   29.2850  147.0290 C.2     2  LYS2        0.2287
     11  O         -0.0140   30.3050  147.6600 O.2     2  LYS2       -0.2864
     12  CB         1.6220   28.3060  145.8120 C.3     2  LYS2        0.0298
     13  CG         2.4130   29.5980  145.9190 C.3     2  LYS2        0.0038
     14  CD         3.5990   29.3490  146.8770 C.3     2  LYS2        0.0206
     15  CE         4.5610   30.5190  146.7270 C.3     2  LYS2        0.1093
     16  NZ         5.5100   30.4770  147.8620 N.3     2  LYS2       -0.1314
     17  N         -3.3480   29.3440  148.4060 N.3     4  ILE4       -0.1231
     18  CA        -3.8980   29.3660  149.7570 C.3     4  ILE4        0.1692
     19  C         -2.8580   29.8210  150.7810 C.2     4  ILE4        0.2592
     20  O         -3.1820   30.5020  151.7550 O.2     4  ILE4       -0.2718
     21  CB        -4.4340   27.9740  150.1520 C.3     4  ILE4        0.0266
     22  CG1       -5.4550   27.4930  149.1190 C.3     4  ILE4        0.0019
     23  CG2       -5.0490   28.0000  151.5440 C.3     4  ILE4        0.0020
     24  CD1       -5.1830   26.1050  148.5880 C.3     4  ILE4        0.0001
     25  N         -1.6050   29.4480  150.5460 N.am    5  GLY5       -0.1957
     26  CA        -0.5220   29.7970  151.4450 C.3     5  GLY5        0.1869
     27  C         -0.2040   31.2790  151.4650 C.2     5  GLY5        0.2309
     28  O          0.1770   31.8230  152.4990 O.2     5  GLY5       -0.2863
     29  N         -3.0040   33.0260  153.5960 N.3     8  LEU8       -0.1231
     30  CA        -3.1890   32.5660  154.9670 C.3     8  LEU8        0.1693
     31  C         -1.9340   32.6990  155.8300 C.2     8  LEU8        0.2591
     32  O         -2.0020   33.1720  156.9620 O.2     8  LEU8       -0.2718
     33  CB        -3.6570   31.1100  154.9660 C.3     8  LEU8        0.0284
     34  CG        -3.6780   30.4050  156.3210 C.3     8  LEU8        0.0019
     35  CD1       -4.7320   31.0190  157.2310 C.3     8  LEU8        0.0001
     36  CD2       -3.9100   28.9130  156.1420 C.3     8  LEU8        0.0001
     37  N         -0.7920   32.2770  155.2970 N.am    9  LEU9       -0.1980
     38  CA         0.4450   32.2340  156.0770 C.3     9  LEU9        0.1596
     39  C          0.9680   33.6040  156.5400 C.2     9  LEU9        0.2287
     40  O          1.4150   33.7240  157.6810 O.2     9  LEU9       -0.2864
     41  CB         1.5410   31.5050  155.2900 C.3     9  LEU9        0.0297
     42  CG         1.7270   30.0130  155.5800 C.3     9  LEU9        0.0022
     43  CD1        0.4040   29.2730  155.5130 C.3     9  LEU9        0.0001
     44  CD2        2.7340   29.3970  154.6200 C.3     9  LEU9        0.0001
     45  N          1.1790   33.7820  160.6130 N.3    13  TYR13      -0.1241
     46  CA         2.4980   33.7940  161.2350 C.3    13  TYR13       0.1605
     47  C          2.7770   35.1270  161.9180 C.2    13  TYR13       0.2264
     48  O          3.4720   35.1790  162.9310 O.2    13  TYR13      -0.2867
     49  CB         3.5850   33.4960  160.2010 C.3    13  TYR13       0.0534
     50  CG         3.5590   32.0790  159.6750 C.ar   13  TYR13      -0.0201
     51  CD1        2.8500   31.0830  160.3360 C.ar   13  TYR13      -0.0009
     52  CD2        4.2470   31.7350  158.5200 C.ar   13  TYR13      -0.0009
     53  CE1        2.8250   29.7860  159.8570 C.ar   13  TYR13       0.0417
     54  CE2        4.2280   30.4400  158.0350 C.ar   13  TYR13       0.0417
     55  CZ         3.5160   29.4710  158.7060 C.ar   13  TYR13       0.1957
     56  OH         3.4950   28.1840  158.2250 O.3    13  TYR13      -0.2866
     57  N          9.6740   33.1450  156.8750 N.3    62  TRP62      -0.1241
     58  CA         8.8830   32.0840  156.2610 C.3    62  TRP62       0.1605
     59  C          7.5930   32.6530  155.6840 C.2    62  TRP62       0.2264
     60  O          7.1220   32.2120  154.6340 O.2    62  TRP62      -0.2867
     61  CB         8.5650   30.9720  157.2670 C.3    62  TRP62       0.0550
     62  CG         9.7590   30.4520  158.0240 C.ar   62  TRP62       0.0003
     63  CD1        9.8820   30.3430  159.3790 C.ar   62  TRP62       0.0946
     64  CD2       10.9950   29.9750  157.4700 C.ar   62  TRP62       0.0152
     65  NE1       11.1120   29.8250  159.7030 N.ar   62  TRP62      -0.2442
     66  CE2       11.8150   29.5930  158.5500 C.ar   62  TRP62       0.0810
     67  CE3       11.4860   29.8320  156.1680 C.ar   62  TRP62       0.0012
     68  CZ2       13.0970   29.0810  158.3680 C.ar   62  TRP62       0.0191
     69  CZ3       12.7580   29.3240  155.9910 C.ar   62  TRP62       0.0001
     70  CH2       13.5500   28.9540  157.0850 C.ar   62  TRP62       0.0015
     71  N          8.3260   34.5240  152.4450 N.3    65  SER65      -0.1202
     72  CA         8.6100   33.6100  151.3450 C.3    65  SER65       0.2020
     73  C          7.3300   33.0290  150.7630 C.2    65  SER65       0.2618
     74  O          7.2460   32.7640  149.5640 O.2    65  SER65      -0.2717
     75  CB         9.5270   32.4800  151.8090 C.3    65  SER65       0.2103
     76  OG        10.6910   32.9970  152.4230 O.3    65  SER65      -0.2182
     77  N          6.3350   32.8270  151.6190 N.am   66  ALA66      -0.1979
     78  CA         5.0520   32.2990  151.1790 C.3    66  ALA66       0.1597
     79  C          4.3180   33.3240  150.3200 C.2    66  ALA66       0.2287
     80  O          3.5900   32.9660  149.3940 O.2    66  ALA66      -0.2864
     81  CB         4.2050   31.8980  152.3750 C.3    66  ALA66       0.0319
     82  N         11.9930   33.0970  148.2560 N.3    70  TRP70      -0.1241
     83  CA        13.1880   33.2770  149.0740 C.3    70  TRP70       0.1605
     84  C         14.2160   34.1530  148.3660 C.2    70  TRP70       0.2264
     85  O         14.6770   33.8270  147.2740 O.2    70  TRP70      -0.2867
     86  CB        13.8110   31.9300  149.4370 C.3    70  TRP70       0.0550
     87  CG        14.9120   32.0690  150.4350 C.ar   70  TRP70       0.0003
     88  CD1       16.2500   32.1160  150.1790 C.ar   70  TRP70       0.0946
     89  CD2       14.7690   32.2060  151.8540 C.ar   70  TRP70       0.0152
     90  NE1       16.9510   32.2630  151.3510 N.ar   70  TRP70      -0.2442
     91  CE2       16.0650   32.3210  152.3940 C.ar   70  TRP70       0.0810
     92  CE3       13.6720   32.2370  152.7190 C.ar   70  TRP70       0.0012
     93  CZ2       16.2930   32.4650  153.7620 C.ar   70  TRP70       0.0191
     94  CZ3       13.9000   32.3800  154.0770 C.ar   70  TRP70       0.0001
     95  CH2       15.2010   32.4910  154.5840 C.ar   70  TRP70       0.0015
     96  N         17.3800   28.0990  159.0890 N.3    81  THR81      -0.1218
     97  CA        17.0500   26.6910  159.2550 C.3    81  THR81       0.1862
     98  C         17.6460   26.2080  160.5730 C.2    81  THR81       0.2287
     99  O         17.0330   25.4220  161.2970 O.2    81  THR81      -0.2866
    100  CB        17.5690   25.8390  158.0850 C.3    81  THR81       0.1770
    101  OG1       16.8900   26.2210  156.8850 O.3    81  THR81      -0.2211
    102  CG2       17.3210   24.3630  158.3400 C.3    81  THR81       0.0375
    103  N         15.5800   27.5400  163.3870 N.3    84  TYR84      -0.1227
    104  CA        14.3230   26.8000  163.3290 C.3    84  TYR84       0.1736
    105  C         14.4270   25.4580  164.0480 C.2    84  TYR84       0.2595
    106  O         13.5690   25.1080  164.8600 O.2    84  TYR84      -0.2718
    107  CB        13.9150   26.5890  161.8700 C.3    84  TYR84       0.0548
    108  CG        12.5710   25.9310  161.6530 C.ar   84  TYR84      -0.0200
    109  CD1       11.4090   26.6860  161.5980 C.ar   84  TYR84      -0.0009
    110  CD2       12.4680   24.5580  161.4660 C.ar   84  TYR84      -0.0009
    111  CE1       10.1790   26.0910  161.3800 C.ar   84  TYR84       0.0417
    112  CE2       11.2420   23.9540  161.2490 C.ar   84  TYR84       0.0417
    113  CZ        10.1010   24.7260  161.2070 C.ar   84  TYR84       0.1957
    114  OH         8.8780   24.1320  160.9920 O.3    84  TYR84      -0.2866
    115  N         15.4840   24.7120  163.7480 N.am   85  HIS85      -0.1975
    116  CA        15.6710   23.3920  164.3350 C.3    85  HIS85       0.1656
    117  C         16.1590   23.4700  165.7830 C.2    85  HIS85       0.2291
    118  O         15.6460   22.7630  166.6490 O.2    85  HIS85      -0.2864
    119  CB        16.6460   22.5690  163.4900 C.3    85  HIS85       0.0771
    120  CG        16.0620   22.0780  162.2030 C.ar   85  HIS85       0.0820
    121  ND1       14.7060   21.9390  162.0040 N.ar   85  HIS85      -0.2267
    122  CD2       16.6520   21.6930  161.0440 C.ar   85  HIS85       0.1154
    123  CE1       14.4840   21.4910  160.7800 C.ar   85  HIS85       0.1986
    124  NE2       15.6500   21.3340  160.1780 N.ar   85  HIS85      -0.2212
    125  N         20.0070   21.5430  153.7170 N.3   143  THR143     -0.1218
    126  CA        19.0470   22.5840  153.3540 C.3   143  THR143      0.1862
    127  C         19.7480   23.6930  152.5790 C.2   143  THR143      0.2287
    128  O         20.7580   24.2340  153.0290 O.2   143  THR143     -0.2866
    129  CB        18.3470   23.1850  154.5850 C.3   143  THR143      0.1770
    130  OG1       17.6300   22.1570  155.2780 O.3   143  THR143     -0.2211
    131  CG2       17.3710   24.2700  154.1620 C.3   143  THR143      0.0375
    132  N         13.7690   27.9360  149.8340 N.3   153  CYS153     -0.1221
    133  CA        14.6510   27.4770  150.8930 C.3   153  CYS153      0.1808
    134  C         14.0890   26.1670  151.4150 C.2   153  CYS153      0.2602
    135  O         13.1810   26.1640  152.2420 O.2   153  CYS153     -0.2717
    136  CB        14.7600   28.5150  152.0100 C.3   153  CYS153      0.0970
    137  SG        15.8540   28.0490  153.3690 S.3   153  CYS153     -0.0800
    138  N         14.6110   25.0550  150.9100 N.am  154  GLY154     -0.1943
    139  CA        14.0770   23.7540  151.2650 C.3   154  GLY154      0.1998
    140  C         15.1370   22.7060  151.5300 C.2   154  GLY154      0.2480
    141  O         16.3160   22.9250  151.2500 O.2   154  GLY154     -0.2729
    142  N         14.7170   21.5570  152.0810 N.am  155  PRO155     -0.2726
    143  CA        15.5930   20.4190  152.3750 C.3   155  PRO155      0.1402
    144  C         15.8650   19.5580  151.1450 C.2   155  PRO155      0.2269
    145  O         14.9580   19.3070  150.3530 O.2   155  PRO155     -0.2865
    146  CB        14.7980   19.6360  153.4180 C.3   155  PRO155      0.0296
    147  CG        13.3760   19.9120  153.0660 C.3   155  PRO155      0.0237
    148  CD        13.3390   21.3280  152.5510 C.3   155  PRO155      0.0939
    149  N          2.8770   19.7350  154.8290 N.3   412  GLN412     -0.1231
    150  CA         2.8780   21.1910  154.8850 C.3   412  GLN412      0.1698
    151  C          1.8880   21.7130  155.9190 C.2   412  GLN412      0.2592
    152  O          2.2220   22.5860  156.7210 O.2   412  GLN412     -0.2718
    153  CB         2.5520   21.7800  153.5130 C.3   412  GLN412      0.0381
    154  CG         3.5630   21.4440  152.4370 C.3   412  GLN412      0.0905
    155  CD         3.0870   21.8410  151.0570 C.2   412  GLN412      0.2608
    156  OE1        2.4500   21.0520  150.3570 O.2   412  GLN412     -0.2717
    157  NE2        3.3890   23.0700  150.6580 N.am  412  GLN412     -0.0878
    158  N          0.6730   21.1770  155.8960 N.am  413  VAL413     -0.1980
    159  CA        -0.3800   21.6310  156.7970 C.3   413  VAL413      0.1595
    160  C         -0.0290   21.3470  158.2530 C.2   413  VAL413      0.2287
    161  O         -0.1330   22.2250  159.1080 O.2   413  VAL413     -0.2864
    162  CB        -1.7350   20.9680  156.4670 C.3   413  VAL413      0.0276
    163  CG1       -2.7810   21.3500  157.5020 C.3   413  VAL413      0.0022
    164  CG2       -2.1950   21.3630  155.0750 C.3   413  VAL413      0.0022
    165  N          2.8850   20.7580  159.6170 N.3   415  GLU415     -0.1231
    166  CA         4.0460   21.5180  160.0640 C.3   415  GLU415      0.1699
    167  C          3.6410   22.9540  160.3710 C.2   415  GLU415      0.2592
    168  O          4.1600   23.5700  161.2990 O.2   415  GLU415     -0.2718
    169  CB         5.1620   21.4880  159.0200 C.3   415  GLU415      0.0402
    170  CG         6.4660   22.1030  159.5070 C.3   415  GLU415      0.1161
    171  CD         7.6610   21.7020  158.6640 C.2   415  GLU415      0.3649
    172  OE1        7.4600   21.1420  157.5650 O.co2 415  GLU415     -0.2457
    173  OE2        8.8040   21.9460  159.1050 O.co2 415  GLU415     -0.2457
    174  N          2.7050   23.4800  159.5890 N.am  416  THR416     -0.1953
    175  CA         2.1420   24.7990  159.8480 C.3   416  THR416      0.1897
    176  C          1.4850   24.8210  161.2240 C.2   416  THR416      0.2313
    177  O          1.6500   25.7730  161.9870 O.2   416  THR416     -0.2863
    178  CB         1.1120   25.1980  158.7760 C.3   416  THR416      0.1794
    179  OG1        1.7540   25.2640  157.4960 O.3   416  THR416     -0.2208
    180  CG2        0.4960   26.5490  159.1000 C.3   416  THR416      0.0378
    181  N          4.0860   24.9020  163.8780 N.3   419  MET419     -0.1245
    182  CA         4.7970   26.1740  163.9270 C.3   419  MET419      0.1570
    183  C          4.0520   27.2110  164.7620 C.2   419  MET419      0.2261
    184  O          4.6390   28.2030  165.1960 O.2   419  MET419     -0.2867
    185  CB         5.0340   26.7080  162.5140 C.3   419  MET419      0.0387
    186  CG         6.1130   25.9630  161.7430 C.3   419  MET419      0.0595
    187  SD         6.2400   26.4950  160.0260 S.3   419  MET419     -0.1393
    188  CE         6.7340   28.2030  160.2350 C.3   419  MET419      0.0692
@<TRIPOS>BOND
     1    12    13    1
     2    12     9    1
     3    13    14    1
     4     1     2    1
     5    15    14    1
     6    15    16    1
     7     8     9    1
     8     8     3   am
     9     9    10    1
    10    10    11    2
    11    85    84    2
    12     2     3    1
    13     2     5    1
    14     3     4    2
    15    82    83    1
    16     5     6    1
    17     5     7    1
    18    84    83    1
    19    17    18    1
    20    24    22    1
    21    83    86    1
    22    22    21    1
    23    80    79    2
    24    86    87    1
    25    74    73    2
    26    18    21    1
    27    18    19    1
    28   132   133    1
    29    21    23    1
    30    88    87   ar
    31    88    90   ar
    32    79    78    1
    33   145   144    2
    34   156   155    2
    35    87    89   ar
    36    25    19   am
    37    25    26    1
    38   157   155   am
    39    73    72    1
    40    73    77   am
    41    19    20    2
    42   133   134    1
    43   133   136    1
    44   138   139    1
    45   138   134   am
    46   155   154    1
    47   144   143    1
    48    78    77    1
    49    78    81    1
    50   141   140    2
    51   139   140    1
    52    72    75    1
    53    72    71    1
    54    90    91   ar
    55   134   135    2
    56    26    27    1
    57    27    28    2
    58   140   142   am
    59    75    76    1
    60    89    91   ar
    61    89    92   ar
    62   136   137    1
    63   142   143    1
    64   142   148    1
    65   143   146    1
    66    91    93   ar
    67   154   153    1
    68   148   147    1
    69   127   128    2
    70   127   126    1
    71    92    94   ar
    72   147   146    1
    73   126   125    1
    74   126   129    1
    75   153   150    1
    76    29    30    1
    77    93    95   ar
    78    94    95   ar
    79   131   129    1
    80   129   130    1
    81    44    42    1
    82    60    59    2
    83   149   150    1
    84   150   151    1
    85    33    30    1
    86    33    34    1
    87    30    31    1
    88   164   162    1
    89    41    42    1
    90    41    38    1
    91    37    31   am
    92    37    38    1
    93    43    42    1
    94    59    58    1
    95    31    32    2
    96   158   151   am
    97   158   159    1
    98   151   152    2
    99    69    67   ar
   100    69    70   ar
   101    38    39    1
   102    36    34    1
   103    67    64   ar
   104    58    57    1
   105    58    61    1
   106    34    35    1
   107   162   159    1
   108   162   163    1
   109    39    40    2
   110   159   160    1
   111   101   100    1
   112    70    68   ar
   113    61    62    1
   114    64    62   ar
   115    64    66   ar
   116   179   178    1
   117   172   171   ar
   118    62    63   ar
   119    54    52   ar
   120    54    55   ar
   121   100   102    1
   122   100    97    1
   123    56    55    1
   124   160   161    2
   125    68    66   ar
   126    52    50   ar
   127    66    65   ar
   128   171   173   ar
   129   171   170    1
   130    55    53   ar
   131   178   180    1
   132   178   175    1
   133   169   170    1
   134   169   166    1
   135    96    97    1
   136    97    98    1
   137    63    65   ar
   138   174   175    1
   139   174   167   am
   140   165   166    1
   141    50    49    1
   142    50    51   ar
   143   175   176    1
   144    53    51   ar
   145   187   188    1
   146   187   186    1
   147   166   167    1
   148   124   123   ar
   149   124   122   ar
   150    49    46    1
   151   167   168    2
   152    98    99    2
   153    45    46    1
   154   123   121   ar
   155   114   113    1
   156   122   120   ar
   157   113   112   ar
   158   113   111   ar
   159   176   177    2
   160    46    47    1
   161   112   110   ar
   162   111   109   ar
   163   110   108   ar
   164   109   108   ar
   165   108   107    1
   166   186   185    1
   167   107   104    1
   168    47    48    2
   169   121   120   ar
   170   120   119    1
   171   185   182    1
   172   104   103    1
   173   104   105    1
   174   119   116    1
   175   115   105   am
   176   115   116    1
   177   181   182    1
   178   182   183    1
   179   105   106    2
   180   116   117    1
   181   183   184    2
   182   117   118    2
