@<TRIPOS>MOLECULE
tmp/5t1aA02.pdb
 108 101 0 0 0
SMALL
GASTEIGER

@<TRIPOS>ATOM
      1  N          4.7820    9.3620  185.1770 N.3   185  TYR185     -0.1241
      2  CA         3.4170    9.0530  185.5930 C.3   185  TYR185      0.1605
      3  C          3.3680    7.7970  186.4540 C.2   185  TYR185      0.2264
      4  O          2.6310    7.7400  187.4390 O.2   185  TYR185     -0.2867
      5  CB         2.5000    8.8870  184.3810 C.3   185  TYR185      0.0534
      6  CG         1.7940   10.1590  183.9750 C.ar  185  TYR185     -0.0201
      7  CD1        0.8310   10.7320  184.7960 C.ar  185  TYR185     -0.0009
      8  CD2        2.0830   10.7820  182.7680 C.ar  185  TYR185     -0.0009
      9  CE1        0.1810   11.8960  184.4290 C.ar  185  TYR185      0.0417
     10  CE2        1.4370   11.9460  182.3910 C.ar  185  TYR185      0.0417
     11  CZ         0.4880   12.4990  183.2250 C.ar  185  TYR185      0.1957
     12  OH        -0.1550   13.6570  182.8510 O.3   185  TYR185     -0.2866
     13  N          4.9280    8.4740  189.9240 N.3   188  ILE188     -0.1245
     14  CA         4.0250    9.2960  190.7220 C.3   188  ILE188      0.1561
     15  C          2.8900    8.4490  191.2970 C.2   188  ILE188      0.2260
     16  O          2.5720    8.5410  192.4820 O.2   188  ILE188     -0.2867
     17  CB         3.4310   10.4590  189.8920 C.3   188  ILE188      0.0252
     18  CG1        4.4850   11.5410  189.6540 C.3   188  ILE188      0.0019
     19  CG2        2.2300   11.0680  190.5970 C.3   188  ILE188      0.0019
     20  CD1        4.0020   12.6790  188.7790 C.3   188  ILE188      0.0001
     21  N         -1.1530    7.6190  196.3790 N.3   193  LYS193     -0.1245
     22  CA        -2.3830    8.0560  195.7270 C.3   193  LYS193      0.1561
     23  C         -2.8060    9.4260  196.2520 C.2   193  LYS193      0.2260
     24  O         -3.5260   10.1660  195.5810 O.2   193  LYS193     -0.2867
     25  CB        -3.5020    7.0320  195.9430 C.3   193  LYS193      0.0271
     26  CG        -3.1970    5.6730  195.3260 C.3   193  LYS193      0.0035
     27  CD        -3.3360    5.7410  193.8130 C.3   193  LYS193      0.0206
     28  CE        -3.1500    4.3360  193.2410 C.3   193  LYS193      0.1093
     29  NZ        -2.5320    4.3970  191.8860 N.3   193  LYS193     -0.1314
     30  N         -0.4180   11.5300  197.2670 N.3   195  ARG195     -0.1245
     31  CA         0.8110   12.2940  197.0290 C.3   195  ARG195      0.1563
     32  C          1.4650   12.7800  198.3280 C.2   195  ARG195      0.2260
     33  O          2.2220   13.7530  198.3220 O.2   195  ARG195     -0.2867
     34  CB         0.5440   13.4970  196.1100 C.3   195  ARG195      0.0307
     35  CG        -0.5250   13.2920  195.0360 C.3   195  ARG195      0.0489
     36  CD        -0.1760   12.2000  194.0390 C.3   195  ARG195      0.2205
     37  NE        -1.1600   12.1410  192.9600 N.pl3 195  ARG195     -0.0865
     38  CZ        -1.2890   11.1240  192.1140 C.cat 195  ARG195      0.5346
     39  NH1       -0.4990   10.0650  192.2210 N.pl3 195  ARG195      0.1354
     40  NH2       -2.2130   11.1630  191.1640 N.pl3 195  ARG195      0.1354
     41  N          1.6250   19.3920  193.6470 N.3   363  LYS363     -0.1245
     42  CA         0.7180   18.8130  192.6600 C.3   363  LYS363      0.1561
     43  C          0.4110   19.8020  191.5410 C.2   363  LYS363      0.2260
     44  O          0.3610   19.4280  190.3700 O.2   363  LYS363     -0.2867
     45  CB        -0.5840   18.3540  193.3230 C.3   363  LYS363      0.0271
     46  CG        -0.5870   16.8870  193.7160 C.3   363  LYS363      0.0035
     47  CD        -1.9900   16.3810  194.0080 C.3   363  LYS363      0.0206
     48  CE        -2.5460   16.9750  195.2870 C.3   363  LYS363      0.1093
     49  NZ        -3.7970   16.2880  195.7150 N.3   363  LYS363     -0.1314
     50  N          3.2860   19.9480  188.8380 N.3   366  VAL366     -0.1231
     51  CA         3.3180   18.9130  187.8080 C.3   366  VAL366      0.1692
     52  C          2.0920   19.0080  186.9140 C.2   366  VAL366      0.2591
     53  O          2.0800   18.4740  185.8100 O.2   366  VAL366     -0.2718
     54  CB         3.4030   17.4870  188.4020 C.3   366  VAL366      0.0266
     55  CG1        4.6540   17.3380  189.2510 C.3   366  VAL366      0.0020
     56  CG2        2.1580   17.1540  189.2000 C.3   366  VAL366      0.0020
     57  N          1.0580   19.6900  187.3910 N.am  367  ARG367     -0.1980
     58  CA        -0.1110   19.9340  186.5630 C.3   367  ARG367      0.1597
     59  C          0.2680   20.8800  185.4350 C.2   367  ARG367      0.2287
     60  O         -0.1430   20.6930  184.2920 O.2   367  ARG367     -0.2864
     61  CB        -1.2590   20.5140  187.3860 C.3   367  ARG367      0.0334
     62  CG        -2.2720   19.4790  187.8370 C.3   367  ARG367      0.0492
     63  CD        -3.4170   20.1300  188.5820 C.3   367  ARG367      0.2205
     64  NE        -4.1710   19.1690  189.3800 N.pl3 367  ARG367     -0.0865
     65  CZ        -4.1160   19.1050  190.7050 C.cat 367  ARG367      0.5346
     66  NH1       -3.3350   19.9400  191.3750 N.pl3 367  ARG367      0.1354
     67  NH2       -4.8340   18.2060  191.3620 N.pl3 367  ARG367      0.1354
     68  N          3.0590   19.0710  182.9520 N.3   370  PHE370     -0.1227
     69  CA         2.4970   17.9690  182.1830 C.3   370  PHE370      0.1736
     70  C          1.5700   18.5170  181.1120 C.2   370  PHE370      0.2596
     71  O          1.5310   18.0050  179.9960 O.2   370  PHE370     -0.2718
     72  CB         1.7490   16.9830  183.0810 C.3   370  PHE370      0.0547
     73  CG         2.6370   15.9620  183.7400 C.ar  370  PHE370     -0.0202
     74  CD1        3.9460   15.7890  183.3260 C.ar  370  PHE370     -0.0042
     75  CD2        2.1560   15.1690  184.7690 C.ar  370  PHE370     -0.0042
     76  CE1        4.7600   14.8470  183.9290 C.ar  370  PHE370     -0.0003
     77  CE2        2.9670   14.2260  185.3760 C.ar  370  PHE370     -0.0003
     78  CZ         4.2700   14.0660  184.9550 C.ar  370  PHE370     -0.0000
     79  N          0.8280   19.5650  181.4550 N.am  371  THR371     -0.1953
     80  CA        -0.0360   20.2310  180.4880 C.3   371  THR371      0.1897
     81  C          0.7910   20.8090  179.3440 C.2   371  THR371      0.2313
     82  O          0.4270   20.6720  178.1760 O.2   371  THR371     -0.2863
     83  CB        -0.8590   21.3490  181.1440 C.3   371  THR371      0.1794
     84  OG1       -1.7550   20.7770  182.1030 O.3   371  THR371     -0.2208
     85  CG2       -1.6630   22.1050  180.1030 C.3   371  THR371      0.0378
     86  N          1.7470   17.8580  177.1420 N.3   374  ILE374     -0.1231
     87  CA         0.5920   17.2890  176.4540 C.3   374  ILE374      0.1692
     88  C          0.1750   18.1800  175.2900 C.2   374  ILE374      0.2591
     89  O         -0.1060   17.6920  174.1950 O.2   374  ILE374     -0.2718
     90  CB        -0.6050   17.0950  177.4030 C.3   374  ILE374      0.0266
     91  CG1       -0.3070   15.9950  178.4190 C.3   374  ILE374      0.0019
     92  CG2       -1.8530   16.7270  176.6200 C.3   374  ILE374      0.0020
     93  CD1       -0.0570   14.6500  177.7920 C.3   374  ILE374      0.0001
     94  N          0.1500   19.4870  175.5260 N.am  375  VAL375     -0.1980
     95  CA        -0.2080   20.4410  174.4820 C.3   375  VAL375      0.1595
     96  C          0.8370   20.4280  173.3670 C.2   375  VAL375      0.2287
     97  O          0.4950   20.5180  172.1860 O.2   375  VAL375     -0.2864
     98  CB        -0.3690   21.8660  175.0500 C.3   375  VAL375      0.0276
     99  CG1       -0.6120   22.8660  173.9340 C.3   375  VAL375      0.0022
    100  CG2       -1.5200   21.9040  176.0400 C.3   375  VAL375      0.0022
    101  N          0.0060   17.5840  171.2060 N.3   378  LEU378     -0.1245
    102  CA        -1.1220   17.9350  170.3530 C.3   378  LEU378      0.1561
    103  C         -0.6880   18.6900  169.0970 C.2   378  LEU378      0.2260
    104  O         -1.2080   18.4470  168.0080 O.2   378  LEU378     -0.2867
    105  CB        -2.1340   18.7680  171.1420 C.3   378  LEU378      0.0270
    106  CG        -3.2660   19.4330  170.3580 C.3   378  LEU378      0.0019
    107  CD1       -4.2080   18.3930  169.7740 C.3   378  LEU378      0.0001
    108  CD2       -4.0210   20.4050  171.2470 C.3   378  LEU378      0.0001
@<TRIPOS>BOND
     1   104   103    2
     2   103   102    1
     3   107   106    1
     4   102   105    1
     5   102   101    1
     6   106   105    1
     7   106   108    1
     8    97    96    2
     9    96    95    1
    10    99    98    1
    11    89    88    2
    12    95    98    1
    13    95    94    1
    14    98   100    1
    15    88    94   am
    16    88    87    1
    17    87    86    1
    18    87    90    1
    19    92    90    1
    20    90    91    1
    21    93    91    1
    22    82    81    2
    23    81    80    1
    24    71    70    2
    25    85    83    1
    26    80    83    1
    27    80    79    1
    28    70    79   am
    29    70    69    1
    30    83    84    1
    31    69    68    1
    32    69    72    1
    33    10     8   ar
    34    10    11   ar
    35     8     6   ar
    36    12    11    1
    37    72    73    1
    38    11     9   ar
    39    74    73   ar
    40    74    76   ar
    41    73    75   ar
    42    76    78   ar
    43     6     5    1
    44     6     7   ar
    45    60    59    2
    46     5     2    1
    47     9     7   ar
    48    75    77   ar
    49    78    77   ar
    50     1     2    1
    51    59    58    1
    52     2     3    1
    53    53    52    2
    54     3     4    2
    55    58    61    1
    56    58    57    1
    57    52    57   am
    58    52    51    1
    59    61    62    1
    60    51    54    1
    61    51    50    1
    62    62    63    1
    63    54    56    1
    64    54    55    1
    65    63    64    1
    66    20    18    1
    67    64    65    2
    68    18    17    1
    69    17    19    1
    70    17    14    1
    71    13    14    1
    72    44    43    2
    73    65    67    1
    74    65    66    1
    75    14    15    1
    76    40    38    1
    77    15    16    2
    78    43    42    1
    79    29    28    1
    80    38    39    1
    81    38    37    2
    82    42    45    1
    83    42    41    1
    84    37    36    1
    85    28    27    1
    86    45    46    1
    87    46    47    1
    88    27    26    1
    89    47    48    1
    90    36    35    1
    91    35    34    1
    92    48    49    1
    93    26    25    1
    94    24    23    2
    95    22    25    1
    96    22    23    1
    97    22    21    1
    98    34    31    1
    99    31    30    1
   100    31    32    1
   101    33    32    2
