@<TRIPOS>MOLECULE
tmp/5t1gA00.pdb
 85 80 0 0 0
SMALL
GASTEIGER

@<TRIPOS>ATOM
      1  N          5.9020  -18.0590   -6.5330 N.3    15  ILE15      -0.1231
      2  CA         5.9390  -19.1930   -5.6690 C.3    15  ILE15       0.1692
      3  C          5.3530  -18.7750   -4.3240 C.2    15  ILE15       0.2592
      4  O          5.8560  -17.8640   -3.6590 O.2    15  ILE15      -0.2718
      5  CB         7.3680  -19.7420   -5.5200 C.3    15  ILE15       0.0266
      6  CG1        7.7740  -20.4560   -6.8350 C.3    15  ILE15       0.0019
      7  CG2        7.4470  -20.7160   -4.3650 C.3    15  ILE15       0.0020
      8  CD1        9.2660  -20.6630   -6.9790 C.3    15  ILE15       0.0001
      9  N          4.3190  -19.4910   -3.9040 N.am   16  ILE16      -0.1966
     10  CA         3.6720  -19.2060   -2.6010 C.3    16  ILE16       0.1727
     11  C          4.5220  -19.7800   -1.4560 C.2    16  ILE16       0.2617
     12  O          4.6050  -19.2120   -0.3690 O.2    16  ILE16      -0.2715
     13  CB         2.2520  -19.7830   -2.5650 C.3    16  ILE16       0.0290
     14  CG1        1.3690  -19.1230   -3.6370 C.3    16  ILE16       0.0022
     15  CG2        1.6530  -19.6230   -1.1810 C.3    16  ILE16       0.0023
     16  CD1        1.2690  -17.6170   -3.5130 C.3    16  ILE16       0.0001
     17  N          5.1100  -20.9440   -1.7040 N.am   17  GLY17      -0.1940
     18  CA         5.9720  -21.5660   -0.7310 C.3    17  GLY17       0.2014
     19  C          6.6250  -22.8260   -1.2490 C.2    17  GLY17       0.2639
     20  O          6.3470  -23.2510   -2.3680 O.2    17  GLY17      -0.2714
     21  N          7.4300  -23.4500   -0.3940 N.am   18  ALA18      -0.1963
     22  CA         8.2140  -24.6460   -0.7370 C.3    18  ALA18       0.1728
     23  C          7.9550  -25.7470    0.2600 C.2    18  ALA18       0.2616
     24  O          7.7000  -25.4610    1.4360 O.2    18  ALA18      -0.2715
     25  CB         9.7080  -24.2980   -0.7060 C.3    18  ALA18       0.0334
     26  N          8.0730  -26.9990   -0.1870 N.am   19  THR19      -0.1951
     27  CA         7.9670  -28.1810    0.6840 C.3    19  THR19       0.1897
     28  C          8.7690  -29.3740    0.1420 C.2    19  THR19       0.2313
     29  O          8.9360  -29.4870   -1.0550 O.2    19  THR19      -0.2863
     30  CB         6.4960  -28.6230    0.8760 C.3    19  THR19       0.1794
     31  OG1        6.4820  -29.8240    1.6370 O.3    19  THR19      -0.2208
     32  CG2        5.7840  -28.8610   -0.4760 C.3    19  THR19       0.0378
     33  N          8.1510  -32.5980    1.7930 N.3    21  SER21      -0.1217
     34  CA         7.4600  -33.6810    2.5180 C.3    21  SER21       0.1889
     35  C          7.2130  -34.9560    1.6780 C.2    21  SER21       0.2288
     36  O          6.8830  -35.9980    2.2460 O.2    21  SER21      -0.2866
     37  CB         6.1200  -33.1790    3.0980 C.3    21  SER21       0.2089
     38  OG         5.4110  -34.1200    3.7340 O.3    21  SER21      -0.2183
     39  N          4.7960  -24.5580   -4.2430 N.3    28  LEU28      -0.1245
     40  CA         3.3760  -24.2170   -4.4360 C.3    28  LEU28       0.1561
     41  C          3.3140  -22.9950   -5.3320 C.2    28  LEU28       0.2260
     42  O          3.6760  -21.9100   -4.9200 O.2    28  LEU28      -0.2867
     43  CB         2.6250  -23.9590   -3.1230 C.3    28  LEU28       0.0270
     44  CG         1.1040  -23.7690   -3.3080 C.3    28  LEU28       0.0019
     45  CD1        0.4700  -24.9810   -3.9580 C.3    28  LEU28       0.0001
     46  CD2        0.4300  -23.4670   -1.9730 C.3    28  LEU28       0.0001
     47  N          1.2960  -27.7210   -6.7680 N.3    39  LEU39      -0.1245
     48  CA         2.6560  -28.1300   -6.4510 C.3    39  LEU39       0.1561
     49  C          3.3630  -28.4990   -7.7330 C.2    39  LEU39       0.2260
     50  O          2.8220  -29.2610   -8.5230 O.2    39  LEU39      -0.2867
     51  CB         2.6620  -29.3440   -5.5300 C.3    39  LEU39       0.0270
     52  CG         2.2420  -29.0790   -4.0840 C.3    39  LEU39       0.0019
     53  CD1        2.2260  -30.3700   -3.2510 C.3    39  LEU39       0.0001
     54  CD2        3.1550  -28.0390   -3.4320 C.3    39  LEU39       0.0001
     55  N         11.6840  -15.9490   -5.4020 N.3    56  PHE56      -0.1241
     56  CA        11.3010  -16.5950   -4.1550 C.3    56  PHE56       0.1605
     57  C         12.4750  -16.6570   -3.1530 C.2    56  PHE56       0.2264
     58  O         12.3480  -16.2640   -1.9610 O.2    56  PHE56      -0.2867
     59  CB        10.8180  -18.0080   -4.4540 C.3    56  PHE56       0.0534
     60  CG        10.5260  -18.8170   -3.2230 C.ar   56  PHE56      -0.0203
     61  CD1        9.4320  -18.5020   -2.4190 C.ar   56  PHE56      -0.0042
     62  CD2       11.3340  -19.8630   -2.8470 C.ar   56  PHE56      -0.0042
     63  CE1        9.1650  -19.2470   -1.2710 C.ar   56  PHE56      -0.0003
     64  CE2       11.0710  -20.5980   -1.6950 C.ar   56  PHE56      -0.0003
     65  CZ         9.9760  -20.2800   -0.9030 C.ar   56  PHE56      -0.0000
     66  N         13.7890  -12.8870   -1.9780 N.3    59  GLU59      -0.1231
     67  CA        12.8460  -12.3400   -0.9630 C.3    59  GLU59       0.1699
     68  C         13.0800  -12.9340    0.4490 C.2    59  GLU59       0.2592
     69  O         13.0330  -12.2230    1.4520 O.2    59  GLU59      -0.2718
     70  CB        11.3830  -12.6040   -1.3820 C.3    59  GLU59       0.0402
     71  CG        10.3330  -12.0890   -0.4190 C.3    59  GLU59       0.1161
     72  CD        10.1000  -10.5960   -0.5240 C.2    59  GLU59       0.3649
     73  OE1       10.7910   -9.9260   -1.3180 O.co2  59  GLU59      -0.2457
     74  OE2        9.2130  -10.0840    0.1920 O.co2  59  GLU59      -0.2457
     75  N         13.3430  -14.2350    0.5190 N.am   60  ARG60      -0.1980
     76  CA        13.6770  -14.9180    1.7880 C.3    60  ARG60       0.1597
     77  C         15.1230  -14.7070    2.3320 C.2    60  ARG60       0.2287
     78  O         15.3500  -14.9200    3.5080 O.2    60  ARG60      -0.2864
     79  CB        13.3440  -16.4130    1.6560 C.3    60  ARG60       0.0334
     80  CG        11.8500  -16.6490    1.3990 C.3    60  ARG60       0.0492
     81  CD        11.4850  -18.0910    1.0970 C.3    60  ARG60       0.2205
     82  NE        12.1210  -19.0500    2.0150 N.pl3  60  ARG60      -0.0865
     83  CZ        11.6040  -19.5430    3.1490 C.cat  60  ARG60       0.5346
     84  NH1       12.3260  -20.3980    3.8650 N.pl3  60  ARG60       0.1354
     85  NH2       10.3880  -19.2140    3.5870 N.pl3  60  ARG60       0.1354
@<TRIPOS>BOND
     1    50    49    2
     2    49    48    1
     3     8     6    1
     4     6     5    1
     5    47    48    1
     6     1     2    1
     7    48    51    1
     8     2     5    1
     9     2     3    1
    10    51    52    1
    11     5     7    1
    12    55    56    1
    13    41    42    2
    14    41    40    1
    15    59    56    1
    16    59    60    1
    17    40    39    1
    18    40    43    1
    19     3     9   am
    20     3     4    2
    21    56    57    1
    22    52    54    1
    23    52    53    1
    24    45    44    1
    25     9    10    1
    26    14    16    1
    27    14    13    1
    28    44    43    1
    29    44    46    1
    30    60    62   ar
    31    60    61   ar
    32    57    58    2
    33    62    64   ar
    34    10    13    1
    35    10    11    1
    36    13    15    1
    37    61    63   ar
    38    20    19    2
    39    66    67    1
    40    17    11   am
    41    17    18    1
    42    64    65   ar
    43    11    12    2
    44    70    67    1
    45    70    71    1
    46    73    72   ar
    47    63    65   ar
    48    19    18    1
    49    19    21   am
    50    29    28    2
    51    67    68    1
    52    22    25    1
    53    22    21    1
    54    22    23    1
    55    72    71    1
    56    72    74   ar
    57    32    30    1
    58    26    23   am
    59    26    27    1
    60    28    27    1
    61    23    24    2
    62    68    75   am
    63    68    69    2
    64    75    76    1
    65    27    30    1
    66    30    31    1
    67    81    80    1
    68    81    82    1
    69    80    79    1
    70    79    76    1
    71    35    36    2
    72    35    34    1
    73    76    77    1
    74    33    34    1
    75    82    83    2
    76    77    78    2
    77    34    37    1
    78    37    38    1
    79    83    85    1
    80    83    84    1
