@<TRIPOS>MOLECULE
tmp/5t1hA00.pdb
 173 163 0 0 0
SMALL
GASTEIGER

@<TRIPOS>ATOM
      1  N         13.8950  -78.3060    1.2820 N.3    42  ARG42      -0.1245
      2  CA        13.4410  -77.3970    2.3390 C.3    42  ARG42       0.1563
      3  C         13.1540  -75.9950    1.7930 C.2    42  ARG42       0.2260
      4  O         13.5920  -75.6700    0.6840 O.2    42  ARG42      -0.2867
      5  CB        14.4360  -77.3670    3.5210 C.3    42  ARG42       0.0307
      6  CG        15.8540  -76.9010    3.1960 C.3    42  ARG42       0.0489
      7  CD        16.8130  -77.2930    4.3160 C.3    42  ARG42       0.2205
      8  NE        18.1300  -76.6670    4.1740 N.pl3  42  ARG42      -0.0865
      9  CZ        18.4360  -75.4470    4.6110 C.cat  42  ARG42       0.5346
     10  NH1       17.5190  -74.7020    5.2230 N.pl3  42  ARG42       0.1354
     11  NH2       19.6550  -74.9600    4.4320 N.pl3  42  ARG42       0.1354
     12  N         13.5540  -71.9170    1.7460 N.3    44  LEU44      -0.1231
     13  CA        14.6160  -70.9540    2.0560 C.3    44  LEU44       0.1696
     14  C         14.0450  -69.5790    2.3180 C.2    44  LEU44       0.2631
     15  O         14.6460  -68.7930    3.0440 O.2    44  LEU44      -0.2714
     16  CB        15.6710  -70.8970    0.9260 C.3    44  LEU44       0.0284
     17  CG        16.4890  -72.1960    0.7100 C.3    44  LEU44       0.0019
     18  CD1       17.3620  -72.0990   -0.5860 C.3    44  LEU44       0.0001
     19  CD2       17.3310  -72.5390    1.9410 C.3    44  LEU44       0.0001
     20  N         12.9150  -69.2790    1.6950 N.am   45  GLY45      -0.1732
     21  CA        12.2930  -67.9740    1.8450 C.2    45  GLY45       0.1340
     22  C         11.0100  -67.7830    1.0730 C.2    45  GLY45       0.2521
     23  O         10.6300  -68.6090    0.2450 O.2    45  GLY45      -0.2816
     24  N          7.4550  -64.5450   -5.1690 N.3    50  SER50      -0.1217
     25  CA         7.9890  -65.9110   -5.2160 C.3    50  SER50       0.1889
     26  C          8.1600  -66.5690   -3.8560 C.2    50  SER50       0.2288
     27  O          8.0510  -65.9250   -2.8160 O.2    50  SER50      -0.2866
     28  CB         9.3280  -65.9480   -5.9610 C.3    50  SER50       0.2089
     29  OG        10.3720  -65.3280   -5.2280 O.3    50  SER50      -0.2183
     30  N         11.0660  -69.5090   -2.3730 N.3    52  VAL52      -0.1245
     31  CA        12.3720  -70.0730   -2.6860 C.3    52  VAL52       0.1561
     32  C         12.6230  -71.3360   -1.8810 C.2    52  VAL52       0.2260
     33  O         12.3340  -71.3990   -0.6910 O.2    52  VAL52      -0.2867
     34  CB        13.5040  -69.0060   -2.5460 C.3    52  VAL52       0.0252
     35  CG1       14.8750  -69.5740   -2.9140 C.3    52  VAL52       0.0019
     36  CG2       13.1970  -67.7580   -3.3780 C.3    52  VAL52       0.0019
     37  N         15.2910  -75.0720   -1.4680 N.3    54  GLU54      -0.1245
     38  CA        16.4830  -75.8310   -1.7820 C.3    54  GLU54       0.1567
     39  C         15.9390  -77.1200   -2.4030 C.2    54  GLU54       0.2260
     40  O         14.9140  -77.6320   -1.9560 O.2    54  GLU54      -0.2867
     41  CB        17.3090  -76.1310   -0.5280 C.3    54  GLU54       0.0388
     42  CG        18.5800  -76.8960   -0.8500 C.3    54  GLU54       0.1160
     43  CD        19.3610  -77.3510    0.3630 C.2    54  GLU54       0.3649
     44  OE1       20.0720  -76.5160    0.9670 O.co2  54  GLU54      -0.2457
     45  OE2       19.2800  -78.5540    0.6930 O.co2  54  GLU54      -0.2457
     46  N         18.8290  -74.2900   -6.2330 N.3    65  VAL65      -0.1245
     47  CA        17.9210  -73.3240   -5.6240 C.3    65  VAL65       0.1561
     48  C         16.7580  -73.1390   -6.6090 C.2    65  VAL65       0.2260
     49  O         16.9790  -72.9140   -7.8060 O.2    65  VAL65      -0.2867
     50  CB        18.6380  -72.0140   -5.2190 C.3    65  VAL65       0.0252
     51  CG1       17.6380  -70.9090   -4.8940 C.3    65  VAL65       0.0019
     52  CG2       19.5790  -72.2640   -4.0310 C.3    65  VAL65       0.0019
     53  N         13.2000  -71.1530   -7.4290 N.3    67  LYS67      -0.1245
     54  CA        12.3720  -69.9560   -7.2500 C.3    67  LYS67       0.1561
     55  C         11.0460  -70.1810   -8.0030 C.2    67  LYS67       0.2260
     56  O         10.9750  -70.0460   -9.2370 O.2    67  LYS67      -0.2867
     57  CB        13.1050  -68.6710   -7.7160 C.3    67  LYS67       0.0271
     58  CG        12.2660  -67.3980   -7.5610 C.3    67  LYS67       0.0035
     59  CD        13.0210  -66.0750   -7.7150 C.3    67  LYS67       0.0206
     60  CE        13.4770  -65.8000   -9.1410 C.3    67  LYS67       0.1093
     61  NZ        14.0640  -64.4240   -9.2330 N.3    67  LYS67      -0.1314
     62  N         13.4490  -61.8190  -17.2830 N.3    80  GLU80      -0.1245
     63  CA        14.3980  -62.4100  -16.3410 C.3    80  GLU80       0.1567
     64  C         15.1330  -63.5830  -16.9690 C.2    80  GLU80       0.2260
     65  O         16.3660  -63.6310  -16.9150 O.2    80  GLU80      -0.2867
     66  CB        13.7010  -62.8450  -15.0530 C.3    80  GLU80       0.0388
     67  CG        14.7040  -63.2870  -13.9880 C.3    80  GLU80       0.1160
     68  CD        14.1550  -63.6380  -12.6200 C.2    80  GLU80       0.3649
     69  OE1       12.9370  -63.4700  -12.3900 O.co2  80  GLU80      -0.2457
     70  OE2       14.9570  -64.0750  -11.7660 O.co2  80  GLU80      -0.2457
     71  N         25.0640  -65.4570  -11.4040 N.3    94  ILE94      -0.1245
     72  CA        24.4040  -66.7170  -11.0550 C.3    94  ILE94       0.1561
     73  C         24.0460  -67.4840  -12.3370 C.2    94  ILE94       0.2260
     74  O         23.6730  -66.8740  -13.3210 O.2    94  ILE94      -0.2867
     75  CB        23.1590  -66.5030  -10.1280 C.3    94  ILE94       0.0252
     76  CG1       22.6930  -67.8500   -9.4680 C.3    94  ILE94       0.0019
     77  CG2       21.9730  -65.8090  -10.8900 C.3    94  ILE94       0.0019
     78  CD1       23.6410  -68.4130   -8.2770 C.3    94  ILE94       0.0001
     79  N         18.2890  -72.5290  -10.1670 N.3   112  PHE112     -0.1227
     80  CA        19.5870  -71.9010  -10.1170 C.3   112  PHE112      0.1736
     81  C         20.6300  -72.7560   -9.4800 C.2   112  PHE112      0.2595
     82  O         20.3470  -73.6450   -8.6760 O.2   112  PHE112     -0.2718
     83  CB        19.5020  -70.5630   -9.3270 C.3   112  PHE112      0.0547
     84  CG        18.5500  -69.5450   -9.9110 C.ar  112  PHE112     -0.0202
     85  CD1       18.9670  -68.6720  -10.9140 C.ar  112  PHE112     -0.0042
     86  CD2       17.2380  -69.4420   -9.4410 C.ar  112  PHE112     -0.0042
     87  CE1       18.0870  -67.7240  -11.4470 C.ar  112  PHE112     -0.0003
     88  CE2       16.3630  -68.4860   -9.9660 C.ar  112  PHE112     -0.0003
     89  CZ        16.7830  -67.6500  -10.9800 C.ar  112  PHE112     -0.0000
     90  N         21.8730  -72.4310   -9.8180 N.am  113  GLU113     -0.1965
     91  CA        23.1000  -72.9370   -9.2070 C.3   113  GLU113      0.1733
     92  C         22.9860  -72.5780   -7.6830 C.2   113  GLU113      0.2616
     93  O         22.4950  -71.4940   -7.3200 O.2   113  GLU113     -0.2715
     94  CB        24.2790  -72.1850   -9.8710 C.3   113  GLU113      0.0429
     95  CG        25.5410  -71.9990   -9.0440 C.3   113  GLU113      0.1163
     96  CD        26.4630  -70.8890   -9.5110 C.2   113  GLU113      0.3649
     97  OE1       27.6610  -70.9400   -9.1470 O.co2 113  GLU113     -0.2457
     98  OE2       26.0030  -69.9760  -10.2390 O.co2 113  GLU113     -0.2457
     99  N         23.3770  -73.5050   -6.8150 N.am  114  HIS114     -0.1959
    100  CA        23.3440  -73.2740   -5.3820 C.3   114  HIS114      0.1787
    101  C         24.6540  -72.6500   -4.9130 C.2   114  HIS114      0.2620
    102  O         25.7380  -73.0880   -5.3110 O.2   114  HIS114     -0.2715
    103  CB        23.0700  -74.5860   -4.6280 C.3   114  HIS114      0.0785
    104  CG        23.0820  -74.4470   -3.1330 C.ar  114  HIS114      0.0821
    105  ND1       24.2370  -74.6570   -2.4000 N.ar  114  HIS114     -0.2267
    106  CD2       22.0750  -74.1400   -2.2810 C.ar  114  HIS114      0.1154
    107  CE1       23.9050  -74.4480   -1.1320 C.ar  114  HIS114      0.1986
    108  NE2       22.6100  -74.1670   -1.0060 N.ar  114  HIS114     -0.2212
    109  N         24.5410  -71.6360   -4.0550 N.am  115  VAL115     -0.1963
    110  CA        25.6760  -70.9630   -3.4140 C.3   115  VAL115      0.1727
    111  C         25.4830  -71.1340   -1.9080 C.2   115  VAL115      0.2616
    112  O         24.4360  -70.7280   -1.3860 O.2   115  VAL115     -0.2715
    113  CB        25.8380  -69.4580   -3.8150 C.3   115  VAL115      0.0290
    114  CG1       27.0570  -68.8310   -3.1270 C.3   115  VAL115      0.0023
    115  CG2       25.9480  -69.2980   -5.3320 C.3   115  VAL115      0.0023
    116  N         26.4820  -71.7440   -1.2210 N.am  116  ASN116     -0.1958
    117  CA        26.4730  -71.9690    0.2350 C.3   116  ASN116      0.1819
    118  C         26.7310  -70.6180    0.9140 C.2   116  ASN116      0.2621
    119  O         27.8430  -70.3140    1.3480 O.2   116  ASN116     -0.2715
    120  CB        27.5160  -73.0260    0.6460 C.3   116  ASN116      0.1195
    121  CG        27.4760  -73.4230    2.1120 C.2   116  ASN116      0.2630
    122  OD1       26.5040  -73.1640    2.8370 O.2   116  ASN116     -0.2716
    123  ND2       28.5510  -74.0450    2.5920 N.am  116  ASN116     -0.0877
    124  N         25.6920  -69.8040    0.9690 N.am  117  ASN117     -0.1972
    125  CA        25.7700  -68.4610    1.5010 C.3   117  ASN117      0.1688
    126  C         25.8860  -68.3550    3.0270 C.2   117  ASN117      0.2292
    127  O         25.2900  -69.1440    3.7560 O.2   117  ASN117     -0.2864
    128  CB        24.5610  -67.6700    1.0190 C.3   117  ASN117      0.1181
    129  CG        24.6110  -66.2040    1.3130 C.2   117  ASN117      0.2629
    130  OD1       25.5090  -65.4830    0.8690 O.2   117  ASN117     -0.2716
    131  ND2       23.6220  -65.7270    2.0420 N.am  117  ASN117     -0.0877
    132  N         21.3360  -58.5940   -0.0220 N.3   159  HIS159     -0.1226
    133  CA        20.4820  -59.7630   -0.2490 C.3   159  HIS159      0.1752
    134  C         20.6420  -60.4210   -1.6170 C.2   159  HIS159      0.2596
    135  O         20.3790  -61.6240   -1.7410 O.2   159  HIS159     -0.2718
    136  CB        19.0170  -59.4090   -0.0150 C.3   159  HIS159      0.0759
    137  CG        18.6610  -59.3170    1.4330 C.ar  159  HIS159      0.0818
    138  ND1       17.6740  -58.4460    1.8770 N.ar  159  HIS159     -0.2268
    139  CD2       19.1820  -59.9740    2.4980 C.ar  159  HIS159      0.1154
    140  CE1       17.6290  -58.5960    3.1940 C.ar  159  HIS159      0.1986
    141  NE2       18.5220  -59.5030    3.6160 N.ar  159  HIS159     -0.2212
    142  N         21.0750  -59.6470   -2.6340 N.am  160  ASN160     -0.1974
    143  CA        21.2590  -60.1600   -3.9900 C.3   160  ASN160      0.1688
    144  C         22.7080  -60.5110   -4.2680 C.2   160  ASN160      0.2292
    145  O         23.0610  -60.8290   -5.3910 O.2   160  ASN160     -0.2864
    146  CB        20.6520  -59.2180   -5.0470 C.3   160  ASN160      0.1181
    147  CG        19.1550  -59.1750   -4.9140 C.2   160  ASN160      0.2629
    148  OD1       18.5440  -60.1030   -4.4080 O.2   160  ASN160     -0.2716
    149  ND2       18.5370  -58.0670   -5.2310 N.am  160  ASN160     -0.0877
    150  N         25.3210  -63.3110   -3.1520 N.3   162  MET162     -0.1245
    151  CA        25.5190  -64.5980   -2.4820 C.3   162  MET162      0.1570
    152  C         27.0100  -64.8480   -2.3320 C.2   162  MET162      0.2261
    153  O         27.7510  -64.7750   -3.3130 O.2   162  MET162     -0.2867
    154  CB        24.8190  -65.7390   -3.2610 C.3   162  MET162      0.0387
    155  CG        23.2850  -65.6820   -3.1980 C.3   162  MET162      0.0595
    156  SD        22.6570  -66.0490   -1.5460 S.3   162  MET162     -0.1393
    157  CE        21.3950  -64.8340   -1.3660 C.3   162  MET162      0.0692
    158  N         22.8840  -62.2790   -7.7850 N.3   173  ILE173     -0.1231
    159  CA        21.6310  -63.0060   -8.0640 C.3   173  ILE173      0.1692
    160  C         20.4450  -62.0670   -8.2670 C.2   173  ILE173      0.2592
    161  O         20.5890  -60.8420   -8.1730 O.2   173  ILE173     -0.2718
    162  CB        21.3370  -64.1000   -6.9630 C.3   173  ILE173      0.0266
    163  CG1       20.8170  -63.4570   -5.6420 C.3   173  ILE173      0.0019
    164  CG2       22.5660  -64.9870   -6.7200 C.3   173  ILE173      0.0020
    165  CD1       19.8580  -64.3850   -4.7220 C.3   173  ILE173      0.0001
    166  N         19.2620  -62.6810   -8.5020 N.am  174  ASP174     -0.1974
    167  CA        17.9420  -62.0820   -8.6490 C.3   174  ASP174      0.1709
    168  C         17.9360  -60.9630   -9.6920 C.2   174  ASP174      0.2293
    169  O         18.0230  -59.7600   -9.3940 O.2   174  ASP174     -0.2864
    170  CB        17.3130  -61.6540   -7.2970 C.3   174  ASP174      0.1436
    171  CG        15.7840  -61.5690   -7.3570 C.2   174  ASP174      0.3671
    172  OD1       15.2230  -61.4300   -8.4920 O.co2 174  ASP174     -0.2456
    173  OD2       15.1460  -61.7030   -6.3000 O.co2 174  ASP174     -0.2456
@<TRIPOS>BOND
     1    62    63    1
     2    64    65    2
     3    64    63    1
     4    63    66    1
     5    66    67    1
     6    67    68    1
     7    74    73    2
     8    68    69   ar
     9    68    70   ar
    10    73    72    1
    11    87    89   ar
    12    87    85   ar
    13    71    72    1
    14    72    75    1
    15    89    88   ar
    16    85    84   ar
    17    77    75    1
    18    98    96   ar
    19    79    80    1
    20    75    76    1
    21    80    81    1
    22    80    83    1
    23    88    86   ar
    24    84    86   ar
    25    84    83    1
    26    94    91    1
    27    94    95    1
    28    90    81   am
    29    90    91    1
    30   168   169    2
    31   168   167    1
    32    96    97   ar
    33    96    95    1
    34    81    82    2
    35    76    78    1
    36    56    55    2
    37    61    60    1
    38    91    92    1
    39    60    59    1
    40   167   166    1
    41   167   170    1
    42   166   160   am
    43   172   171   ar
    44   160   161    2
    45   160   159    1
    46   159   158    1
    47   159   162    1
    48    55    54    1
    49    49    48    2
    50    57    58    1
    51    57    54    1
    52    59    58    1
    53    92    93    2
    54    92    99   am
    55    53    54    1
    56   171   170    1
    57   171   173   ar
    58   162   164    1
    59   162   163    1
    60    99   100    1
    61    48    47    1
    62    46    47    1
    63    28    29    1
    64    28    25    1
    65   163   165    1
    66    47    50    1
    67   145   144    2
    68   100   101    1
    69   100   103    1
    70   115   113    1
    71   102   101    2
    72   149   147   am
    73    50    51    1
    74    50    52    1
    75    25    24    1
    76    25    26    1
    77   146   147    1
    78   146   143    1
    79   147   148    2
    80   101   109   am
    81   103   104    1
    82   144   143    1
    83   109   110    1
    84   143   142    1
    85    26    27    2
    86   113   110    1
    87   113   114    1
    88   110   111    1
    89    36    34    1
    90   153   152    2
    91   154   155    1
    92   154   151    1
    93   155   156    1
    94   150   151    1
    95   104   105   ar
    96   104   106   ar
    97    35    34    1
    98    31    34    1
    99    31    30    1
   100    31    32    1
   101   142   134   am
   102   151   152    1
   103    39    40    2
   104    39    38    1
   105   105   107   ar
   106   106   108   ar
   107   111   112    2
   108   111   116   am
   109    32    33    2
   110    38    37    1
   111    38    41    1
   112   135   134    2
   113   134   133    1
   114   156   157    1
   115   116   117    1
   116   107   108   ar
   117    42    41    1
   118    42    43    1
   119    18    17    1
   120   133   132    1
   121   133   136    1
   122   136   137    1
   123   117   120    1
   124   117   118    1
   125    23    22    2
   126    43    45   ar
   127    43    44   ar
   128   120   121    1
   129     4     3    2
   130    17    16    1
   131    17    19    1
   132   130   129    2
   133   118   124   am
   134   118   119    2
   135    16    13    1
   136   124   125    1
   137   128   129    1
   138   128   125    1
   139    22    21    1
   140     1     2    1
   141   129   131   am
   142   137   138   ar
   143   137   139   ar
   144   125   126    1
   145    20    21    2
   146    20    14    1
   147    12    13    1
   148     3     2    1
   149   138   140   ar
   150    13    14    1
   151   121   123   am
   152   121   122    2
   153    14    15    2
   154     2     5    1
   155   139   141   ar
   156   126   127    2
   157   140   141   ar
   158     6     5    1
   159     6     7    1
   160     8     7    1
   161     8     9    2
   162    11     9    1
   163     9    10    1
