@<TRIPOS>MOLECULE
tmp/5t1iA00.pdb
 119 119 0 0 0
SMALL
GASTEIGER

@<TRIPOS>ATOM
      1  N         26.9510   48.4480    8.0710 N.3    19  ILE19      -0.1231
      2  CA        27.1720   47.4850    6.9890 C.3    19  ILE19       0.1692
      3  C         27.2560   48.2950    5.6850 C.2    19  ILE19       0.2593
      4  O         28.1040   47.9680    4.7830 O.2    19  ILE19      -0.2718
      5  CB        26.0670   46.4130    6.8690 C.3    19  ILE19       0.0266
      6  CG1       25.9600   45.5670    8.1340 C.3    19  ILE19       0.0019
      7  CG2       26.3350   45.5220    5.6230 C.3    19  ILE19       0.0020
      8  CD1       24.8110   44.5810    8.1480 C.3    19  ILE19       0.0001
      9  N         26.4070   49.3130    5.5740 N.am   20  GLY20      -0.1942
     10  CA        26.2780   50.1180    4.3440 C.3    20  GLY20       0.2014
     11  C         25.5370   51.4040    4.5850 C.2    20  GLY20       0.2639
     12  O         24.9720   51.5820    5.6600 O.2    20  GLY20      -0.2714
     13  N         25.4510   52.2480    3.5490 N.am   21  ALA21      -0.1963
     14  CA        24.8220   53.5970    3.6290 C.3    21  ALA21       0.1728
     15  C         24.0260   53.8700    2.3790 C.2    21  ALA21       0.2616
     16  O         24.3360   53.3290    1.3010 O.2    21  ALA21      -0.2715
     17  CB        25.8550   54.7230    3.8420 C.3    21  ALA21       0.0334
     18  N         22.9600   54.6650    2.5340 N.am   22  THR22      -0.1951
     19  CA        22.2120   55.1660    1.3870 C.3    22  THR22       0.1897
     20  C         21.4250   56.4290    1.7140 C.2    22  THR22       0.2313
     21  O         20.9370   56.5910    2.8390 O.2    22  THR22      -0.2863
     22  CB        21.2480   54.1340    0.7840 C.3    22  THR22       0.1794
     23  OG1       20.3770   54.8650   -0.0880 O.3    22  THR22      -0.2208
     24  CG2       20.3750   53.4200    1.8810 C.3    22  THR22       0.0378
     25  N         22.7230   51.0760    7.2920 N.3    31  LEU31      -0.1245
     26  CA        22.2560   49.7370    7.6390 C.3    31  LEU31       0.1561
     27  C         23.0770   49.2920    8.8070 C.2    31  LEU31       0.2260
     28  O         24.2700   49.0570    8.6520 O.2    31  LEU31      -0.2867
     29  CB        22.4230   48.7690    6.4680 C.3    31  LEU31       0.0270
     30  CG        21.8380   47.3700    6.6530 C.3    31  LEU31       0.0019
     31  CD1       20.3350   47.4300    6.9480 C.3    31  LEU31       0.0001
     32  CD2       22.0800   46.4610    5.4620 C.3    31  LEU31       0.0001
     33  N         17.7620   49.8870    9.3050 N.3    42  LEU42      -0.1245
     34  CA        18.1660   51.2300    8.8290 C.3    42  LEU42       0.1561
     35  C         17.9610   52.2180    9.9400 C.2    42  LEU42       0.2260
     36  O         16.8760   52.2380   10.5820 O.2    42  LEU42      -0.2867
     37  CB        17.3350   51.6760    7.6030 C.3    42  LEU42       0.0270
     38  CG        17.6130   50.9540    6.3070 C.3    42  LEU42       0.0019
     39  CD1       16.4900   51.2430    5.3160 C.3    42  LEU42       0.0001
     40  CD2       18.9610   51.3710    5.7630 C.3    42  LEU42       0.0001
     41  N         33.0850   53.2740   10.1230 N.3    59  PHE59      -0.1227
     42  CA        32.5320   53.1060    8.7840 C.3    59  PHE59       0.1736
     43  C         33.2610   53.9620    7.7190 C.2    59  PHE59       0.2595
     44  O         33.6940   53.4430    6.7100 O.2    59  PHE59      -0.2718
     45  CB        31.0580   53.4440    8.7880 C.3    59  PHE59       0.0547
     46  CG        30.4080   53.3340    7.4380 C.ar   59  PHE59      -0.0202
     47  CD1       30.2140   52.0880    6.8320 C.ar   59  PHE59      -0.0042
     48  CD2       30.0770   54.4510    6.7270 C.ar   59  PHE59      -0.0042
     49  CE1       29.6380   52.0130    5.5620 C.ar   59  PHE59      -0.0003
     50  CE2       29.4850   54.3790    5.4660 C.ar   59  PHE59      -0.0003
     51  CZ        29.2360   53.1630    4.9010 C.ar   59  PHE59      -0.0000
     52  N         33.3410   55.2620    7.9770 N.am   60  TYR60      -0.1976
     53  CA        33.9910   56.1480    7.0170 C.3    60  TYR60       0.1639
     54  C         35.4730   55.8660    6.8520 C.2    60  TYR60       0.2290
     55  O         35.9820   55.8750    5.7250 O.2    60  TYR60      -0.2864
     56  CB        33.7510   57.5870    7.3890 C.3    60  TYR60       0.0560
     57  CG        32.3290   58.0630    7.2390 C.ar   60  TYR60      -0.0198
     58  CD1       31.6720   57.9580    6.0380 C.ar   60  TYR60      -0.0009
     59  CD2       31.6680   58.6770    8.2760 C.ar   60  TYR60      -0.0009
     60  CE1       30.3780   58.4160    5.8740 C.ar   60  TYR60       0.0417
     61  CE2       30.3880   59.1820    8.1450 C.ar   60  TYR60       0.0417
     62  CZ        29.7370   59.0320    6.9160 C.ar   60  TYR60       0.1957
     63  OH        28.4710   59.5030    6.7390 O.3    60  TYR60      -0.2866
     64  N         36.4560   53.3630    4.3670 N.3    63  ARG63      -0.1231
     65  CA        36.0740   53.6810    2.9850 C.3    63  ARG63       0.1694
     66  C         36.7210   54.9600    2.5420 C.2    63  ARG63       0.2592
     67  O         36.2450   55.5730    1.5940 O.2    63  ARG63      -0.2718
     68  CB        34.5800   53.7790    2.9440 C.3    63  ARG63       0.0321
     69  CG        33.9960   52.3810    2.9830 C.3    63  ARG63       0.0489
     70  CD        32.5540   52.3490    3.3780 C.3    63  ARG63       0.2205
     71  NE        32.1250   50.9180    3.4220 N.pl3  63  ARG63      -0.0865
     72  CZ        32.3110   50.0890    4.4690 C.cat  63  ARG63       0.5346
     73  NH1       31.8930   48.8360    4.4060 N.pl3  63  ARG63       0.1354
     74  NH2       32.8420   50.5070    5.6190 N.pl3  63  ARG63       0.1354
     75  N         37.9310   55.2430    3.0610 N.am   64  LEU64      -0.1966
     76  CA        38.7080   56.3770    2.5900 C.3    64  LEU64       0.1728
     77  C         39.3230   56.0520    1.2760 C.2    64  LEU64       0.2617
     78  O         39.8570   54.9570    1.1110 O.2    64  LEU64      -0.2715
     79  CB        39.8080   56.7890    3.5740 C.3    64  LEU64       0.0311
     80  CG        39.3130   57.1210    4.9430 C.3    64  LEU64       0.0022
     81  CD1       40.4970   57.6140    5.7570 C.3    64  LEU64       0.0001
     82  CD2       38.1710   58.1610    5.0310 C.3    64  LEU64       0.0001
     83  N         39.1770   56.9390    0.3060 N.am   65  THR65      -0.1937
     84  CA        39.8450   56.8020   -0.9790 C.3    65  THR65       0.2028
     85  C         40.5950   58.0880   -1.2210 C.2    65  THR65       0.2642
     86  O         40.1070   59.1930   -0.9210 O.2    65  THR65      -0.2714
     87  CB        38.8880   56.5410   -2.1620 C.3    65  THR65       0.1808
     88  OG1       37.8290   57.5190   -2.1930 O.3    65  THR65      -0.2208
     89  CG2       38.2130   55.1840   -2.0020 C.3    65  THR65       0.0379
     90  N         41.7760   57.9320   -1.7610 N.am   66  TRP66      -0.1959
     91  CA        42.6380   59.0470   -2.0870 C.3    66  TRP66       0.1771
     92  C         42.5670   59.3100   -3.5920 C.2    66  TRP66       0.2620
     93  O         43.0940   58.5610   -4.3650 O.2    66  TRP66      -0.2715
     94  CB        44.0440   58.7340   -1.6390 C.3    66  TRP66       0.0590
     95  CG        44.1740   58.5750   -0.1740 C.ar   66  TRP66       0.0006
     96  CD1       44.1430   57.4050    0.5180 C.ar   66  TRP66       0.0946
     97  CD2       44.2580   59.6190    0.8200 C.ar   66  TRP66       0.0152
     98  NE1       44.2160   57.6460    1.8790 N.ar   66  TRP66      -0.2442
     99  CE2       44.3630   58.9900    2.0790 C.ar   66  TRP66       0.0810
    100  CE3       44.3260   61.0050    0.7610 C.ar   66  TRP66       0.0012
    101  CZ2       44.4700   59.7080    3.2790 C.ar   66  TRP66       0.0191
    102  CZ3       44.4310   61.7470    1.9550 C.ar   66  TRP66       0.0001
    103  CH2       44.5090   61.0900    3.2120 C.ar   66  TRP66       0.0015
    104  N         41.8780   60.3800   -3.9830 N.am   67  HIS67      -0.1959
    105  CA        41.7690   60.7340   -5.4120 C.3    67  HIS67       0.1787
    106  C         43.0490   61.3220   -5.9960 C.2    67  HIS67       0.2620
    107  O         43.3770   61.1380   -7.1760 O.2    67  HIS67      -0.2715
    108  CB        40.4900   61.5710   -5.5840 C.3    67  HIS67       0.0785
    109  CG        39.2590   60.7760   -5.3010 C.ar   67  HIS67       0.0821
    110  ND1       38.2560   60.6040   -6.2320 N.ar   67  HIS67      -0.2267
    111  CD2       38.9490   59.9600   -4.2630 C.ar   67  HIS67       0.1154
    112  CE1       37.3330   59.7940   -5.7340 C.ar   67  HIS67       0.1986
    113  NE2       37.7360   59.3830   -4.5430 N.ar   67  HIS67      -0.2212
    114  N         43.8240   61.9850   -5.1410 N.am   68  SER68      -0.1950
    115  CA        45.0660   62.6130   -5.4920 C.3    68  SER68       0.1924
    116  C         45.9980   62.4700   -4.3170 C.2    68  SER68       0.2314
    117  O         47.1920   62.6460   -4.5300 O.2    68  SER68      -0.2863
    118  CB        44.8900   64.1180   -5.8730 C.3    68  SER68       0.2116
    119  OG        44.0030   64.8120   -5.0020 O.3    68  SER68      -0.2180
@<TRIPOS>BOND
     1   107   106    2
     2   110   112   ar
     3   110   109   ar
     4   106   105    1
     5   106   114   am
     6   118   115    1
     7   118   119    1
     8   112   113   ar
     9   108   105    1
    10   108   109    1
    11   115   114    1
    12   115   116    1
    13   105   104    1
    14   109   111   ar
    15   113   111   ar
    16   117   116    2
    17    93    92    2
    18   104    92   am
    19    92    91    1
    20    88    87    1
    21    87    89    1
    22    87    84    1
    23    91    90    1
    24    91    94    1
    25    90    85   am
    26    94    95    1
    27    85    84    1
    28    85    86    2
    29    84    83    1
    30    95    96   ar
    31    95    97   ar
    32    23    22    1
    33    83    77   am
    34    96    98   ar
    35   100    97   ar
    36   100   102   ar
    37    22    19    1
    38    22    24    1
    39    97    99   ar
    40    78    77    2
    41    77    76    1
    42    16    15    2
    43    19    20    1
    44    19    18    1
    45    67    66    2
    46    20    21    2
    47    98    99   ar
    48   102   103   ar
    49    99   101   ar
    50    15    18   am
    51    15    14    1
    52    66    65    1
    53    66    75   am
    54    76    75    1
    55    76    79    1
    56    68    69    1
    57    68    65    1
    58    69    70    1
    59    65    64    1
    60   103   101   ar
    61    70    71    1
    62    71    72    2
    63    13    14    1
    64    13    11   am
    65    79    80    1
    66    14    17    1
    67    10    11    1
    68    10     9    1
    69    73    72    1
    70    72    74    1
    71    11    12    2
    72     4     3    2
    73    51    50   ar
    74    51    49   ar
    75    80    82    1
    76    80    81    1
    77    39    38    1
    78    32    30    1
    79    50    48   ar
    80    49    47   ar
    81     9     3   am
    82     7     5    1
    83     3     2    1
    84    55    54    2
    85    40    38    1
    86    60    58   ar
    87    60    62   ar
    88    58    57   ar
    89    38    37    1
    90    29    30    1
    91    29    26    1
    92    30    31    1
    93    44    43    2
    94    48    46   ar
    95    63    62    1
    96    47    46   ar
    97    54    53    1
    98     5     2    1
    99     5     6    1
   100    62    61   ar
   101     2     1    1
   102    53    56    1
   103    53    52    1
   104    57    56    1
   105    57    59   ar
   106    25    26    1
   107    46    45    1
   108    37    34    1
   109    26    27    1
   110    43    52   am
   111    43    42    1
   112     6     8    1
   113    61    59   ar
   114    28    27    2
   115    42    45    1
   116    42    41    1
   117    34    33    1
   118    34    35    1
   119    35    36    2
