@<TRIPOS>MOLECULE
tmp/5t1pD00.pdb
 121 115 0 0 0
SMALL
GASTEIGER

@<TRIPOS>ATOM
      1  N         74.9330   39.5740   11.5350 N.3    21  ALA21      -0.1245
      2  CA        76.3850   39.6080   11.4320 C.3    21  ALA21       0.1562
      3  C         77.1770   39.0780   12.6090 C.2    21  ALA21       0.2260
      4  O         78.2670   39.5660   12.8620 O.2    21  ALA21      -0.2867
      5  CB        76.8450   41.0360   11.0950 C.3    21  ALA21       0.0290
      6  N         77.8460   35.4150   13.0370 N.3    22  PRO22      -0.2116
      7  CA        77.8600   33.9850   12.7330 C.3    22  PRO22       0.1372
      8  C         78.7950   33.2540   13.6800 C.2    22  PRO22       0.2244
      9  O         79.6650   33.8700   14.2770 O.2    22  PRO22      -0.2868
     10  CB        78.3950   33.9240   11.2950 C.3    22  PRO22       0.0268
     11  CG        79.3310   35.0960   11.2410 C.3    22  PRO22       0.0207
     12  CD        78.6270   36.1740   12.0370 C.3    22  PRO22       0.0892
     13  N         82.7110   33.7270   13.3940 N.3    25  TRP25      -0.1241
     14  CA        83.4090   35.0120   13.6610 C.3    25  TRP25       0.1605
     15  C         83.6960   35.1920   15.1620 C.2    25  TRP25       0.2264
     16  O         82.7420   35.3360   15.9780 O.2    25  TRP25      -0.2867
     17  CB        82.5160   36.1580   13.2110 C.3    25  TRP25       0.0550
     18  CG        83.1190   37.5040   13.3340 C.ar   25  TRP25       0.0003
     19  CD1       83.3320   38.2340   14.4750 C.ar   25  TRP25       0.0946
     20  CD2       83.5400   38.3190   12.2530 C.ar   25  TRP25       0.0152
     21  NE1       83.8850   39.4510   14.1510 N.ar   25  TRP25      -0.2442
     22  CE2       84.0270   39.5220   12.7960 C.ar   25  TRP25       0.0810
     23  CE3       83.5440   38.1450   10.8600 C.ar   25  TRP25       0.0012
     24  CZ2       84.5250   40.5580   12.0010 C.ar   25  TRP25       0.0191
     25  CZ3       84.0210   39.1720   10.0740 C.ar   25  TRP25       0.0001
     26  CH2       84.5040   40.3730   10.6500 C.ar   25  TRP25       0.0015
     27  N         73.9800   36.5710    8.4310 N.3    47  ASP47      -0.1239
     28  CA        75.2930   37.2010    8.2490 C.3    47  ASP47       0.1674
     29  C         75.2490   38.2610    7.1610 C.2    47  ASP47       0.2266
     30  O         74.5430   38.0990    6.1650 O.2    47  ASP47      -0.2867
     31  CB        76.3690   36.1380    7.9610 C.3    47  ASP47       0.1410
     32  CG        77.8150   36.6520    8.2080 C.2    47  ASP47       0.3668
     33  OD1       78.0010   37.6750    8.8990 O.co2  47  ASP47      -0.2456
     34  OD2       78.7770   35.9620    7.8050 O.co2  47  ASP47      -0.2456
     35  N         77.3680   42.4700    6.1300 N.3    48  SER48      -0.1202
     36  CA        78.3690   43.4790    6.4730 C.3    48  SER48       0.2020
     37  C         77.8410   44.6820    7.2740 C.2    48  SER48       0.2619
     38  O         76.6580   44.9830    7.2440 O.2    48  SER48      -0.2717
     39  CB        79.0460   43.9130    5.1980 C.3    48  SER48       0.2103
     40  OG        79.7980   42.7910    4.7390 O.3    48  SER48      -0.2182
     41  N         78.7480   45.3760    7.9630 N.am   49  SER49      -0.1951
     42  CA        78.3810   46.5210    8.8030 C.3    49  SER49       0.1924
     43  C         77.3490   47.4970    8.2040 C.2    49  SER49       0.2314
     44  O         76.2970   47.7260    8.8210 O.2    49  SER49      -0.2863
     45  CB        79.6180   47.2710    9.3250 C.3    49  SER49       0.2116
     46  OG        80.3810   46.4760   10.2210 O.3    49  SER49      -0.2180
     47  N         73.9050   45.9180    7.8920 N.3    52  GLU52      -0.1245
     48  CA        73.1820   45.7620    9.1670 C.3    52  GLU52       0.1567
     49  C         72.3900   47.0320    9.5400 C.2    52  GLU52       0.2260
     50  O         71.2210   46.9630    9.9480 O.2    52  GLU52      -0.2867
     51  CB        74.1370   45.4720   10.3160 C.3    52  GLU52       0.0388
     52  CG        75.0300   44.2780   10.1310 C.3    52  GLU52       0.1160
     53  CD        75.9510   44.1390   11.2810 C.2    52  GLU52       0.3649
     54  OE1       75.4130   43.9790   12.3990 O.co2  52  GLU52      -0.2457
     55  OE2       77.1970   44.1040   11.0660 O.co2  52  GLU52      -0.2457
     56  N         76.5450   43.5360   14.9980 N.3    69  ASP69      -0.1239
     57  CA        77.9480   43.7980   15.4140 C.3    69  ASP69       0.1674
     58  C         78.5710   44.5540   14.2390 C.2    69  ASP69       0.2266
     59  O         78.6220   44.0380   13.0950 O.2    69  ASP69      -0.2867
     60  CB        78.6620   42.4520   15.6910 C.3    69  ASP69       0.1410
     61  CG        80.0600   42.5860   16.3400 C.2    69  ASP69       0.3668
     62  OD1       80.2410   43.4130   17.2810 O.co2  69  ASP69      -0.2456
     63  OD2       80.9840   41.7980   15.9660 O.co2  69  ASP69      -0.2456
     64  N         81.9700   46.5140    4.1780 N.3   148  ALA148     -0.1231
     65  CA        82.5640   45.8070    5.2900 C.3   148  ALA148      0.1694
     66  C         83.5950   46.5850    6.1010 C.2   148  ALA148      0.2592
     67  O         84.4860   47.1980    5.5450 O.2   148  ALA148     -0.2718
     68  CB        83.1790   44.5190    4.7980 C.3   148  ALA148      0.0304
     69  N         83.5140   46.4950    7.4210 N.am  149  ALA149     -0.1966
     70  CA        84.4810   47.1880    8.2840 C.3   149  ALA149      0.1728
     71  C         85.8780   46.5390    8.1460 C.2   149  ALA149      0.2616
     72  O         86.9050   47.2000    8.2400 O.2   149  ALA149     -0.2715
     73  CB        84.0200   47.1630    9.7300 C.3   149  ALA149      0.0334
     74  N         85.8940   45.2370    7.9080 N.am  150  GLN150     -0.1977
     75  CA        87.1220   44.5010    7.7470 C.3   150  GLN150      0.1601
     76  C         87.9070   45.0080    6.5320 C.2   150  GLN150      0.2287
     77  O         89.1340   45.1710    6.6030 O.2   150  GLN150     -0.2864
     78  CB        86.8310   42.9930    7.6640 C.3   150  GLN150      0.0394
     79  CG        88.0710   42.1390    7.5540 C.3   150  GLN150      0.0908
     80  CD        87.7750   40.6630    7.6650 C.2   150  GLN150      0.2608
     81  OE1       88.4080   39.9720    8.4530 O.2   150  GLN150     -0.2717
     82  NE2       86.8540   40.1640    6.8520 N.am  150  GLN150     -0.0878
     83  N         84.8750   39.3210   -0.0560 N.3   189  ASP189     -0.1225
     84  CA        85.4040   38.9330    1.2620 C.3   189  ASP189      0.1805
     85  C         85.9280   37.5020    1.3490 C.2   189  ASP189      0.2597
     86  O         85.4530   36.6210    0.6580 O.2   189  ASP189     -0.2718
     87  CB        84.3040   39.0620    2.3450 C.3   189  ASP189      0.1424
     88  CG        83.8270   40.4970    2.5640 C.2   189  ASP189      0.3668
     89  OD1       84.6550   41.3830    2.8800 O.co2 189  ASP189     -0.2456
     90  OD2       82.5950   40.7270    2.4950 O.co2 189  ASP189     -0.2456
     91  N         86.9120   37.2960    2.2160 N.am  190  VAL190     -0.1980
     92  CA        87.4150   35.9660    2.5080 C.3   190  VAL190      0.1595
     93  C         86.3040   35.2520    3.2970 C.2   190  VAL190      0.2287
     94  O         85.7080   35.8370    4.2280 O.2   190  VAL190     -0.2864
     95  CB        88.6860   35.9920    3.3900 C.3   190  VAL190      0.0276
     96  CG1       89.0770   34.5870    3.8570 C.3   190  VAL190      0.0022
     97  CG2       89.8500   36.5970    2.6370 C.3   190  VAL190      0.0022
     98  N         89.6370   30.9790   10.8510 N.3   213  TYR213     -0.1241
     99  CA        89.3500   30.3530    9.5520 C.3   213  TYR213      0.1605
    100  C         90.3810   29.2760    9.1960 C.2   213  TYR213      0.2264
    101  O         90.0140   28.2310    8.6780 O.2   213  TYR213     -0.2867
    102  CB        89.2220   31.3620    8.3790 C.3   213  TYR213      0.0534
    103  CG        88.1520   32.4410    8.4840 C.ar  213  TYR213     -0.0201
    104  CD1       87.0330   32.3060    9.3420 C.ar  213  TYR213     -0.0009
    105  CD2       88.1830   33.5530    7.6270 C.ar  213  TYR213     -0.0009
    106  CE1       86.0480   33.2930    9.4050 C.ar  213  TYR213      0.0417
    107  CE2       87.1900   34.5290    7.6680 C.ar  213  TYR213      0.0417
    108  CZ        86.1310   34.4150    8.5680 C.ar  213  TYR213      0.1957
    109  OH        85.1450   35.3840    8.5860 O.3   213  TYR213     -0.2866
    110  N         85.1330   45.9110   17.0730 N.3   236  TYR236     -0.1241
    111  CA        83.6950   45.8370   16.8300 C.3   236  TYR236      0.1605
    112  C         82.8470   46.1160   18.0580 C.2   236  TYR236      0.2264
    113  O         83.2160   45.7910   19.1950 O.2   236  TYR236     -0.2867
    114  CB        83.3340   44.4640   16.2360 C.3   236  TYR236      0.0534
    115  CG        83.8250   44.2870   14.8300 C.ar  236  TYR236     -0.0201
    116  CD1       85.1810   44.0820   14.5650 C.ar  236  TYR236     -0.0009
    117  CD2       82.9530   44.3770   13.7600 C.ar  236  TYR236     -0.0009
    118  CE1       85.6530   43.9780   13.2730 C.ar  236  TYR236      0.0417
    119  CE2       83.4080   44.2760   12.4700 C.ar  236  TYR236      0.0417
    120  CZ        84.7670   44.0990   12.2210 C.ar  236  TYR236      0.1957
    121  OH        85.2070   43.9540   10.9320 O.3   236  TYR236     -0.2866
@<TRIPOS>BOND
     1    83    84    1
     2    86    85    2
     3    84    85    1
     4    84    87    1
     5    85    91   am
     6    91    92    1
     7    87    88    1
     8    90    88   ar
     9    92    93    1
    10    92    95    1
    11    88    89   ar
    12    97    95    1
    13    93    94    2
    14    95    96    1
    15    64    65    1
    16    40    39    1
    17    68    65    1
    18    39    36    1
    19    65    66    1
    20    67    66    2
    21    66    69   am
    22    35    36    1
    23    30    29    2
    24    36    37    1
    25    76    77    2
    26    76    75    1
    27    82    80   am
    28    29    28    1
    29    38    37    2
    30    37    41   am
    31    69    70    1
    32    79    78    1
    33    79    80    1
    34   105   107   ar
    35   105   103   ar
    36    78    75    1
    37    80    81    2
    38   107   108   ar
    39    75    74    1
    40    34    32   ar
    41    47    48    1
    42    74    71   am
    43    31    32    1
    44    31    28    1
    45    41    42    1
    46    71    72    2
    47    71    70    1
    48    43    42    1
    49    43    44    2
    50    32    33   ar
    51    28    27    1
    52    70    73    1
    53   102   103    1
    54   102    99    1
    55   103   104   ar
    56   108   109    1
    57   108   106   ar
    58   101   100    2
    59    42    45    1
    60    48    49    1
    61    48    51    1
    62   100    99    1
    63    45    46    1
    64   104   106   ar
    65    49    50    2
    66    99    98    1
    67    25    26   ar
    68    25    23   ar
    69    52    51    1
    70    52    53    1
    71    26    24   ar
    72    23    20   ar
    73   121   120    1
    74    55    53   ar
    75     5     2    1
    76    11    10    1
    77    11    12    1
    78    53    54   ar
    79    10     7    1
    80     2     1    1
    81     2     3    1
    82    24    22   ar
    83    12     6    1
    84   120   119   ar
    85   120   118   ar
    86    20    22   ar
    87    20    18   ar
    88   119   117   ar
    89     3     4    2
    90     7     6    1
    91     7     8    1
    92    22    21   ar
    93    59    58    2
    94    17    18    1
    95    17    14    1
    96   118   116   ar
    97    18    19   ar
    98    13    14    1
    99    14    15    1
   100     8     9    2
   101   117   115   ar
   102    21    19   ar
   103    58    57    1
   104   116   115   ar
   105   115   114    1
   106    56    57    1
   107    15    16    2
   108    57    60    1
   109    60    61    1
   110    63    61   ar
   111   114   111    1
   112    61    62   ar
   113   111   110    1
   114   111   112    1
   115   112   113    2
