@<TRIPOS>MOLECULE
tmp/5t1pH00.pdb
 86 82 0 0 0
SMALL
GASTEIGER

@<TRIPOS>ATOM
      1  N         29.0410   -3.3630   -4.3410 N.3    20  ALA20      -0.1245
      2  CA        28.5620   -2.6960   -3.1320 C.3    20  ALA20       0.1562
      3  C         29.4060   -1.5350   -2.6060 C.2    20  ALA20       0.2260
      4  O         29.4690   -1.3120   -1.4020 O.2    20  ALA20      -0.2867
      5  CB        28.3300   -3.7250   -2.0370 C.3    20  ALA20       0.0290
      6  N         29.0450    1.8900   -3.7240 N.3    21  PRO21      -0.2116
      7  CA        28.4390    3.0270   -4.4300 C.3    21  PRO21       0.1372
      8  C         28.9640    4.3770   -3.9460 C.2    21  PRO21       0.2244
      9  O         29.4050    4.5170   -2.7960 O.2    21  PRO21      -0.2868
     10  CB        26.9530    2.9050   -4.0880 C.3    21  PRO21       0.0268
     11  CG        26.9410    2.2270   -2.7700 C.3    21  PRO21       0.0207
     12  CD        28.0350    1.2080   -2.8920 C.3    21  PRO21       0.0892
     13  N         27.8100    5.8750   -0.4630 N.3    24  TRP24      -0.1241
     14  CA        28.1780    5.2650    0.8280 C.3    24  TRP24       0.1605
     15  C         29.6230    5.5930    1.2280 C.2    24  TRP24       0.2264
     16  O         30.5100    5.4830    0.3960 O.2    24  TRP24      -0.2867
     17  CB        28.0650    3.7370    0.7170 C.3    24  TRP24       0.0550
     18  CG        28.3970    3.0060    1.9670 C.ar   24  TRP24       0.0003
     19  CD1       29.5560    2.3630    2.2450 C.ar   24  TRP24       0.0946
     20  CD2       27.5620    2.8630    3.1390 C.ar   24  TRP24       0.0152
     21  NE1       29.5110    1.8220    3.5080 N.ar   24  TRP24      -0.2442
     22  CE2       28.2960    2.1080    4.0790 C.ar   24  TRP24       0.0810
     23  CE3       26.2690    3.2870    3.4730 C.ar   24  TRP24       0.0012
     24  CZ2       27.7860    1.7750    5.3410 C.ar   24  TRP24       0.0191
     25  CZ3       25.7590    2.9570    4.7310 C.ar   24  TRP24       0.0001
     26  CH2       26.5190    2.2060    5.6460 C.ar   24  TRP24       0.0015
     27  N         25.6740   -2.0850   -6.8120 N.3    46  ASP46      -0.1239
     28  CA        25.3540   -2.2150   -5.3910 C.3    46  ASP46       0.1674
     29  C         24.5130   -3.4570   -5.0700 C.2    46  ASP46       0.2266
     30  O         23.6710   -3.8660   -5.8650 O.2    46  ASP46      -0.2867
     31  CB        24.6750   -0.9260   -4.8990 C.3    46  ASP46       0.1410
     32  CG        24.6320   -0.8030   -3.3790 C.2    46  ASP46       0.3668
     33  OD1       25.3270   -1.5470   -2.6570 O.co2  46  ASP46      -0.2456
     34  OD2       23.9030    0.0840   -2.8960 O.co2  46  ASP46      -0.2456
     35  N         23.8980   -6.5940   -1.4430 N.3    47  SER47      -0.1202
     36  CA        24.1180   -6.9540   -0.0450 C.3    47  SER47       0.2020
     37  C         25.3530   -7.8090    0.0770 C.2    47  SER47       0.2619
     38  O         25.8180   -8.4320   -0.9010 O.2    47  SER47      -0.2717
     39  CB        22.9260   -7.7390    0.4670 C.3    47  SER47       0.2103
     40  OG        22.8460   -8.9400   -0.2670 O.3    47  SER47      -0.2182
     41  N         25.8680   -7.8990    1.2890 N.am   48  SER48      -0.1951
     42  CA        27.0780   -8.6570    1.4940 C.3    48  SER48       0.1924
     43  C         26.9360  -10.1060    1.0530 C.2    48  SER48       0.2314
     44  O         27.8300  -10.6390    0.3950 O.2    48  SER48      -0.2863
     45  CB        27.5420   -8.5510    2.9350 C.3    48  SER48       0.2116
     46  OG        27.9070   -7.2090    3.2110 O.3    48  SER48      -0.2180
     47  N         27.3070  -10.5860   -2.6980 N.3    51  GLU51      -0.1245
     48  CA        28.6800  -10.3900   -3.1830 C.3    51  GLU51       0.1567
     49  C         29.4570  -11.6780   -3.1050 C.2    51  GLU51       0.2260
     50  O         30.1980  -12.0320   -4.0420 O.2    51  GLU51      -0.2867
     51  CB        29.4230   -9.3460   -2.3470 C.3    51  GLU51       0.0388
     52  CG        28.8140   -7.9600   -2.3890 C.3    51  GLU51       0.1160
     53  CD        29.5660   -6.9660   -1.5120 C.2    51  GLU51       0.3649
     54  OE1       30.7670   -6.7160   -1.7390 O.co2  51  GLU51      -0.2457
     55  OE2       28.9240   -6.3880   -0.6050 O.co2  51  GLU51      -0.2457
     56  N         32.9010   -4.6650   -0.8920 N.3    67  ASP67      -0.1225
     57  CA        32.9390   -4.1620    0.4940 C.3    67  ASP67       0.1805
     58  C         31.8170   -4.8710    1.2110 C.2    67  ASP67       0.2598
     59  O         30.6690   -4.8840    0.7700 O.2    67  ASP67      -0.2718
     60  CB        32.7410   -2.6630    0.6320 C.3    67  ASP67       0.1424
     61  CG        33.0120   -2.1870    2.0460 C.2    67  ASP67       0.3668
     62  OD1       34.0170   -2.6700    2.6620 O.co2  67  ASP67      -0.2456
     63  OD2       32.2610   -1.3060    2.5190 O.co2  67  ASP67      -0.2456
     64  N         32.1470   -5.3920    2.3680 N.am   68  VAL68      -0.1966
     65  CA        31.2460   -6.2320    3.1000 C.3    68  VAL68       0.1727
     66  C         31.3330   -6.0510    4.6260 C.2    68  VAL68       0.2616
     67  O         32.3140   -5.5170    5.1450 O.2    68  VAL68      -0.2715
     68  CB        31.6970   -7.6220    2.6530 C.3    68  VAL68       0.0290
     69  CG1       31.6320   -8.6380    3.7340 C.3    68  VAL68       0.0023
     70  CG2       30.9960   -8.0550    1.3660 C.3    68  VAL68       0.0023
     71  N         30.2980   -6.4860    5.3350 N.am   69  GLY69      -0.1955
     72  CA        30.2830   -6.4430    6.7960 C.3    69  GLY69       0.1869
     73  C         31.3820   -7.3440    7.3540 C.2    69  GLY69       0.2309
     74  O         31.6860   -8.3800    6.7690 O.2    69  GLY69      -0.2863
     75  N         33.7740   -2.8150    8.3930 N.3   234  TYR234     -0.1241
     76  CA        33.5340   -3.2150    7.0150 C.3   234  TYR234      0.1605
     77  C         34.8800   -3.5180    6.3920 C.2   234  TYR234      0.2264
     78  O         35.8740   -2.8800    6.7220 O.2   234  TYR234     -0.2867
     79  CB        32.8280   -2.0570    6.3110 C.3   234  TYR234      0.0534
     80  CG        31.5570   -1.7020    7.0380 C.ar  234  TYR234     -0.0201
     81  CD1       31.5990   -0.9190    8.1770 C.ar  234  TYR234     -0.0009
     82  CD2       30.3180   -2.2340    6.6390 C.ar  234  TYR234     -0.0009
     83  CE1       30.4430   -0.6370    8.9040 C.ar  234  TYR234      0.0417
     84  CE2       29.1500   -1.9650    7.3580 C.ar  234  TYR234      0.0417
     85  CZ        29.2230   -1.1610    8.4850 C.ar  234  TYR234      0.1957
     86  OH        28.0960   -0.8670    9.2160 O.3   234  TYR234     -0.2866
@<TRIPOS>BOND
     1    27    28    1
     2    30    29    2
     3    28    29    1
     4    28    31    1
     5    31    32    1
     6     7    10    1
     7     7     8    1
     8     7     6    1
     9     1     2    1
    10    10    11    1
    11    50    49    2
    12     8     9    2
    13     6    12    1
    14    32    34   ar
    15    32    33   ar
    16    48    49    1
    17    48    47    1
    18    48    51    1
    19     2     3    1
    20     2     5    1
    21    12    11    1
    22     3     4    2
    23    52    51    1
    24    52    53    1
    25    54    53   ar
    26    53    55   ar
    27    35    36    1
    28    38    37    2
    29    56    57    1
    30    13    14    1
    31    40    39    1
    32    36    37    1
    33    36    39    1
    34    37    41   am
    35    44    43    2
    36    16    15    2
    37    57    60    1
    38    57    58    1
    39    60    61    1
    40    17    14    1
    41    17    18    1
    42    59    58    2
    43    14    15    1
    44    43    42    1
    45    58    64   am
    46    41    42    1
    47    70    68    1
    48    42    45    1
    49    18    19   ar
    50    18    20   ar
    51    61    63   ar
    52    61    62   ar
    53    19    21   ar
    54    64    65    1
    55    68    65    1
    56    68    69    1
    57    45    46    1
    58    65    66    1
    59    20    23   ar
    60    20    22   ar
    61    23    25   ar
    62    21    22   ar
    63    22    24   ar
    64    66    67    2
    65    66    71   am
    66    25    26   ar
    67    71    72    1
    68    24    26   ar
    69    79    76    1
    70    79    80    1
    71    77    78    2
    72    77    76    1
    73    82    80   ar
    74    82    84   ar
    75    74    73    2
    76    72    73    1
    77    76    75    1
    78    80    81   ar
    79    84    85   ar
    80    81    83   ar
    81    85    83   ar
    82    85    86    1
