@<TRIPOS>MOLECULE
tmp/5t1pG00.pdb
 98 94 0 0 0
SMALL
GASTEIGER

@<TRIPOS>ATOM
      1  N         88.0330   -0.6710    2.5030 N.3    19  ALA19      -0.1245
      2  CA        88.4580   -0.8980    1.1290 C.3    19  ALA19       0.1562
      3  C         87.5470   -0.3520    0.0340 C.2    19  ALA19       0.2260
      4  O         87.4020   -0.9690   -0.9860 O.2    19  ALA19      -0.2867
      5  CB        88.7180   -2.4040    0.9230 C.3    19  ALA19       0.0290
      6  N         87.7880    3.0030   -1.2630 N.3    20  PRO20      -0.2116
      7  CA        88.2860    4.3780   -1.4030 C.3    20  PRO20       0.1372
      8  C         87.6940    5.1110   -2.6220 C.2    20  PRO20       0.2244
      9  O         87.2660    4.4890   -3.6350 O.2    20  PRO20      -0.2868
     10  CB        89.7620    4.1810   -1.6290 C.3    20  PRO20       0.0268
     11  CG        89.8150    2.9020   -2.4270 C.3    20  PRO20       0.0207
     12  CD        88.7810    2.0330   -1.7660 C.3    20  PRO20       0.0892
     13  N         88.6990    4.2140   -6.3480 N.3    23  TRP23      -0.1241
     14  CA        88.3940    2.9250   -6.9640 C.3    23  TRP23       0.1605
     15  C         86.9560    2.8310   -7.3730 C.2    23  TRP23       0.2264
     16  O         86.0900    3.1020   -6.5760 O.2    23  TRP23      -0.2867
     17  CB        88.6850    1.8170   -5.9730 C.3    23  TRP23       0.0550
     18  CG        88.4100    0.4760   -6.5360 C.ar   23  TRP23       0.0003
     19  CD1       87.2780   -0.2650   -6.3830 C.ar   23  TRP23       0.0946
     20  CD2       89.2680   -0.2620   -7.3960 C.ar   23  TRP23       0.0152
     21  NE1       87.3850   -1.4390   -7.0810 N.ar   23  TRP23      -0.2442
     22  CE2       88.6000   -1.4610   -7.7180 C.ar   23  TRP23       0.0810
     23  CE3       90.5200   -0.0070   -7.9580 C.ar   23  TRP23       0.0012
     24  CZ2       89.1510   -2.4130   -8.5450 C.ar   23  TRP23       0.0191
     25  CZ3       91.0950   -0.9850   -8.7680 C.ar   23  TRP23       0.0001
     26  CH2       90.4120   -2.1830   -9.0370 C.ar   23  TRP23       0.0015
     27  N         91.2810    1.9440    3.6450 N.3    45  ASP45      -0.1239
     28  CA        91.6120    1.0260    2.5370 C.3    45  ASP45       0.1674
     29  C         92.4990   -0.1030    3.0530 C.2    45  ASP45       0.2266
     30  O         93.2230    0.0770    4.0150 O.2    45  ASP45      -0.2867
     31  CB        92.2870    1.7890    1.3980 C.3    45  ASP45       0.1410
     32  CG        92.2420    1.0260    0.0750 C.2    45  ASP45       0.3668
     33  OD1       91.5300   -0.0200   -0.0430 O.co2  45  ASP45      -0.2456
     34  OD2       92.8990    1.4990   -0.8670 O.co2  45  ASP45      -0.2456
     35  N         93.4600   -4.7530    2.1460 N.3    46  SER46      -0.1202
     36  CA        93.2040   -5.8800    1.2230 C.3    46  SER46       0.2020
     37  C         91.9500   -6.6960    1.6030 C.2    46  SER46       0.2619
     38  O         91.4900   -6.6430    2.7610 O.2    46  SER46      -0.2717
     39  CB        94.4030   -6.8260    1.2240 C.3    46  SER46       0.2103
     40  OG        94.4410   -7.5670    2.4270 O.3    46  SER46      -0.2182
     41  N         91.4270   -7.5070    0.6800 N.am   47  SER47      -0.1951
     42  CA        90.2650   -8.3140    1.0120 C.3    47  SER47       0.1924
     43  C         90.5170   -9.1940    2.2420 C.2    47  SER47       0.2314
     44  O         89.6860   -9.2550    3.1520 O.2    47  SER47      -0.2863
     45  CB        89.8090   -9.1680   -0.1760 C.3    47  SER47       0.2116
     46  OG        89.4430   -8.3560   -1.2710 O.3    47  SER47      -0.2180
     47  N         90.2710   -7.2240    5.4630 N.3    50  GLU50      -0.1245
     48  CA        88.8850   -6.8520    5.8020 C.3    50  GLU50       0.1567
     49  C         88.2020   -7.9770    6.5980 C.2    50  GLU50       0.2260
     50  O         87.5610   -7.7300    7.6420 O.2    50  GLU50      -0.2867
     51  CB        88.0170   -6.5600    4.5770 C.3    50  GLU50       0.0388
     52  CG        88.4630   -5.3900    3.7180 C.3    50  GLU50       0.1160
     53  CD        87.6440   -5.2450    2.4660 C.2    50  GLU50       0.3649
     54  OE1       86.5320   -4.6720    2.5180 O.co2  50  GLU50      -0.2457
     55  OE2       88.1730   -5.5840    1.3850 O.co2  50  GLU50      -0.2457
     56  N         84.2910   -4.2690    0.6430 N.3    67  ASP67      -0.1225
     57  CA        84.2310   -4.6780   -0.7600 C.3    67  ASP67       0.1805
     58  C         85.4330   -5.6100   -0.9670 C.2    67  ASP67       0.2598
     59  O         86.6070   -5.2520   -0.6470 O.2    67  ASP67      -0.2718
     60  CB        84.2950   -3.4830   -1.7110 C.3    67  ASP67       0.1424
     61  CG        84.0540   -3.8680   -3.1850 C.2    67  ASP67       0.3668
     62  OD1       83.0130   -4.5220   -3.4650 O.co2  67  ASP67      -0.2456
     63  OD2       84.8810   -3.4920   -4.0620 O.co2  67  ASP67      -0.2456
     64  N         85.1280   -6.8180   -1.4420 N.am   68  VAL68      -0.1966
     65  CA        86.1200   -7.8570   -1.6090 C.3    68  VAL68       0.1727
     66  C         85.9800   -8.5690   -2.9560 C.2    68  VAL68       0.2616
     67  O         84.9370   -8.4970   -3.5990 O.2    68  VAL68      -0.2715
     68  CB        85.9840   -8.9040   -0.4730 C.3    68  VAL68       0.0290
     69  CG1       86.0580   -8.2220    0.9030 C.3    68  VAL68       0.0023
     70  CG2       84.6650   -9.6390   -0.5480 C.3    68  VAL68       0.0023
     71  N         87.0430   -9.2500   -3.3660 N.am   69  GLY69      -0.1955
     72  CA        87.0180  -10.0660   -4.5820 C.3    69  GLY69       0.1869
     73  C         85.9740  -11.1630   -4.3940 C.2    69  GLY69       0.2309
     74  O         85.6360  -11.5360   -3.2610 O.2    69  GLY69      -0.2863
     75  N         79.6660   -5.3600   -9.5900 N.3   108  TYR108     -0.1241
     76  CA        80.4060   -5.0670  -10.8160 C.3   108  TYR108      0.1605
     77  C         81.3730   -6.2040  -11.0910 C.2   108  TYR108      0.2264
     78  O         81.6890   -7.0250  -10.2130 O.2   108  TYR108     -0.2867
     79  CB        81.0780   -3.6660  -10.7630 C.3   108  TYR108      0.0534
     80  CG        82.1090   -3.5000   -9.6500 C.ar  108  TYR108     -0.0201
     81  CD1       81.7230   -3.3050   -8.3320 C.ar  108  TYR108     -0.0009
     82  CD2       83.4810   -3.4960   -9.9370 C.ar  108  TYR108     -0.0009
     83  CE1       82.6770   -3.1580   -7.3140 C.ar  108  TYR108      0.0417
     84  CE2       84.4340   -3.3340   -8.9410 C.ar  108  TYR108      0.0417
     85  CZ        84.0220   -3.1620   -7.6360 C.ar  108  TYR108      0.1957
     86  OH        84.9690   -3.0710   -6.6680 O.3   108  TYR108     -0.2866
     87  N         83.4610   -8.2260   -7.8460 N.3   234  TYR234     -0.1241
     88  CA        83.6990   -7.7380   -6.4700 C.3   234  TYR234      0.1605
     89  C         82.3880   -7.5870   -5.7160 C.2   234  TYR234      0.2264
     90  O         81.3910   -7.1540   -6.2890 O.2   234  TYR234     -0.2867
     91  CB        84.4210   -6.4210   -6.5450 C.3   234  TYR234      0.0534
     92  CG        85.6400   -6.5400   -7.3900 C.ar  234  TYR234     -0.0201
     93  CD1       85.5350   -6.4010   -8.7650 C.ar  234  TYR234     -0.0009
     94  CD2       86.8720   -6.8770   -6.8480 C.ar  234  TYR234     -0.0009
     95  CE1       86.6340   -6.5290   -9.5960 C.ar  234  TYR234      0.0417
     96  CE2       87.9900   -7.0080   -7.6720 C.ar  234  TYR234      0.0417
     97  CZ        87.8550   -6.8360   -9.0460 C.ar  234  TYR234      0.1957
     98  OH        88.9170   -6.9750   -9.9220 O.3   234  TYR234     -0.2866
@<TRIPOS>BOND
     1    77    76    1
     2    77    78    2
     3    76    79    1
     4    76    75    1
     5    79    80    1
     6    82    80   ar
     7    82    84   ar
     8    98    97    1
     9    80    81   ar
    10    95    97   ar
    11    95    93   ar
    12    97    96   ar
    13    26    25   ar
    14    26    24   ar
    15    84    85   ar
    16    25    23   ar
    17    93    92   ar
    18    24    22   ar
    19    81    83   ar
    20    23    20   ar
    21    87    88    1
    22    22    20   ar
    23    22    21   ar
    24    96    94   ar
    25    85    83   ar
    26    85    86    1
    27    20    18   ar
    28    92    94   ar
    29    92    91    1
    30    15    14    1
    31    15    16    2
    32    21    19   ar
    33    14    13    1
    34    14    17    1
    35    91    88    1
    36    18    19   ar
    37    18    17    1
    38    88    89    1
    39    90    89    2
    40    72    73    1
    41    72    71    1
    42    73    74    2
    43    63    61   ar
    44     9     8    2
    45    67    66    2
    46    62    61   ar
    47    71    66   am
    48    61    60    1
    49    66    65    1
    50     8     7    1
    51    11    12    1
    52    11    10    1
    53    12     6    1
    54    60    57    1
    55    10     7    1
    56    65    64    1
    57    65    68    1
    58    64    58   am
    59     7     6    1
    60    46    45    1
    61     4     3    2
    62    58    57    1
    63    58    59    2
    64    34    32   ar
    65    57    56    1
    66    70    68    1
    67    68    69    1
    68    45    42    1
    69    33    32   ar
    70     3     2    1
    71    32    31    1
    72    41    42    1
    73    41    37   am
    74     5     2    1
    75    42    43    1
    76     2     1    1
    77    36    39    1
    78    36    37    1
    79    36    35    1
    80    39    40    1
    81    55    53   ar
    82    31    28    1
    83    37    38    2
    84    43    44    2
    85    53    54   ar
    86    53    52    1
    87    28    29    1
    88    28    27    1
    89    29    30    2
    90    52    51    1
    91    51    48    1
    92    47    48    1
    93    48    49    1
    94    49    50    2
