@<TRIPOS>MOLECULE
tmp/5t1sB00.pdb
 200 189 0 0 0
SMALL
GASTEIGER

@<TRIPOS>ATOM
      1  N          1.2930   -7.5750   19.9870 N.3    25  ILE25      -0.1245
      2  CA         1.3440   -6.1100   19.8790 C.3    25  ILE25       0.1561
      3  C          2.7470   -5.6760   19.3840 C.2    25  ILE25       0.2260
      4  O          3.3820   -4.8030   19.9800 O.2    25  ILE25      -0.2867
      5  CB         0.9480   -5.4370   21.2430 C.3    25  ILE25       0.0252
      6  CG1       -0.2620   -6.1350   21.9230 C.3    25  ILE25       0.0019
      7  CG2        0.6200   -3.9430   21.0540 C.3    25  ILE25       0.0019
      8  CD1       -0.2000   -6.0990   23.3760 C.3    25  ILE25       0.0001
      9  N         -3.3030   -9.0660   21.9910 N.3    31  LYS31      -0.1231
     10  CA        -2.9830  -10.1630   22.9070 C.3    31  LYS31       0.1693
     11  C         -1.6710   -9.9270   23.6390 C.2    31  LYS31       0.2592
     12  O         -0.7320   -9.3480   23.0900 O.2    31  LYS31      -0.2718
     13  CB        -2.9110  -11.5090   22.1820 C.3    31  LYS31       0.0285
     14  CG        -3.1050  -12.7100   23.1090 C.3    31  LYS31       0.0035
     15  CD        -3.0730  -14.0370   22.3600 C.3    31  LYS31       0.0206
     16  CE        -1.7030  -14.3460   21.7880 C.3    31  LYS31       0.1093
     17  NZ        -1.5900  -15.7280   21.2550 N.3    31  LYS31      -0.1314
     18  N         -1.6330  -10.3820   24.8870 N.am   32  MET32      -0.1965
     19  CA        -0.4940  -10.2580   25.7850 C.3    32  MET32       0.1736
     20  C         -0.0540  -11.5900   26.4180 C.2    32  MET32       0.2617
     21  O          1.1330  -11.7940   26.6500 O.2    32  MET32      -0.2715
     22  CB        -0.9010   -9.2920   26.8780 C.3    32  MET32       0.0427
     23  CG        -0.8640   -7.8980   26.4750 C.3    32  MET32       0.0599
     24  SD        -1.4350   -6.8850   27.8340 S.3    32  MET32      -0.1393
     25  CE        -0.5140   -5.5970   27.5800 C.3    32  MET32       0.0692
     26  N         -1.0080  -12.4740   26.7170 N.am   33  GLY33      -0.1955
     27  CA        -0.7780  -13.7750   27.3360 C.3    33  GLY33       0.1869
     28  C         -1.9370  -14.6790   26.9280 C.2    33  GLY33       0.2309
     29  O         -2.9200  -14.1840   26.3700 O.2    33  GLY33      -0.2863
     30  N         -5.2470  -12.5040   28.4090 N.3    40  VAL40      -0.1245
     31  CA        -5.0050  -11.1240   28.8310 C.3    40  VAL40       0.1561
     32  C         -4.8300  -10.2750   27.5530 C.2    40  VAL40       0.2260
     33  O         -4.3410  -10.8060   26.5600 O.2    40  VAL40      -0.2867
     34  CB        -3.8540  -10.9900   29.8920 C.3    40  VAL40       0.0252
     35  CG1       -3.8920  -12.1230   30.9090 C.3    40  VAL40       0.0019
     36  CG2       -2.4890  -10.9280   29.2600 C.3    40  VAL40       0.0019
     37  N         -4.5670   -3.8420   31.4660 N.3    51  ALA51      -0.1245
     38  CA        -4.4770   -5.2300   31.0500 C.3    51  ALA51       0.1562
     39  C         -5.8350   -5.8380   31.3750 C.2    51  ALA51       0.2260
     40  O         -6.2760   -5.7510   32.5190 O.2    51  ALA51      -0.2867
     41  CB        -3.3780   -5.9420   31.8220 C.3    51  ALA51       0.0290
     42  N         -8.1780   -9.2130   31.4870 N.3    53  LYS53      -0.1245
     43  CA        -8.1730  -10.6740   31.4700 C.3    53  LYS53       0.1561
     44  C         -9.5850  -11.2120   31.2480 C.2    53  LYS53       0.2260
     45  O        -10.3790  -11.2320   32.1870 O.2    53  LYS53      -0.2867
     46  CB        -7.5630  -11.2460   32.7680 C.3    53  LYS53       0.0271
     47  CG        -7.4090  -12.7790   32.7590 C.3    53  LYS53       0.0035
     48  CD        -7.5080  -13.4040   34.1380 C.3    53  LYS53       0.0206
     49  CE        -6.2790  -13.1890   34.9870 C.3    53  LYS53       0.1093
     50  NZ        -6.4540  -13.8000   36.3320 N.3    53  LYS53      -0.1314
     51  N        -10.5240  -14.1390   42.9980 N.3    64  GLU64      -0.1245
     52  CA        -9.4950  -13.1790   42.5930 C.3    64  GLU64       0.1567
     53  C         -9.8850  -11.7290   42.9110 C.2    64  GLU64       0.2260
     54  O         -9.0000  -10.9440   43.2470 O.2    64  GLU64      -0.2867
     55  CB        -9.1330  -13.3450   41.1090 C.3    64  GLU64       0.0388
     56  CG        -7.9320  -12.5100   40.6760 C.3    64  GLU64       0.1160
     57  CD        -6.9850  -13.1300   39.6630 C.2    64  GLU64       0.3649
     58  OE1       -7.3520  -14.1400   39.0190 O.co2  64  GLU64      -0.2457
     59  OE2       -5.8790  -12.5700   39.4830 O.co2  64  GLU64      -0.2457
     60  N         -7.6430   -9.7090   45.7890 N.3    68  MET68      -0.1245
     61  CA        -7.2190   -8.3590   45.3840 C.3    68  MET68       0.1570
     62  C         -7.8600   -7.2600   46.2040 C.2    68  MET68       0.2261
     63  O         -7.2220   -6.2290   46.4440 O.2    68  MET68      -0.2867
     64  CB        -7.5670   -8.0990   43.9080 C.3    68  MET68       0.0387
     65  CG        -6.6950   -8.8460   42.9470 C.3    68  MET68       0.0595
     66  SD        -5.0580   -8.0950   42.8420 S.3    68  MET68      -0.1393
     67  CE        -4.5730   -8.6720   41.3060 C.3    68  MET68       0.0692
     68  N          0.3140   -6.9140   41.9620 N.3    77  VAL77      -0.1245
     69  CA        -0.3030   -6.1440   40.8660 C.3    77  VAL77       0.1561
     70  C         -1.6240   -5.5530   41.3470 C.2    77  VAL77       0.2260
     71  O         -2.3300   -6.1570   42.1580 O.2    77  VAL77      -0.2867
     72  CB        -0.4990   -6.9020   39.5340 C.3    77  VAL77       0.0252
     73  CG1        0.8280   -7.3690   38.9490 C.3    77  VAL77       0.0019
     74  CG2       -1.4770   -8.0560   39.6880 C.3    77  VAL77       0.0019
     75  N         -6.5540   -4.6780   35.1480 N.3    93  TYR93      -0.1227
     76  CA        -5.4120   -4.3690   36.0270 C.3    93  TYR93       0.1736
     77  C         -4.6450   -3.1680   35.5410 C.2    93  TYR93       0.2595
     78  O         -4.7850   -2.7840   34.3800 O.2    93  TYR93      -0.2718
     79  CB        -4.4220   -5.5520   36.0800 C.3    93  TYR93       0.0548
     80  CG        -5.0510   -6.8900   36.3750 C.ar   93  TYR93      -0.0200
     81  CD1       -5.5000   -7.7120   35.3480 C.ar   93  TYR93      -0.0009
     82  CD2       -5.2100   -7.3350   37.6820 C.ar   93  TYR93      -0.0009
     83  CE1       -6.1040   -8.9380   35.6130 C.ar   93  TYR93       0.0417
     84  CE2       -5.8000   -8.5670   37.9590 C.ar   93  TYR93       0.0417
     85  CZ        -6.2380   -9.3710   36.9210 C.ar   93  TYR93       0.1957
     86  OH        -6.8070  -10.5960   37.1860 O.3    93  TYR93      -0.2866
     87  N         -3.7610   -2.6170   36.4040 N.am   94  VAL94      -0.1966
     88  CA        -2.8560   -1.5360   36.0080 C.3    94  VAL94       0.1727
     89  C         -1.8420   -2.2110   35.0700 C.2    94  VAL94       0.2616
     90  O         -1.3950   -3.3190   35.3580 O.2    94  VAL94      -0.2715
     91  CB        -2.1520   -0.8700   37.2240 C.3    94  VAL94       0.0290
     92  CG1       -1.0780    0.1190   36.7760 C.3    94  VAL94       0.0023
     93  CG2       -3.1670   -0.1580   38.1020 C.3    94  VAL94       0.0023
     94  N         -1.5360   -1.5720   33.9410 N.am   95  TYR95      -0.1960
     95  CA        -0.5930   -2.0950   32.9550 C.3    95  TYR95       0.1771
     96  C          0.8600   -2.0060   33.4850 C.2    95  TYR95       0.2619
     97  O          1.2770   -0.9900   34.0290 O.2    95  TYR95      -0.2715
     98  CB        -0.7500   -1.3360   31.6250 C.3    95  TYR95       0.0574
     99  CG         0.2520   -1.7050   30.5560 C.ar   95  TYR95      -0.0198
    100  CD1        0.1320   -2.8840   29.8430 C.ar   95  TYR95      -0.0009
    101  CD2        1.2760   -0.8370   30.2040 C.ar   95  TYR95      -0.0009
    102  CE1        1.0390   -3.2140   28.8400 C.ar   95  TYR95       0.0417
    103  CE2        2.1790   -1.1560   29.1940 C.ar   95  TYR95       0.0417
    104  CZ         2.0700   -2.3600   28.5300 C.ar   95  TYR95       0.1957
    105  OH         2.9480   -2.7370   27.5430 O.3    95  TYR95      -0.2866
    106  N          1.5770   -3.1130   33.3410 N.am   96  MET96      -0.1964
    107  CA         2.9610   -3.3450   33.7240 C.3    96  MET96       0.1722
    108  C          3.8160   -3.2430   32.4630 C.2    96  MET96       0.2458
    109  O          3.9320   -4.2270   31.7400 O.2    96  MET96      -0.2730
    110  CB         3.0610   -4.7400   34.3700 C.3    96  MET96       0.0427
    111  CG         2.2220   -4.8490   35.6240 C.3    96  MET96       0.0599
    112  SD         2.9080   -3.8250   36.9660 S.3    96  MET96      -0.1393
    113  CE         1.9220   -2.3610   36.8650 C.3    96  MET96       0.0692
    114  N          4.3760   -2.0530   32.1690 N.am   97  PRO97      -0.2716
    115  CA         5.1120   -1.8570   30.9130 C.3    97  PRO97       0.1536
    116  C          6.3480   -2.7000   30.6640 C.2    97  PRO97       0.2599
    117  O          6.7710   -2.7660   29.5060 O.2    97  PRO97      -0.2715
    118  CB         5.4350   -0.3610   30.9220 C.3    97  PRO97       0.0310
    119  CG         5.4360    0.0150   32.3640 C.3    97  PRO97       0.0237
    120  CD         4.2920   -0.7760   32.9100 C.3    97  PRO97       0.0939
    121  N          6.9280   -3.3460   31.7110 N.am   98  ASN98      -0.1959
    122  CA         8.0940   -4.2080   31.5340 C.3    98  ASN98       0.1819
    123  C          7.8000   -5.6900   31.5430 C.2    98  ASN98       0.2622
    124  O          8.7380   -6.4630   31.5870 O.2    98  ASN98      -0.2715
    125  CB         9.2290   -3.7930   32.4700 C.3    98  ASN98       0.1195
    126  CG         9.7730   -2.4800   31.9860 C.2    98  ASN98       0.2630
    127  OD1       10.1090   -2.3340   30.7980 O.2    98  ASN98      -0.2716
    128  ND2        9.8140   -1.4810   32.8440 N.am   98  ASN98      -0.0877
    129  N          6.5060   -6.0980   31.4020 N.am   99  GLY99      -0.1940
    130  CA         6.0740   -7.4950   31.2510 C.3    99  GLY99       0.2014
    131  C          6.4510   -8.3570   32.3900 C.2    99  GLY99       0.2639
    132  O          6.5700   -7.8310   33.4760 O.2    99  GLY99      -0.2714
    133  N          6.6500   -9.6980   32.1530 N.am  100  SER100     -0.1949
    134  CA         6.9920  -10.6650   33.1880 C.3   100  SER100      0.1924
    135  C          8.4900  -10.8400   33.3440 C.2   100  SER100      0.2314
    136  O          9.2540  -10.5110   32.4400 O.2   100  SER100     -0.2863
    137  CB         6.3130  -12.0100   32.9390 C.3   100  SER100      0.2116
    138  OG         6.9470  -12.7750   31.9340 O.3   100  SER100     -0.2180
    139  N          9.8620  -13.2310   30.6340 N.3   103  ASP103     -0.1225
    140  CA        10.1440  -12.5360   29.3770 C.3   103  ASP103      0.1805
    141  C         11.4140  -11.6990   29.4250 C.2   103  ASP103      0.2597
    142  O         12.1350  -11.6440   28.4340 O.2   103  ASP103     -0.2718
    143  CB         8.9730  -11.6410   28.9920 C.3   103  ASP103      0.1424
    144  CG         7.6960  -12.3970   28.6890 C.2   103  ASP103      0.3668
    145  OD1        7.7390  -13.6520   28.6090 O.co2 103  ASP103     -0.2456
    146  OD2        6.6710  -11.7470   28.5030 O.co2 103  ASP103     -0.2456
    147  N         11.6840  -11.0440   30.5440 N.am  104  ARG104     -0.1979
    148  CA        12.8960  -10.2350   30.6680 C.3   104  ARG104      0.1597
    149  C         14.1240  -11.1190   30.8390 C.2   104  ARG104      0.2287
    150  O         15.1820  -10.7500   30.3250 O.2   104  ARG104     -0.2864
    151  CB        12.7610   -9.1670   31.7780 C.3   104  ARG104      0.0334
    152  CG        11.6100   -8.1560   31.5080 C.3   104  ARG104      0.0492
    153  CD        11.8720   -7.1920   30.3570 C.3   104  ARG104      0.2205
    154  NE        11.6810   -7.7770   29.0220 N.pl3 104  ARG104     -0.0865
    155  CZ        10.5050   -8.0560   28.4570 C.cat 104  ARG104      0.5346
    156  NH1        9.3670   -7.8440   29.1200 N.pl3 104  ARG104      0.1354
    157  NH2       10.4570   -8.5790   27.2430 N.pl3 104  ARG104      0.1354
    158  N         12.8490  -11.4030   25.5960 N.3   108  LEU108     -0.1231
    159  CA        11.7770  -11.4730   24.6210 C.3   108  LEU108      0.1693
    160  C         11.5740  -10.1050   23.9460 C.2   108  LEU108      0.2592
    161  O         11.6150   -9.0720   24.6160 O.2   108  LEU108     -0.2718
    162  CB        10.4880  -11.9450   25.3170 C.3   108  LEU108      0.0284
    163  CG         9.2770  -12.2270   24.4320 C.3   108  LEU108      0.0019
    164  CD1        9.5520  -13.3750   23.4610 C.3   108  LEU108      0.0001
    165  CD2        8.0700  -12.5600   25.2840 C.3   108  LEU108      0.0001
    166  N         11.4250  -10.1060   22.6140 N.am  109  ASP109     -0.1974
    167  CA        11.2310   -8.9000   21.8000 C.3   109  ASP109      0.1709
    168  C         12.4230   -7.9380   21.7860 C.2   109  ASP109      0.2293
    169  O         12.2480   -6.7570   21.5040 O.2   109  ASP109     -0.2864
    170  CB         9.9140   -8.1770   22.1780 C.3   109  ASP109      0.1436
    171  CG         8.7010   -9.0510   21.9900 C.2   109  ASP109      0.3671
    172  OD1        8.6450   -9.7850   20.9720 O.co2 109  ASP109     -0.2456
    173  OD2        7.8010   -8.9970   22.8430 O.co2 109  ASP109     -0.2456
    174  N          6.7340  -16.2160   35.2600 N.3   146  ALA146     -0.1245
    175  CA         5.6610  -15.6660   34.3970 C.3   146  ALA146      0.1562
    176  C          4.6320  -14.8960   35.2450 C.2   146  ALA146      0.2260
    177  O          3.9270  -14.0640   34.7050 O.2   146  ALA146     -0.2867
    178  CB         4.9500  -16.7840   33.6300 C.3   146  ALA146      0.0290
    179  N          5.4240   -9.7150   37.5770 N.3   149  LEU149     -0.1245
    180  CA         5.3810   -8.6310   36.6050 C.3   149  LEU149      0.1561
    181  C          6.2640   -7.4750   37.0050 C.2   149  LEU149      0.2260
    182  O          6.6520   -7.3660   38.1670 O.2   149  LEU149     -0.2867
    183  CB         3.9390   -8.1900   36.3280 C.3   149  LEU149      0.0270
    184  CG         2.9630   -9.3190   35.9570 C.3   149  LEU149      0.0019
    185  CD1        1.6900   -8.7470   35.4160 C.3   149  LEU149      0.0001
    186  CD2        3.5200  -10.2670   34.8810 C.3   149  LEU149      0.0001
    187  N          1.5400  -11.5230   40.5680 N.3   159  SER159     -0.1202
    188  CA         0.2720  -11.5180   39.8420 C.3   159  SER159      0.2020
    189  C         -0.3570  -12.8930   39.8260 C.2   159  SER159      0.2618
    190  O          0.2430  -13.8610   40.2770 O.2   159  SER159     -0.2717
    191  CB         0.4910  -11.0440   38.4100 C.3   159  SER159      0.2103
    192  OG         1.2410  -11.9690   37.6450 O.3   159  SER159     -0.2182
    193  N         -1.5840  -12.9470   39.3190 N.am  160  ASP160     -0.1973
    194  CA        -2.3870  -14.1440   39.1130 C.3   160  ASP160      0.1709
    195  C         -2.7380  -14.8570   40.4190 C.2   160  ASP160      0.2293
    196  O         -2.0720  -15.8040   40.8200 O.2   160  ASP160     -0.2864
    197  CB        -1.7190  -15.0660   38.0780 C.3   160  ASP160      0.1436
    198  CG        -2.6800  -15.9940   37.3560 C.2   160  ASP160      0.3671
    199  OD1       -3.7970  -16.2470   37.8950 O.co2 160  ASP160     -0.2456
    200  OD2       -2.3200  -16.4790   36.2590 O.co2 160  ASP160     -0.2456
@<TRIPOS>BOND
     1     3     2    1
     2     3     4    2
     3     2     1    1
     4     2     5    1
     5   172   171   ar
     6     7     5    1
     7     5     6    1
     8    17    16    1
     9   169   168    2
    10   168   167    1
    11    16    15    1
    12   167   170    1
    13   167   166    1
    14     6     8    1
    15   171   170    1
    16   171   173   ar
    17     9    10    1
    18    13    10    1
    19    13    14    1
    20    15    14    1
    21   166   160   am
    22    10    11    1
    23    12    11    2
    24   164   163    1
    25    11    18   am
    26   160   161    2
    27   160   159    1
    28   163   165    1
    29   163   162    1
    30   159   162    1
    31   159   158    1
    32    18    19    1
    33    19    20    1
    34    19    22    1
    35    29    28    2
    36    20    21    2
    37    20    26   am
    38    23    22    1
    39    23    24    1
    40    33    32    2
    41    26    27    1
    42    28    27    1
    43   157   155    1
    44   105   104    1
    45    32    31    1
    46    25    24    1
    47    30    31    1
    48   142   141    2
    49   155   154    2
    50   155   156    1
    51   146   144   ar
    52   104   102   ar
    53   104   103   ar
    54   145   144   ar
    55   144   143    1
    56    31    34    1
    57   102   100   ar
    58   143   140    1
    59   154   153    1
    60   103   101   ar
    61    36    34    1
    62   140   141    1
    63   140   139    1
    64   141   147   am
    65   117   116    2
    66   100    99   ar
    67    34    35    1
    68   101    99   ar
    69   150   149    2
    70   153   152    1
    71   147   148    1
    72    99    98    1
    73   116   115    1
    74   116   121   am
    75   148   149    1
    76   148   151    1
    77   127   126    2
    78   115   118    1
    79   115   114    1
    80   118   119    1
    81    38    39    1
    82    38    37    1
    83    38    41    1
    84    44    43    1
    85    44    45    2
    86   130   129    1
    87   130   131    1
    88    39    40    2
    89   129   123   am
    90    43    42    1
    91    43    46    1
    92   152   151    1
    93   122   123    1
    94   122   121    1
    95   122   125    1
    96   123   124    2
    97    98    95    1
    98   109   108    2
    99   138   137    1
   100   126   125    1
   101   126   128   am
   102   133   131   am
   103   133   134    1
   104   114   108   am
   105   114   120    1
   106   119   120    1
   107   131   132    2
   108   136   135    2
   109   108   107    1
   110    47    46    1
   111    47    48    1
   112   137   134    1
   113    95    96    1
   114    95    94    1
   115   134   135    1
   116   106    96   am
   117   106   107    1
   118    96    97    2
   119   178   175    1
   120   107   110    1
   121    94    89   am
   122    48    49    1
   123   110   111    1
   124    78    77    2
   125   175   176    1
   126   175   174    1
   127   177   176    2
   128   186   184    1
   129    49    50    1
   130    89    90    2
   131    89    88    1
   132    75    76    1
   133    81    83   ar
   134    81    80   ar
   135   185   184    1
   136    77    76    1
   137    77    87   am
   138    83    85   ar
   139   111   112    1
   140   184   183    1
   141    88    87    1
   142    88    91    1
   143    76    79    1
   144    79    80    1
   145   200   198   ar
   146   183   180    1
   147    80    82   ar
   148   180   181    1
   149   180   179    1
   150    92    91    1
   151   113   112    1
   152    85    86    1
   153    85    84   ar
   154   181   182    2
   155    91    93    1
   156   198   199   ar
   157   198   197    1
   158   192   191    1
   159    82    84   ar
   160   197   194    1
   161   191   188    1
   162    73    72    1
   163    58    57   ar
   164   194   193    1
   165   194   195    1
   166   193   189   am
   167    59    57   ar
   168    72    74    1
   169    72    69    1
   170    57    56    1
   171   189   188    1
   172   189   190    2
   173   188   187    1
   174   195   196    2
   175    56    55    1
   176    69    70    1
   177    69    68    1
   178    55    52    1
   179    67    66    1
   180    70    71    2
   181    52    53    1
   182    52    51    1
   183    66    65    1
   184    53    54    2
   185    65    64    1
   186    64    61    1
   187    61    60    1
   188    61    62    1
   189    62    63    2
