@<TRIPOS>MOLECULE
tmp/5t1tC00.pdb
 153 143 0 0 0
SMALL
GASTEIGER

@<TRIPOS>ATOM
      1  N         41.1510  -10.2820   25.9300 N.3    29  MET29      -0.1230
      2  CA        39.7800  -10.2620   25.4050 C.3    29  MET29       0.1702
      3  C         39.1160  -11.6270   25.4970 C.2    29  MET29       0.2593
      4  O         37.9330  -11.7450   25.8230 O.2    29  MET29      -0.2718
      5  CB        39.8110   -9.8710   23.9320 C.3    29  MET29       0.0401
      6  CG        40.2420   -8.4660   23.7040 C.3    29  MET29       0.0596
      7  SD        39.4140   -7.8750   22.2370 S.3    29  MET29      -0.1393
      8  CE        40.7240   -7.6100   21.1900 C.3    29  MET29       0.0692
      9  N         39.8700  -12.6430   25.1180 N.am   30  GLY30      -0.1942
     10  CA        39.4160  -14.0210   25.1320 C.3    30  GLY30       0.2014
     11  C         40.2770  -14.8160   24.1670 C.2    30  GLY30       0.2639
     12  O         41.1820  -14.2620   23.5330 O.2    30  GLY30      -0.2714
     13  N         40.0100  -16.1120   24.0600 N.am   31  GLU31      -0.1963
     14  CA        40.7570  -16.9370   23.1280 C.3    31  GLU31       0.1733
     15  C         40.0520  -16.7970   21.7840 C.2    31  GLU31       0.2616
     16  O         38.8150  -16.7870   21.7310 O.2    31  GLU31      -0.2715
     17  CB        40.8510  -18.3960   23.5960 C.3    31  GLU31       0.0429
     18  CG        42.0890  -19.0750   23.0360 C.3    31  GLU31       0.1163
     19  CD        42.2970  -20.5230   23.4280 C.2    31  GLU31       0.3649
     20  OE1       41.3560  -21.1410   23.9780 O.co2  31  GLU31      -0.2457
     21  OE2       43.4100  -21.0410   23.1810 O.co2  31  GLU31      -0.2457
     22  N         40.8280  -16.5970   20.7140 N.am   32  GLY32      -0.1955
     23  CA        40.2450  -16.3780   19.4010 C.3    32  GLY32       0.1869
     24  C         41.0690  -16.9480   18.2660 C.2    32  GLY32       0.2309
     25  O         41.7870  -16.2050   17.6030 O.2    32  GLY32      -0.2863
     26  N         43.9500  -13.4060   22.2020 N.3    37  VAL37      -0.1245
     27  CA        43.8570  -12.0480   21.6890 C.3    37  VAL37       0.1561
     28  C         43.8700  -11.0760   22.8570 C.2    37  VAL37       0.2260
     29  O         43.0930  -11.2250   23.8080 O.2    37  VAL37      -0.2867
     30  CB        42.6230  -11.8440   20.7490 C.3    37  VAL37       0.0252
     31  CG1       42.6520  -10.4630   20.1100 C.3    37  VAL37       0.0019
     32  CG2       42.5750  -12.9070   19.6530 C.3    37  VAL37       0.0019
     33  N         44.3700   -4.9990   18.2550 N.3    48  ALA48      -0.1245
     34  CA        44.1260   -6.3360   18.7850 C.3    48  ALA48       0.1562
     35  C         45.4030   -7.1050   18.5000 C.2    48  ALA48       0.2260
     36  O         45.8540   -7.1150   17.3560 O.2    48  ALA48      -0.2867
     37  CB        42.9270   -6.9850   18.0870 C.3    48  ALA48       0.0290
     38  N         47.1420  -10.6970   18.5060 N.3    50  LYS50      -0.1245
     39  CA        46.8880  -12.1330   18.5960 C.3    50  LYS50       0.1561
     40  C         48.2240  -12.8310   18.8290 C.2    50  LYS50       0.2260
     41  O         49.0500  -12.8750   17.9260 O.2    50  LYS50      -0.2867
     42  CB        46.2180  -12.6740   17.3160 C.3    50  LYS50       0.0271
     43  CG        45.8710  -14.1730   17.3790 C.3    50  LYS50       0.0035
     44  CD        45.5890  -14.7660   15.9990 C.3    50  LYS50       0.0206
     45  CE        44.1090  -14.7870   15.6460 C.3    50  LYS50       0.1093
     46  NZ        43.8560  -14.7290   14.1720 N.3    50  LYS50      -0.1314
     47  N         38.9640   -8.3030    8.2840 N.3    79  VAL79      -0.1245
     48  CA        39.6930   -7.5730    9.3330 C.3    79  VAL79       0.1561
     49  C         40.9880   -7.0050    8.7080 C.2    79  VAL79       0.2260
     50  O         41.5200   -7.5630    7.7650 O.2    79  VAL79      -0.2867
     51  CB        40.0250   -8.3830   10.6180 C.3    79  VAL79       0.0252
     52  CG1       38.7720   -8.8150   11.3450 C.3    79  VAL79       0.0019
     53  CG2       40.9140   -9.5780   10.3240 C.3    79  VAL79       0.0019
     54  N         46.1520   -6.2710   14.6830 N.3    95  TYR95      -0.1227
     55  CA        45.0240   -5.8590   13.8690 C.3    95  TYR95       0.1736
     56  C         44.3740   -4.6080   14.3760 C.2    95  TYR95       0.2595
     57  O         44.5210   -4.2520   15.5460 O.2    95  TYR95      -0.2718
     58  CB        43.9380   -6.9400   13.8690 C.3    95  TYR95       0.0548
     59  CG        44.4210   -8.3190   13.4950 C.ar   95  TYR95      -0.0200
     60  CD1       44.8970   -9.1920   14.4610 C.ar   95  TYR95      -0.0009
     61  CD2       44.3180   -8.7860   12.1900 C.ar   95  TYR95      -0.0009
     62  CE1       45.3070  -10.4780   14.1340 C.ar   95  TYR95       0.0417
     63  CE2       44.7070  -10.0800   11.8550 C.ar   95  TYR95       0.0417
     64  CZ        45.2150  -10.9180   12.8320 C.ar   95  TYR95       0.1957
     65  OH        45.6050  -12.1980   12.5440 O.3    95  TYR95      -0.2866
     66  N         43.5300   -4.0130   13.5180 N.am   96  VAL96      -0.1966
     67  CA        42.6680   -2.9060   13.9130 C.3    96  VAL96       0.1727
     68  C         41.6630   -3.5790   14.8620 C.2    96  VAL96       0.2616
     69  O         41.1780   -4.6830   14.5780 O.2    96  VAL96      -0.2715
     70  CB        41.9670   -2.2360   12.6960 C.3    96  VAL96       0.0290
     71  CG1       40.8920   -1.2430   13.1290 C.3    96  VAL96       0.0023
     72  CG2       42.9980   -1.5560   11.7880 C.3    96  VAL96       0.0023
     73  N         41.4200   -2.9480   16.0040 N.am   97  TYR97      -0.1960
     74  CA        40.5260   -3.4440   17.0400 C.3    97  TYR97       0.1771
     75  C         39.0550   -3.3590   16.6150 C.2    97  TYR97       0.2619
     76  O         38.6170   -2.3520   16.0650 O.2    97  TYR97      -0.2715
     77  CB        40.7810   -2.6330   18.3100 C.3    97  TYR97       0.0574
     78  CG        39.8960   -2.9830   19.4790 C.ar   97  TYR97      -0.0198
     79  CD1       40.1400   -4.1070   20.2450 C.ar   97  TYR97      -0.0009
     80  CD2       38.8770   -2.1340   19.8820 C.ar   97  TYR97      -0.0009
     81  CE1       39.3440   -4.4170   21.3490 C.ar   97  TYR97       0.0417
     82  CE2       38.0880   -2.4250   20.9890 C.ar   97  TYR97       0.0417
     83  CZ        38.3130   -3.5790   21.7100 C.ar   97  TYR97       0.1957
     84  OH        37.5560   -3.8930   22.8070 O.3    97  TYR97      -0.2866
     85  N         38.2870   -4.4040   16.9160 N.am   98  MET98      -0.1977
     86  CA        36.8770   -4.5150   16.5440 C.3    98  MET98       0.1605
     87  C         36.0970   -4.4330   17.8430 C.2    98  MET98       0.2287
     88  O         35.9910   -5.4210   18.5620 O.2    98  MET98      -0.2864
     89  CB        36.6170   -5.8310   15.7610 C.3    98  MET98       0.0413
     90  CG        37.3460   -5.8750   14.4130 C.3    98  MET98       0.0598
     91  SD        36.7610   -4.6050   13.2390 S.3    98  MET98      -0.1393
     92  CE        37.9840   -3.5010   13.2470 C.3    98  MET98       0.0692
     93  N         33.3130   -7.2840   19.1450 N.3   101  GLY101     -0.1210
     94  CA        33.6630   -8.6970   19.2170 C.3   101  GLY101      0.1956
     95  C         33.1930   -9.5020   17.9990 C.2   101  GLY101      0.2612
     96  O         33.1770   -8.9910   16.8760 O.2   101  GLY101     -0.2717
     97  N         32.7790  -10.7540   18.2490 N.am  102  SER102     -0.1952
     98  CA        32.3100  -11.6620   17.2230 C.3   102  SER102      0.1924
     99  C         30.8090  -11.7200   17.1130 C.2   102  SER102      0.2314
    100  O         30.1010  -11.3170   18.0170 O.2   102  SER102     -0.2863
    101  CB        32.9030  -13.0450   17.4370 C.3   102  SER102      0.2116
    102  OG        32.3850  -13.6430   18.6070 O.3   102  SER102     -0.2180
    103  N         29.3100  -14.1280   19.8320 N.3   105  ASP105     -0.1239
    104  CA        29.1070  -13.4480   21.1240 C.3   105  ASP105      0.1674
    105  C         27.8890  -12.5360   21.0970 C.2   105  ASP105      0.2266
    106  O         27.1180  -12.5080   22.0630 O.2   105  ASP105     -0.2867
    107  CB        30.3270  -12.5980   21.4830 C.3   105  ASP105      0.1410
    108  CG        31.6170  -13.3720   21.6950 C.2   105  ASP105      0.3668
    109  OD1       31.5600  -14.6210   21.7970 O.co2 105  ASP105     -0.2456
    110  OD2       32.6760  -12.7390   21.7260 O.co2 105  ASP105     -0.2456
    111  N         26.5750  -12.1690   24.9280 N.3   110  LEU110     -0.1231
    112  CA        27.6720  -12.3420   25.8650 C.3   110  LEU110      0.1693
    113  C         27.9840  -11.0170   26.5930 C.2   110  LEU110      0.2592
    114  O         28.0010   -9.9540   25.9620 O.2   110  LEU110     -0.2718
    115  CB        28.9160  -12.8340   25.1110 C.3   110  LEU110      0.0284
    116  CG        30.1490  -13.1900   25.9420 C.3   110  LEU110      0.0019
    117  CD1       29.8860  -14.4060   26.8510 C.3   110  LEU110      0.0001
    118  CD2       31.3310  -13.4790   25.0410 C.3   110  LEU110      0.0001
    119  N         28.1680  -11.0870   27.9290 N.am  111  ASP111     -0.1974
    120  CA        28.4920   -9.9310   28.7810 C.3   111  ASP111      0.1709
    121  C         27.3810   -8.8810   28.8920 C.2   111  ASP111      0.2293
    122  O         27.6510   -7.7550   29.2800 O.2   111  ASP111     -0.2864
    123  CB        29.8430   -9.2840   28.3700 C.3   111  ASP111      0.1436
    124  CG        31.0140  -10.2410   28.4850 C.2   111  ASP111      0.3671
    125  OD1       31.0430  -11.0280   29.4490 O.co2 111  ASP111     -0.2456
    126  OD2       31.8900  -10.2160   27.5980 O.co2 111  ASP111     -0.2456
    127  N         32.0460  -17.1980   14.9680 N.3   148  ALA148     -0.1245
    128  CA        33.1790  -16.7560   15.8080 C.3   148  ALA148      0.1562
    129  C         34.2540  -16.0440   14.9510 C.2   148  ALA148      0.2260
    130  O         34.9900  -15.2280   15.4890 O.2   148  ALA148     -0.2867
    131  CB        33.8040  -17.9550   16.5200 C.3   148  ALA148      0.0290
    132  N         33.8440  -10.8490   12.8000 N.3   151  LEU151     -0.1245
    133  CA        33.9910   -9.7940   13.8040 C.3   151  LEU151      0.1561
    134  C         33.1620   -8.5690   13.4430 C.2   151  LEU151      0.2260
    135  O         32.7170   -8.4230   12.3020 O.2   151  LEU151     -0.2867
    136  CB        35.4530   -9.4500   14.0310 C.3   151  LEU151      0.0270
    137  CG        36.3680  -10.6490   14.3370 C.3   151  LEU151      0.0019
    138  CD1       37.7020  -10.1780   14.7740 C.3   151  LEU151      0.0001
    139  CD2       35.8130  -11.5490   15.4390 C.3   151  LEU151      0.0001
    140  N         37.5820  -12.8700    9.6220 N.3   161  SER161     -0.1202
    141  CA        38.9030  -13.0140   10.2410 C.3   161  SER161      0.2020
    142  C         39.3610  -14.4520   10.1300 C.2   161  SER161      0.2618
    143  O         38.5990  -15.2980    9.6570 O.2   161  SER161     -0.2717
    144  CB        38.8370  -12.6100   11.7130 C.3   161  SER161      0.2103
    145  OG        38.0390  -13.5210   12.4490 O.3   161  SER161     -0.2182
    146  N         40.5910  -14.7300   10.5940 N.am  162  ASP162     -0.1973
    147  CA        41.2020  -16.0680   10.6670 C.3   162  ASP162      0.1709
    148  C         41.4700  -16.6620    9.2740 C.2   162  ASP162      0.2293
    149  O         40.6900  -17.4660    8.7690 O.2   162  ASP162     -0.2864
    150  CB        40.3390  -17.0200   11.5580 C.3   162  ASP162      0.1436
    151  CG        41.0480  -17.5000   12.7960 C.2   162  ASP162      0.3671
    152  OD1       41.8610  -18.4530   12.6790 O.co2 162  ASP162     -0.2456
    153  OD2       40.7780  -16.9360   13.8900 O.co2 162  ASP162     -0.2456
@<TRIPOS>BOND
     1    50    49    2
     2    47    48    1
     3    49    48    1
     4   149   148    2
     5   148   147    1
     6    48    51    1
     7   140   141    1
     8   143   142    2
     9   142   141    1
    10   142   146   am
    11   141   144    1
    12    53    51    1
    13   146   147    1
    14    51    52    1
    15   147   150    1
    16   150   151    1
    17   144   145    1
    18    72    70    1
    19    63    61   ar
    20    63    64   ar
    21    61    59   ar
    22   135   134    2
    23    65    64    1
    24   152   151   ar
    25    70    71    1
    26    70    67    1
    27   151   153   ar
    28   132   133    1
    29    64    62   ar
    30    91    92    1
    31    91    90    1
    32   134   133    1
    33    59    58    1
    34    59    60   ar
    35    66    67    1
    36    66    56   am
    37   133   136    1
    38    55    58    1
    39    55    56    1
    40    55    54    1
    41    67    68    1
    42   136   137    1
    43    62    60   ar
    44    46    45    1
    45   137   138    1
    46   137   139    1
    47    56    57    2
    48    90    89    1
    49    69    68    2
    50    68    73   am
    51   129   130    2
    52   129   128    1
    53   127   128    1
    54    45    44    1
    55    89    86    1
    56   128   131    1
    57    44    43    1
    58    73    74    1
    59    76    75    2
    60    86    85    1
    61    86    87    1
    62    75    85   am
    63    75    74    1
    64    96    95    2
    65    74    77    1
    66    99    98    1
    67    99   100    2
    68    98   101    1
    69    98    97    1
    70    42    43    1
    71    42    39    1
    72    36    35    2
    73   101   102    1
    74    25    24    2
    75    87    88    2
    76    41    40    2
    77    95    97   am
    78    95    94    1
    79    37    34    1
    80    33    34    1
    81    24    23    1
    82    77    78    1
    83    35    34    1
    84    38    39    1
    85    39    40    1
    86    93    94    1
    87    23    22    1
    88    78    80   ar
    89    78    79   ar
    90    32    30    1
    91   103   104    1
    92    80    82   ar
    93    31    30    1
    94    79    81   ar
    95    22    15   am
    96    30    27    1
    97    82    83   ar
    98   105   104    1
    99   105   106    2
   100   104   107    1
   101     8     7    1
   102    81    83   ar
   103   107   108    1
   104    27    26    1
   105    27    28    1
   106   108   110   ar
   107   108   109   ar
   108    83    84    1
   109    16    15    2
   110    15    14    1
   111     7     6    1
   112    28    29    2
   113    18    19    1
   114    18    17    1
   115    14    17    1
   116    14    13    1
   117    21    19   ar
   118    19    20   ar
   119    12    11    2
   120     6     5    1
   121     5     2    1
   122    13    11   am
   123    11    10    1
   124   111   112    1
   125   118   116    1
   126   115   112    1
   127   115   116    1
   128     9    10    1
   129     9     3   am
   130     2     3    1
   131     2     1    1
   132     3     4    2
   133   112   113    1
   134   116   117    1
   135   114   113    2
   136   113   119   am
   137   126   124   ar
   138   119   120    1
   139   123   124    1
   140   123   120    1
   141   124   125   ar
   142   120   121    1
   143   121   122    2
