@<TRIPOS>MOLECULE
tmp/5t1uA00.pdb
 151 146 0 0 0
SMALL
GASTEIGER

@<TRIPOS>ATOM
      1  N         25.6440  -45.7480   -0.4820 N.3    15  GLY15      -0.1210
      2  CA        25.2400  -45.9130    0.8940 C.3    15  GLY15       0.1956
      3  C         25.3230  -44.6590    1.7660 C.2    15  GLY15       0.2612
      4  O         25.0330  -44.7230    2.9540 O.2    15  GLY15      -0.2717
      5  N         25.7400  -43.5260    1.1970 N.am   16  GLN16      -0.1965
      6  CA        25.9630  -42.3410    2.0420 C.3    16  GLN16       0.1733
      7  C         24.9650  -41.2450    1.7160 C.2    16  GLN16       0.2616
      8  O         25.0940  -40.1460    2.2220 O.2    16  GLN16      -0.2715
      9  CB        27.3890  -41.7800    1.8650 C.3    16  GLN16       0.0408
     10  CG        28.4740  -42.7540    2.2840 C.3    16  GLN16       0.0908
     11  CD        29.8590  -42.1200    2.3230 C.2    16  GLN16       0.2608
     12  OE1       30.1240  -41.0770    1.6880 O.2    16  GLN16      -0.2717
     13  NE2       30.7420  -42.7270    3.0990 N.am   16  GLN16      -0.0878
     14  N         24.0010  -41.5460    0.8520 N.am   17  GLY17      -0.1955
     15  CA        22.9140  -40.6000    0.5650 C.3    17  GLY17       0.1869
     16  C         23.1540  -39.7520   -0.6680 C.2    17  GLY17       0.2309
     17  O         24.2320  -39.8000   -1.2620 O.2    17  GLY17      -0.2863
     18  N         22.1470  -33.1600    2.2470 N.3    34  LEU34      -0.1245
     19  CA        21.4750  -34.4080    1.9390 C.3    34  LEU34       0.1561
     20  C         19.9930  -34.1870    1.6970 C.2    34  LEU34       0.2260
     21  O         19.3040  -33.4990    2.4680 O.2    34  LEU34      -0.2867
     22  CB        21.6910  -35.4010    3.0990 C.3    34  LEU34       0.0270
     23  CG        21.0510  -36.7850    2.7860 C.3    34  LEU34       0.0019
     24  CD1       22.0270  -37.9190    2.9690 C.3    34  LEU34       0.0001
     25  CD2       19.9170  -36.9090    3.6900 C.3    34  LEU34       0.0001
     26  N         16.3030  -35.2930    1.7950 N.3    36  ASP36      -0.1239
     27  CA        15.6130  -36.2760    2.6460 C.3    36  ASP36       0.1674
     28  C         14.0950  -36.0690    2.6210 C.2    36  ASP36       0.2266
     29  O         13.5920  -35.1870    3.3240 O.2    36  ASP36      -0.2867
     30  CB        16.1300  -36.1330    4.1090 C.3    36  ASP36       0.1410
     31  CG        15.5350  -37.1830    5.0650 C.2    36  ASP36       0.3668
     32  OD1       14.9210  -38.1570    4.5870 O.co2  36  ASP36      -0.2456
     33  OD2       15.6680  -37.0240    6.3220 O.co2  36  ASP36      -0.2456
     34  N         12.1060  -37.9600    3.9860 N.3    38  GLY38      -0.1210
     35  CA        11.5920  -38.5500    5.2270 C.3    38  GLY38       0.1956
     36  C         11.7170  -37.7150    6.4950 C.2    38  GLY38       0.2612
     37  O         11.4890  -38.2470    7.5930 O.2    38  GLY38      -0.2717
     38  N         12.0320  -36.4230    6.3650 N.am   39  SER39      -0.1952
     39  CA        12.0540  -35.5150    7.5120 C.3    39  SER39       0.1924
     40  C         11.7430  -34.0890    7.0360 C.2    39  SER39       0.2314
     41  O         11.6170  -33.8730    5.8260 O.2    39  SER39      -0.2863
     42  CB        13.4490  -35.5800    8.2210 C.3    39  SER39       0.2116
     43  OG        14.4510  -35.0270    7.3730 O.3    39  SER39      -0.2180
     44  N         17.0780  -39.6560   17.1450 N.3    75  TYR75      -0.1241
     45  CA        16.6530  -40.6690   16.1840 C.3    75  TYR75       0.1605
     46  C         16.8660  -42.0150   16.8080 C.2    75  TYR75       0.2264
     47  O         17.3830  -42.0740   17.9050 O.2    75  TYR75      -0.2867
     48  CB        17.4550  -40.5450   14.8840 C.3    75  TYR75       0.0534
     49  CG        17.0250  -39.3170   14.1860 C.ar   75  TYR75      -0.0201
     50  CD1       15.6910  -39.1760   13.8410 C.ar   75  TYR75      -0.0009
     51  CD2       17.9050  -38.2470   13.9500 C.ar   75  TYR75      -0.0009
     52  CE1       15.2220  -38.0530   13.2110 C.ar   75  TYR75       0.0417
     53  CE2       17.4240  -37.0820   13.3040 C.ar   75  TYR75       0.0417
     54  CZ        16.0710  -37.0180   12.9500 C.ar   75  TYR75       0.1957
     55  OH        15.5100  -35.9270   12.3310 O.3    75  TYR75      -0.2866
     56  N         20.8370  -35.0330   16.8760 N.3    80  TRP80      -0.1241
     57  CA        21.5130  -33.7460   16.7350 C.3    80  TRP80       0.1605
     58  C         20.7630  -32.7310   17.5620 C.2    80  TRP80       0.2264
     59  O         19.5820  -32.8890   17.8860 O.2    80  TRP80      -0.2867
     60  CB        21.6390  -33.3250   15.2570 C.3    80  TRP80       0.0550
     61  CG        20.3350  -33.0920   14.4790 C.ar   80  TRP80       0.0003
     62  CD1       19.7480  -33.9830   13.5750 C.ar   80  TRP80       0.0946
     63  CD2       19.5340  -31.9170   14.4330 C.ar   80  TRP80       0.0152
     64  NE1       18.6120  -33.4210   13.0260 N.ar   80  TRP80      -0.2442
     65  CE2       18.4710  -32.1590   13.5290 C.ar   80  TRP80       0.0810
     66  CE3       19.6050  -30.6640   15.0610 C.ar   80  TRP80       0.0012
     67  CZ2       17.5030  -31.2080   13.2500 C.ar   80  TRP80       0.0191
     68  CZ3       18.6400  -29.7260   14.7880 C.ar   80  TRP80       0.0001
     69  CH2       17.5850  -30.0000   13.8990 C.ar   80  TRP80       0.0015
     70  N         26.4380  -39.8360   15.8840 N.3   111  LYS111     -0.1231
     71  CA        26.0750  -40.8040   14.8440 C.3   111  LYS111      0.1693
     72  C         25.1350  -40.2000   13.8180 C.2   111  LYS111      0.2592
     73  O         24.2820  -40.8830   13.2660 O.2   111  LYS111     -0.2718
     74  CB        25.4480  -42.0720   15.4660 C.3   111  LYS111      0.0285
     75  CG        26.4230  -42.9570   16.2200 C.3   111  LYS111      0.0035
     76  CD        25.6020  -44.1010   16.8610 C.3   111  LYS111      0.0206
     77  CE        26.2540  -44.6730   18.1150 C.3   111  LYS111      0.1093
     78  NZ        27.5540  -45.2430   17.8430 N.3   111  LYS111     -0.1314
     79  N         25.3390  -38.9270   13.5290 N.am  112  PHE112     -0.1976
     80  CA        24.4990  -38.2040   12.5760 C.3   112  PHE112      0.1639
     81  C         25.3070  -38.0290   11.3030 C.2   112  PHE112      0.2290
     82  O         24.9570  -38.5760   10.2300 O.2   112  PHE112     -0.2864
     83  CB        24.0670  -36.8620   13.1370 C.3   112  PHE112      0.0560
     84  CG        23.2470  -36.0210   12.1470 C.ar  112  PHE112     -0.0200
     85  CD1       21.9370  -36.4010   11.8170 C.ar  112  PHE112     -0.0042
     86  CD2       23.7950  -34.8890   11.5420 C.ar  112  PHE112     -0.0042
     87  CE1       21.1740  -35.6800   10.9000 C.ar  112  PHE112     -0.0003
     88  CE2       23.0330  -34.1080   10.5960 C.ar  112  PHE112     -0.0003
     89  CZ        21.7150  -34.5310   10.2870 C.ar  112  PHE112     -0.0000
     90  N         28.4560  -38.6260    8.7450 N.3   114  ILE114     -0.1245
     91  CA        29.1090  -39.8720    8.3180 C.3   114  ILE114      0.1561
     92  C         30.5690  -39.6260    8.0430 C.2   114  ILE114      0.2260
     93  O         30.8940  -38.7820    7.2180 O.2   114  ILE114     -0.2867
     94  CB        28.4350  -40.4160    7.0650 C.3   114  ILE114      0.0252
     95  CG1       26.9940  -40.8820    7.3980 C.3   114  ILE114      0.0019
     96  CG2       29.2480  -41.5380    6.4300 C.3   114  ILE114      0.0019
     97  CD1       26.1900  -41.1590    6.0550 C.3   114  ILE114      0.0001
     98  N         28.7970  -34.4570    2.6160 N.3   119  TRP119     -0.1241
     99  CA        27.7050  -33.5380    2.9200 C.3   119  TRP119      0.1605
    100  C         27.7730  -33.0730    4.3650 C.2   119  TRP119      0.2264
    101  O         28.3630  -33.7460    5.2250 O.2   119  TRP119     -0.2867
    102  CB        26.3280  -34.1980    2.6360 C.3   119  TRP119      0.0550
    103  CG        26.0370  -35.5430    3.2940 C.ar  119  TRP119      0.0003
    104  CD1       26.1790  -36.7980    2.7070 C.ar  119  TRP119      0.0946
    105  CD2       25.4930  -35.7800    4.6030 C.ar  119  TRP119      0.0152
    106  NE1       25.7710  -37.7740    3.5940 N.ar  119  TRP119     -0.2442
    107  CE2       25.3660  -37.1820    4.7620 C.ar  119  TRP119      0.0810
    108  CE3       25.1090  -34.9400    5.6690 C.ar  119  TRP119      0.0012
    109  CZ2       24.8560  -37.7630    5.9380 C.ar  119  TRP119      0.0191
    110  CZ3       24.6110  -35.5210    6.8250 C.ar  119  TRP119      0.0001
    111  CH2       24.4780  -36.9190    6.9480 C.ar  119  TRP119      0.0015
    112  N         21.2470  -31.4640    6.2130 N.3   122  ILE122     -0.1245
    113  CA        20.1420  -32.2590    5.6850 C.3   122  ILE122      0.1561
    114  C         18.9970  -31.3030    5.3060 C.2   122  ILE122      0.2260
    115  O         18.7180  -30.3630    6.0370 O.2   122  ILE122     -0.2867
    116  CB        19.7230  -33.3400    6.7110 C.3   122  ILE122      0.0252
    117  CG1       18.5550  -34.1670    6.2230 C.3   122  ILE122      0.0019
    118  CG2       19.2930  -32.7210    8.0420 C.3   122  ILE122      0.0019
    119  CD1       18.5200  -35.4820    7.0670 C.3   122  ILE122      0.0001
    120  N         10.7900  -42.4000    1.0350 N.3   223  ASP223     -0.1225
    121  CA        11.8430  -41.7500    1.8670 C.3   223  ASP223      0.1805
    122  C         13.2370  -41.7900    1.2180 C.2   223  ASP223      0.2598
    123  O         13.9190  -42.8180    1.2600 O.2   223  ASP223     -0.2718
    124  CB        11.8710  -42.4260    3.2490 C.3   223  ASP223      0.1424
    125  CG        12.9230  -41.8270    4.1820 C.2   223  ASP223      0.3668
    126  OD1       13.5420  -40.8070    3.8190 O.co2 223  ASP223     -0.2456
    127  OD2       13.1140  -42.3830    5.2960 O.co2 223  ASP223     -0.2456
    128  N         13.6910  -40.6710    0.6360 N.am  224  SER224     -0.1938
    129  CA        14.9990  -40.6220   -0.0220 C.3   224  SER224      0.2055
    130  C         16.1620  -40.6640    1.0040 C.2   224  SER224      0.2644
    131  O         17.3400  -40.7670    0.5860 O.2   224  SER224     -0.2714
    132  CB        15.1290  -39.3610   -0.8850 C.3   224  SER224      0.2130
    133  OG        15.1000  -38.2170   -0.0370 O.3   224  SER224     -0.2179
    134  N         15.8360  -40.5630    2.2940 N.am  225  GLY225     -0.1939
    135  CA        16.8270  -40.5930    3.3800 C.3   225  GLY225      0.2014
    136  C         17.0150  -41.9710    4.0290 C.2   225  GLY225      0.2640
    137  O         17.5480  -42.0760    5.1340 O.2   225  GLY225     -0.2714
    138  N         16.4700  -43.0040    3.3880 N.am  226  THR226     -0.1936
    139  CA        16.5430  -44.3980    3.8980 C.3   226  THR226      0.2028
    140  C         17.0660  -45.2100    2.7260 C.2   226  THR226      0.2642
    141  O         16.6440  -45.0520    1.5820 O.2   226  THR226     -0.2714
    142  CB        15.1700  -44.9810    4.3890 C.3   226  THR226      0.1808
    143  OG1       14.7380  -44.3470    5.6000 O.3   226  THR226     -0.2208
    144  CG2       15.2630  -46.5320    4.6100 C.3   226  THR226      0.0379
    145  N         18.0340  -46.0930    2.9710 N.am  227  THR227     -0.1950
    146  CA        18.5790  -46.8360    1.8570 C.3   227  THR227      0.1897
    147  C         17.6580  -48.0480    1.4990 C.2   227  THR227      0.2313
    148  O         17.3850  -48.2930    0.3210 O.2   227  THR227     -0.2863
    149  CB        20.0330  -47.3790    2.1940 C.3   227  THR227      0.1794
    150  OG1       20.8980  -46.2500    2.3640 O.3   227  THR227     -0.2208
    151  CG2       20.5660  -48.2840    1.0740 C.3   227  THR227      0.0378
@<TRIPOS>BOND
     1    17    16    2
     2   132   133    1
     3   132   129    1
     4    16    15    1
     5     1     2    1
     6   129   128    1
     7   129   130    1
     8   148   147    2
     9    15    14    1
    10   131   130    2
    11   128   122   am
    12    14     7   am
    13     2     3    1
    14   130   134   am
    15   120   121    1
    16   151   149    1
    17     5     3   am
    18     5     6    1
    19   122   123    2
    20   122   121    1
    21   147   146    1
    22   141   140    2
    23    12    11    2
    24    20    19    1
    25    20    21    2
    26     7     6    1
    27     7     8    2
    28     3     4    2
    29    26    27    1
    30   146   149    1
    31   146   145    1
    32     9     6    1
    33     9    10    1
    34   121   124    1
    35    19    18    1
    36    19    22    1
    37   149   150    1
    38    10    11    1
    39   134   135    1
    40    11    13   am
    41    98    99    1
    42    28    27    1
    43    28    29    2
    44   102    99    1
    45   102   103    1
    46    27    30    1
    47   104   103   ar
    48   104   106   ar
    49   140   145   am
    50   140   139    1
    51    23    24    1
    52    23    22    1
    53    23    25    1
    54    99   100    1
    55   124   125    1
    56   103   105   ar
    57   135   136    1
    58   138   139    1
    59   138   136   am
    60   106   107   ar
    61   126   125   ar
    62   139   142    1
    63    34    35    1
    64   136   137    2
    65    30    31    1
    66   125   127   ar
    67   100   101    2
    68   142   144    1
    69   142   143    1
    70    32    31   ar
    71   105   107   ar
    72   105   108   ar
    73   107   109   ar
    74    31    33   ar
    75    35    36    1
    76   114   113    1
    77   114   115    2
    78   108   110   ar
    79   113   112    1
    80   113   116    1
    81    41    40    2
    82   109   111   ar
    83    97    95    1
    84   117   116    1
    85   117   119    1
    86    38    36   am
    87    38    39    1
    88    96    94    1
    89    36    37    2
    90   116   118    1
    91   110   111   ar
    92    40    39    1
    93    94    95    1
    94    94    91    1
    95    93    92    2
    96    43    42    1
    97    39    42    1
    98    92    91    1
    99    91    90    1
   100    82    81    2
   101    89    88   ar
   102    89    87   ar
   103    88    86   ar
   104    87    85   ar
   105    81    80    1
   106    86    84   ar
   107    85    84   ar
   108    84    83    1
   109    55    54    1
   110    80    83    1
   111    80    79    1
   112    54    52   ar
   113    54    53   ar
   114    64    65   ar
   115    64    62   ar
   116    52    50   ar
   117    67    65   ar
   118    67    69   ar
   119    73    72    2
   120    53    51   ar
   121    79    72   am
   122    65    63   ar
   123    62    61   ar
   124    72    71    1
   125    50    49   ar
   126    69    68   ar
   127    51    49   ar
   128    49    48    1
   129    63    61   ar
   130    63    66   ar
   131    61    60    1
   132    68    66   ar
   133    71    74    1
   134    71    70    1
   135    48    45    1
   136    60    57    1
   137    74    75    1
   138    45    46    1
   139    45    44    1
   140    75    76    1
   141    57    56    1
   142    57    58    1
   143    46    47    2
   144    76    77    1
   145    58    59    2
   146    78    77    1
