@<TRIPOS>MOLECULE
tmp/5t1wA00.pdb
 209 199 0 0 0
SMALL
GASTEIGER

@<TRIPOS>ATOM
      1  N         25.7660  -45.3800   -0.1880 N.3    15  GLY15      -0.1210
      2  CA        25.4790  -45.4370    1.2410 C.3    15  GLY15       0.1956
      3  C         25.6950  -44.1430    2.0080 C.2    15  GLY15       0.2612
      4  O         25.4610  -44.1110    3.2180 O.2    15  GLY15      -0.2717
      5  N         26.1550  -43.0710    1.3420 N.am   16  GLN16      -0.1965
      6  CA        26.3650  -41.7960    2.0200 C.3    16  GLN16       0.1733
      7  C         25.3610  -40.7190    1.5170 C.2    16  GLN16       0.2616
      8  O         25.5050  -39.5250    1.8400 O.2    16  GLN16      -0.2715
      9  CB        27.8350  -41.3400    1.8920 C.3    16  GLN16       0.0408
     10  CG        28.8610  -42.3750    2.3130 C.3    16  GLN16       0.0908
     11  CD        30.2740  -41.8640    2.4340 C.2    16  GLN16       0.2608
     12  OE1       30.7090  -40.9770    1.6950 O.2    16  GLN16      -0.2717
     13  NE2       31.0590  -42.4860    3.3200 N.am   16  GLN16      -0.0878
     14  N         24.3510  -41.1680    0.7580 N.am   17  GLY17      -0.1955
     15  CA        23.2860  -40.3270    0.2210 C.3    17  GLY17       0.1869
     16  C         23.6510  -39.4910   -0.9970 C.2    17  GLY17       0.2309
     17  O         24.7830  -39.5540   -1.4670 O.2    17  GLY17      -0.2863
     18  N         22.8640  -32.3900    1.6130 N.3    34  LEU34      -0.1245
     19  CA        22.1720  -33.6770    1.4290 C.3    34  LEU34       0.1561
     20  C         20.6750  -33.5500    1.1050 C.2    34  LEU34       0.2260
     21  O         19.9280  -32.9200    1.8520 O.2    34  LEU34      -0.2867
     22  CB        22.4180  -34.6160    2.6290 C.3    34  LEU34       0.0270
     23  CG        21.7180  -35.9720    2.5720 C.3    34  LEU34       0.0019
     24  CD1       22.6300  -37.0770    2.0250 C.3    34  LEU34       0.0001
     25  CD2       21.2220  -36.3490    3.9110 C.3    34  LEU34       0.0001
     26  N         17.2800  -34.7220    1.2380 N.3    36  ASP36      -0.1239
     27  CA        16.4580  -35.5570    2.1040 C.3    36  ASP36       0.1674
     28  C         14.9250  -35.2850    2.0620 C.2    36  ASP36       0.2266
     29  O         14.4530  -34.2760    2.5940 O.2    36  ASP36      -0.2867
     30  CB        17.0080  -35.4380    3.5310 C.3    36  ASP36       0.1410
     31  CG        16.2890  -36.2650    4.5540 C.2    36  ASP36       0.3668
     32  OD1       15.8360  -37.3760    4.2050 O.co2  36  ASP36      -0.2456
     33  OD2       16.2010  -35.8170    5.7170 O.co2  36  ASP36      -0.2456
     34  N         12.9620  -37.2750    3.6440 N.3    38  GLY38      -0.1210
     35  CA        12.5810  -37.8300    4.9360 C.3    38  GLY38       0.1956
     36  C         12.3700  -36.8070    6.0350 C.2    38  GLY38       0.2612
     37  O         11.5350  -37.0340    6.9050 O.2    38  GLY38      -0.2717
     38  N         13.1330  -35.6880    6.0220 N.am   39  SER39      -0.1952
     39  CA        13.0830  -34.6130    7.0110 C.3    39  SER39       0.1924
     40  C         12.6210  -33.2790    6.4060 C.2    39  SER39       0.2314
     41  O         12.6560  -33.1250    5.1870 O.2    39  SER39      -0.2863
     42  CB        14.4470  -34.4530    7.6720 C.3    39  SER39       0.2116
     43  OG        15.2610  -33.4660    7.0570 O.3    39  SER39      -0.2180
     44  N         13.7570  -29.9730    7.9030 N.3    41  ASN41      -0.1240
     45  CA        14.6540  -28.8910    8.3080 C.3    41  ASN41       0.1653
     46  C         15.8550  -28.7670    7.3730 C.2    41  ASN41       0.2266
     47  O         16.4700  -29.7920    6.9970 O.2    41  ASN41      -0.2867
     48  CB        15.1960  -29.1100    9.7320 C.3    41  ASN41       0.1155
     49  CG        14.2220  -28.9470   10.8630 C.2    41  ASN41       0.2627
     50  OD1       13.6040  -29.9170   11.3090 O.2    41  ASN41      -0.2716
     51  ND2       14.1730  -27.7540   11.4490 N.am   41  ASN41      -0.0877
     52  N         17.1390  -31.7050   17.8440 N.3    73  VAL73      -0.1245
     53  CA        16.6160  -32.7700   17.0110 C.3    73  VAL73       0.1561
     54  C         17.1760  -34.1880   17.3050 C.2    73  VAL73       0.2260
     55  O         17.9640  -34.7470   16.5340 O.2    73  VAL73      -0.2867
     56  CB        16.6690  -32.3570   15.5080 C.3    73  VAL73       0.0252
     57  CG1       15.8820  -33.3170   14.6390 C.3    73  VAL73       0.0019
     58  CG2       16.1640  -30.9390   15.3040 C.3    73  VAL73       0.0019
     59  N         16.7540  -38.2100   17.1120 N.3    75  TYR75      -0.1241
     60  CA        16.1050  -39.1440   16.1840 C.3    75  TYR75       0.1605
     61  C         16.7290  -40.5170   16.3920 C.2    75  TYR75       0.2264
     62  O         17.7330  -40.6180   17.0790 O.2    75  TYR75      -0.2867
     63  CB        16.1580  -38.6480   14.7200 C.3    75  TYR75       0.0534
     64  CG        17.5590  -38.4940   14.1750 C.ar   75  TYR75      -0.0201
     65  CD1       18.3450  -37.3880   14.5110 C.ar   75  TYR75      -0.0009
     66  CD2       18.1220  -39.4750   13.3660 C.ar   75  TYR75      -0.0009
     67  CE1       19.6540  -37.2680   14.0540 C.ar   75  TYR75       0.0417
     68  CE2       19.4370  -39.3730   12.9200 C.ar   75  TYR75       0.0417
     69  CZ        20.2020  -38.2750   13.2790 C.ar   75  TYR75       0.1957
     70  OH        21.4930  -38.1790   12.8300 O.3    75  TYR75      -0.2866
     71  N         18.6540  -42.9180   14.9160 N.3    77  GLN77      -0.1245
     72  CA        20.0600  -43.2770   14.7430 C.3    77  GLN77       0.1566
     73  C         21.0970  -42.1750   15.0030 C.2    77  GLN77       0.2260
     74  O         22.2510  -42.3020   14.5930 O.2    77  GLN77      -0.2867
     75  CB        20.2500  -44.0160   13.4040 C.3    77  GLN77       0.0367
     76  CG        19.5850  -45.3800   13.4220 C.3    77  GLN77       0.0905
     77  CD        20.2670  -46.3470   14.3690 C.2    77  GLN77       0.2608
     78  OE1       21.4910  -46.3100   14.5490 O.2    77  GLN77      -0.2717
     79  NE2       19.5160  -47.2060   14.9490 N.am   77  GLN77      -0.0878
     80  N         20.9450  -34.1420   16.2880 N.3    80  TRP80      -0.1241
     81  CA        21.4710  -32.8510   15.8630 C.3    80  TRP80       0.1605
     82  C         20.8370  -31.6590   16.6220 C.2    80  TRP80       0.2264
     83  O         19.6870  -31.7290   17.0450 O.2    80  TRP80      -0.2867
     84  CB        21.6320  -32.6740   14.3260 C.3    80  TRP80       0.0550
     85  CG        20.3740  -32.3500   13.5560 C.ar   80  TRP80       0.0003
     86  CD1       19.6220  -33.2130   12.8000 C.ar   80  TRP80       0.0946
     87  CD2       19.7690  -31.0520   13.4040 C.ar   80  TRP80       0.0152
     88  NE1       18.5440  -32.5500   12.2570 N.ar   80  TRP80      -0.2442
     89  CE2       18.6130  -31.2190   12.6040 C.ar   80  TRP80       0.0810
     90  CE3       20.0840  -29.7670   13.8810 C.ar   80  TRP80       0.0012
     91  CZ2       17.7770  -30.1460   12.2630 C.ar   80  TRP80       0.0191
     92  CZ3       19.2410  -28.7150   13.5640 C.ar   80  TRP80       0.0001
     93  CH2       18.0880  -28.9150   12.7870 C.ar   80  TRP80       0.0015
     94  N         26.4970  -38.9750   15.6940 N.3   111  LYS111     -0.1231
     95  CA        26.1500  -39.9030   14.6190 C.3   111  LYS111      0.1693
     96  C         25.3740  -39.2140   13.4830 C.2   111  LYS111      0.2592
     97  O         24.6240  -39.8710   12.7600 O.2   111  LYS111     -0.2718
     98  CB        25.4040  -41.1170   15.1910 C.3   111  LYS111      0.0285
     99  CG        26.3170  -42.0710   15.9170 C.3   111  LYS111      0.0035
    100  CD        25.5610  -42.9610   16.8620 C.3   111  LYS111      0.0206
    101  CE        26.4030  -43.4020   18.0360 C.3   111  LYS111      0.1093
    102  NZ        27.4280  -44.4370   17.6780 N.3   111  LYS111     -0.1314
    103  N         25.5400  -37.8930   13.3350 N.am  112  PHE112     -0.1976
    104  CA        24.8510  -37.1500   12.3040 C.3   112  PHE112      0.1639
    105  C         25.6690  -37.0970   11.0250 C.2   112  PHE112      0.2290
    106  O         25.2280  -37.5920    9.9830 O.2   112  PHE112     -0.2864
    107  CB        24.4730  -35.7370   12.7840 C.3   112  PHE112      0.0560
    108  CG        23.7450  -34.9640   11.7090 C.ar  112  PHE112     -0.0200
    109  CD1       22.4330  -35.2860   11.3610 C.ar  112  PHE112     -0.0042
    110  CD2       24.3870  -33.9520   10.9980 C.ar  112  PHE112     -0.0042
    111  CE1       21.7690  -34.5820   10.3440 C.ar  112  PHE112     -0.0003
    112  CE2       23.7240  -33.2650    9.9720 C.ar  112  PHE112     -0.0003
    113  CZ        22.4250  -33.5910    9.6450 C.ar  112  PHE112     -0.0000
    114  N         28.5640  -37.9980    8.4420 N.3   114  ILE114     -0.1245
    115  CA        29.2400  -39.2450    8.0600 C.3   114  ILE114      0.1561
    116  C         30.7370  -39.0160    7.8440 C.2   114  ILE114      0.2260
    117  O         31.0810  -38.1890    7.0150 O.2   114  ILE114     -0.2867
    118  CB        28.5390  -39.8890    6.8190 C.3   114  ILE114      0.0252
    119  CG1       27.0530  -40.2830    7.1430 C.3   114  ILE114      0.0019
    120  CG2       29.3680  -41.0730    6.2490 C.3   114  ILE114      0.0019
    121  CD1       26.1400  -40.3630    5.9860 C.3   114  ILE114      0.0001
    122  N         29.3480  -33.8800    2.3320 N.3   119  TRP119     -0.1241
    123  CA        28.2910  -32.9140    2.6460 C.3   119  TRP119      0.1605
    124  C         28.4210  -32.3570    4.0640 C.2   119  TRP119      0.2264
    125  O         29.0540  -32.9720    4.9150 O.2   119  TRP119     -0.2867
    126  CB        26.8770  -33.4460    2.3190 C.3   119  TRP119      0.0550
    127  CG        26.5360  -34.7900    2.8920 C.ar  119  TRP119      0.0003
    128  CD1       26.6050  -35.9920    2.2560 C.ar  119  TRP119      0.0946
    129  CD2       26.0320  -35.0610    4.2110 C.ar  119  TRP119      0.0152
    130  NE1       26.1830  -36.9990    3.0930 N.ar  119  TRP119     -0.2442
    131  CE2       25.8090  -36.4530    4.2960 C.ar  119  TRP119      0.0810
    132  CE3       25.7400  -34.2560    5.3330 C.ar  119  TRP119      0.0012
    133  CZ2       25.3130  -37.0610    5.4560 C.ar  119  TRP119      0.0191
    134  CZ3       25.2730  -34.8600    6.4860 C.ar  119  TRP119      0.0001
    135  CH2       25.0700  -36.2480    6.5440 C.ar  119  TRP119      0.0015
    136  N         21.9550  -30.6150    5.5240 N.3   122  ILE122     -0.1245
    137  CA        20.8210  -31.3850    5.0400 C.3   122  ILE122      0.1561
    138  C         19.7200  -30.4810    4.5390 C.2   122  ILE122      0.2260
    139  O         19.4420  -29.4430    5.1500 O.2   122  ILE122     -0.2867
    140  CB        20.3370  -32.3490    6.1440 C.3   122  ILE122      0.0252
    141  CG1       19.3120  -33.3650    5.6320 C.3   122  ILE122      0.0019
    142  CG2       19.8980  -31.6160    7.4530 C.3   122  ILE122      0.0019
    143  CD1       19.2980  -34.6270    6.5060 C.3   122  ILE122      0.0001
    144  N         11.2210  -29.2370   12.7000 N.3   132  ARG132     -0.1245
    145  CA        11.5390  -28.9700   14.1080 C.3   132  ARG132      0.1563
    146  C         11.8840  -27.4910   14.3510 C.2   132  ARG132      0.2260
    147  O         12.5380  -26.8840   13.5020 O.2   132  ARG132     -0.2867
    148  CB        12.6760  -29.8760   14.5940 C.3   132  ARG132      0.0307
    149  CG        12.1800  -31.0810   15.3500 C.3   132  ARG132      0.0489
    150  CD        11.6730  -32.1910   14.4440 C.3   132  ARG132      0.2205
    151  NE        12.2850  -33.4820   14.7590 N.pl3 132  ARG132     -0.0865
    152  CZ        11.9390  -34.6330   14.1940 C.cat 132  ARG132      0.5346
    153  NH1       10.9720  -34.6700   13.2870 N.pl3 132  ARG132      0.1354
    154  NH2       12.5320  -35.7630   14.5590 N.pl3 132  ARG132      0.1354
    155  N          5.3650  -36.3440    5.9680 N.3   191  TYR191     -0.1241
    156  CA         6.3910  -37.0950    5.2840 C.3   191  TYR191      0.1605
    157  C          5.7540  -37.2130    3.8930 C.2   191  TYR191      0.2264
    158  O          4.6050  -36.7840    3.7290 O.2   191  TYR191     -0.2867
    159  CB         6.4890  -38.5100    5.8870 C.3   191  TYR191      0.0534
    160  CG         7.1760  -38.5900    7.2340 C.ar  191  TYR191     -0.0201
    161  CD1        8.5530  -38.7620    7.3260 C.ar  191  TYR191     -0.0009
    162  CD2        6.4400  -38.5610    8.4170 C.ar  191  TYR191     -0.0009
    163  CE1        9.1860  -38.8750    8.5600 C.ar  191  TYR191      0.0417
    164  CE2        7.0630  -38.6500    9.6600 C.ar  191  TYR191      0.0417
    165  CZ         8.4360  -38.8260    9.7280 C.ar  191  TYR191      0.1957
    166  OH         9.0560  -38.9250   10.9530 O.3   191  TYR191     -0.2866
    167  N         11.5460  -41.7580    1.0200 N.3   221  ASP221     -0.1225
    168  CA        12.6860  -41.1080    1.6960 C.3   221  ASP221      0.1805
    169  C         14.0640  -41.2010    0.9930 C.2   221  ASP221      0.2598
    170  O         14.7090  -42.2600    1.0590 O.2   221  ASP221     -0.2718
    171  CB        12.7750  -41.6370    3.1380 C.3   221  ASP221      0.1424
    172  CG        13.8370  -41.0280    4.0150 C.2   221  ASP221      0.3668
    173  OD1       14.4020  -39.9880    3.6240 O.co2 221  ASP221     -0.2456
    174  OD2       14.0680  -41.5640    5.1280 O.co2 221  ASP221     -0.2456
    175  N         14.5450  -40.0710    0.3940 N.am  222  SER222     -0.1938
    176  CA        15.8610  -40.0500   -0.2620 C.3   222  SER222      0.2055
    177  C         17.0320  -40.1610    0.7380 C.2   222  SER222      0.2644
    178  O         18.1100  -40.6410    0.3600 O.2   222  SER222     -0.2714
    179  CB        16.0210  -38.8300   -1.1540 C.3   222  SER222      0.2130
    180  OG        15.9280  -37.6470   -0.3810 O.3   222  SER222     -0.2179
    181  N         16.7780  -39.7970    2.0030 N.am  223  GLY223     -0.1939
    182  CA        17.7390  -39.8660    3.1050 C.3   223  GLY223      0.2014
    183  C         17.8230  -41.2000    3.8420 C.2   223  GLY223      0.2640
    184  O         18.2040  -41.2310    5.0250 O.2   223  GLY223     -0.2714
    185  N         17.4680  -42.3130    3.1370 N.am  224  THR224     -0.1936
    186  CA        17.5400  -43.7180    3.5770 C.3   224  THR224      0.2028
    187  C         18.0130  -44.5970    2.4030 C.2   224  THR224      0.2642
    188  O         17.3620  -44.6060    1.3560 O.2   224  THR224     -0.2714
    189  CB        16.1890  -44.2000    4.1320 C.3   224  THR224      0.1808
    190  OG1       15.8710  -43.4940    5.3170 O.3   224  THR224     -0.2208
    191  CG2       16.1660  -45.6730    4.4370 C.3   224  THR224      0.0379
    192  N         19.1180  -45.3540    2.5920 N.am  225  THR225     -0.1950
    193  CA        19.6830  -46.2990    1.6110 C.3   225  THR225      0.1897
    194  C         18.7000  -47.4680    1.2510 C.2   225  THR225      0.2313
    195  O         18.2720  -47.6130    0.0970 O.2   225  THR225     -0.2863
    196  CB        20.9920  -46.8650    2.1500 C.3   225  THR225      0.1794
    197  OG1       21.8690  -45.7970    2.4960 O.3   225  THR225     -0.2208
    198  CG2       21.6760  -47.8020    1.1770 C.3   225  THR225      0.0378
    199  N         13.0510  -50.3210    3.5600 N.3   228  ARG228     -0.1245
    200  CA        12.7070  -50.7830    4.8970 C.3   228  ARG228      0.1563
    201  C         11.2480  -51.1420    4.9290 C.2   228  ARG228      0.2260
    202  O         10.4120  -50.3820    4.4390 O.2   228  ARG228     -0.2867
    203  CB        13.0410  -49.7280    5.9450 C.3   228  ARG228      0.0307
    204  CG        14.4670  -49.8420    6.4430 C.3   228  ARG228      0.0489
    205  CD        14.9680  -48.5930    7.1390 C.3   228  ARG228      0.2205
    206  NE        14.1040  -48.1710    8.2390 N.pl3 228  ARG228     -0.0865
    207  CZ        14.1190  -46.9550    8.7650 C.cat 228  ARG228      0.5346
    208  NH1       14.9610  -46.0310    8.3040 N.pl3 228  ARG228      0.1354
    209  NH2       13.2870  -46.6440    9.7490 N.pl3 228  ARG228      0.1354
@<TRIPOS>BOND
     1    17    16    2
     2   179   180    1
     3   179   176    1
     4    16    15    1
     5   176   175    1
     6   176   177    1
     7     1     2    1
     8   195   194    2
     9    15    14    1
    10   178   177    2
    11   175   169   am
    12   177   181   am
    13    14     7   am
    14   169   170    2
    15   169   168    1
    16   167   168    1
    17    20    19    1
    18    20    21    2
    19   198   196    1
    20    26    27    1
    21     2     3    1
    22   194   193    1
    23     5     3   am
    24     5     6    1
    25   188   187    2
    26    19    18    1
    27    19    22    1
    28     7     8    2
    29     7     6    1
    30   193   196    1
    31   193   192    1
    32    12    11    2
    33   168   171    1
    34     9     6    1
    35     9    10    1
    36   181   182    1
    37     3     4    2
    38    24    23    1
    39    28    27    1
    40    28    29    2
    41    27    30    1
    42   196   197    1
    43   128   127   ar
    44   128   130   ar
    45    10    11    1
    46   126   123    1
    47   126   127    1
    48   122   123    1
    49   187   192   am
    50   187   186    1
    51    11    13   am
    52    23    22    1
    53    23    25    1
    54   123   124    1
    55   127   129   ar
    56   130   131   ar
    57   182   183    1
    58   185   186    1
    59   185   183   am
    60   171   172    1
    61    30    31    1
    62   199   200    1
    63   186   189    1
    64   173   172   ar
    65    34    35    1
    66   158   157    2
    67   183   184    2
    68   157   156    1
    69   172   174   ar
    70   124   125    2
    71   189   191    1
    72   189   190    1
    73    32    31   ar
    74   129   131   ar
    75   129   132   ar
    76   131   133   ar
    77   202   201    2
    78   138   137    1
    79   138   139    2
    80    31    33   ar
    81   200   201    1
    82   200   203    1
    83    35    36    1
    84   137   136    1
    85   137   140    1
    86    41    40    2
    87   156   159    1
    88   156   155    1
    89   132   134   ar
    90   133   135   ar
    91   141   140    1
    92   141   143    1
    93   159   160    1
    94   203   204    1
    95   121   119    1
    96    38    36   am
    97    38    39    1
    98    36    37    2
    99   140   142    1
   100   120   118    1
   101    40    39    1
   102   204   205    1
   103   134   135   ar
   104   118   119    1
   105   118   115    1
   106    47    46    2
   107    39    42    1
   108   117   116    2
   109    43    42    1
   110   205   206    1
   111   160   161   ar
   112   160   162   ar
   113   161   163   ar
   114    46    45    1
   115   116   115    1
   116    44    45    1
   117   115   114    1
   118   206   207    2
   119   208   207    1
   120    45    48    1
   121   162   164   ar
   122   163   165   ar
   123   207   209    1
   124   113   112   ar
   125   113   111   ar
   126   164   165   ar
   127   165   166    1
   128    48    49    1
   129   112   110   ar
   130   106   105    2
   131   111   109   ar
   132    49    50    2
   133    49    51   am
   134   110   108   ar
   135   105   104    1
   136   109   108   ar
   137   108   107    1
   138    88    89   ar
   139    88    86   ar
   140    91    89   ar
   141    91    93   ar
   142   104   107    1
   143   104   103    1
   144    89    87   ar
   145   144   145    1
   146    97    96    2
   147    93    92   ar
   148    86    85   ar
   149    70    69    1
   150    68    69   ar
   151    68    66   ar
   152    69    67   ar
   153   153   152    1
   154   103    96   am
   155    66    64   ar
   156    75    76    1
   157    75    72    1
   158    87    85   ar
   159    87    90   ar
   160    76    77    1
   161    96    95    1
   162   147   146    2
   163    85    84    1
   164    92    90   ar
   165    67    65   ar
   166   145   146    1
   167   145   148    1
   168    64    65   ar
   169    64    63    1
   170   152   154    1
   171   152   151    2
   172    84    81    1
   173    77    78    2
   174    77    79   am
   175   150   151    1
   176   150   149    1
   177    74    73    2
   178   148   149    1
   179    95    98    1
   180    95    94    1
   181    57    56    1
   182    63    60    1
   183    72    71    1
   184    72    73    1
   185    98    99    1
   186    58    56    1
   187    56    53    1
   188    81    80    1
   189    81    82    1
   190    99   100    1
   191    60    61    1
   192    60    59    1
   193    61    62    2
   194    55    54    2
   195    82    83    2
   196   100   101    1
   197    53    54    1
   198    53    52    1
   199   102   101    1
