@<TRIPOS>MOLECULE
tmp/5t1zB01.pdb
 209 195 0 0 0
SMALL
GASTEIGER

@<TRIPOS>ATOM
      1  N         21.2190    9.0700   40.5550 N.3    37  MET37      -0.1245
      2  CA        21.0990    7.7180   40.0090 C.3    37  MET37       0.1570
      3  C         20.7010    6.7490   41.1060 C.2    37  MET37       0.2261
      4  O         19.9940    5.7710   40.8610 O.2    37  MET37      -0.2867
      5  CB        22.4050    7.2420   39.3620 C.3    37  MET37       0.0387
      6  CG        22.6790    7.7810   37.9630 C.3    37  MET37       0.0595
      7  SD        21.4740    7.3030   36.7030 S.3    37  MET37      -0.1393
      8  CE        21.2930    5.5570   37.0660 C.3    37  MET37       0.0692
      9  N         17.0220    7.1500   41.3920 N.3    40  LEU40      -0.1231
     10  CA        16.3410    6.6310   40.2250 C.3    40  LEU40       0.1693
     11  C         16.3500    5.1030   40.2160 C.2    40  LEU40       0.2592
     12  O         15.3450    4.4830   39.8920 O.2    40  LEU40      -0.2718
     13  CB        16.9780    7.1850   38.9470 C.3    40  LEU40       0.0284
     14  CG        16.9070    8.7030   38.7530 C.3    40  LEU40       0.0019
     15  CD1       17.3800    9.0730   37.3630 C.3    40  LEU40       0.0001
     16  CD2       15.4940    9.1990   38.9640 C.3    40  LEU40       0.0001
     17  N         17.4780    4.5020   40.5840 N.am   41  THR41      -0.1953
     18  CA        17.6110    3.0470   40.5170 C.3    41  THR41       0.1897
     19  C         16.7660    2.3720   41.6110 C.2    41  THR41       0.2313
     20  O         16.0890    1.3750   41.3620 O.2    41  THR41      -0.2863
     21  CB        19.0870    2.6020   40.6490 C.3    41  THR41       0.1794
     22  OG1       19.6820    3.2610   41.7690 O.3    41  THR41      -0.2208
     23  CG2       19.8830    2.9540   39.3800 C.3    41  THR41       0.0378
     24  N         14.0620    3.6890   42.9400 N.3    43  LEU43      -0.1231
     25  CA        12.6900    3.8250   42.4860 C.3    43  LEU43       0.1693
     26  C         12.3800    2.7990   41.3830 C.2    43  LEU43       0.2591
     27  O         11.3910    2.0730   41.4710 O.2    43  LEU43      -0.2718
     28  CB        12.4160    5.2450   42.0000 C.3    43  LEU43       0.0284
     29  CG        11.0140    5.4540   41.4120 C.3    43  LEU43       0.0019
     30  CD1        9.9190    5.3140   42.5100 C.3    43  LEU43       0.0001
     31  CD2       10.8900    6.7890   40.6910 C.3    43  LEU43       0.0001
     32  N         13.2320    2.7220   40.3630 N.am   44  ALA44      -0.1980
     33  CA        13.0080    1.7850   39.2510 C.3    44  ALA44       0.1597
     34  C         12.8240    0.3610   39.7520 C.2    44  ALA44       0.2287
     35  O         11.9430   -0.3760   39.3080 O.2    44  ALA44      -0.2864
     36  CB        14.1810    1.8430   38.2350 C.3    44  ALA44       0.0319
     37  N          9.4160   -0.0430   41.3730 N.3    47  GLU47      -0.1245
     38  CA         8.4090   -0.0760   40.3150 C.3    47  GLU47       0.1567
     39  C          8.3870   -1.3970   39.5470 C.2    47  GLU47       0.2260
     40  O          7.3430   -1.8320   39.0640 O.2    47  GLU47      -0.2867
     41  CB         8.6360    1.0540   39.3060 C.3    47  GLU47       0.0388
     42  CG         8.3130    2.4370   39.8200 C.3    47  GLU47       0.1160
     43  CD         8.4990    3.4770   38.7250 C.2    47  GLU47       0.3649
     44  OE1        9.6460    3.9420   38.5300 O.co2  47  GLU47      -0.2457
     45  OE2        7.5000    3.8000   38.0450 O.co2  47  GLU47      -0.2457
     46  N         10.7360   -3.8470   29.8890 N.3    77  TRP77      -0.1227
     47  CA        10.5960   -3.1680   31.1970 C.3    77  TRP77       0.1737
     48  C         10.9840   -1.6780   31.2230 C.2    77  TRP77       0.2595
     49  O         10.3380   -0.8850   31.9210 O.2    77  TRP77      -0.2718
     50  CB        11.3920   -3.9080   32.2800 C.3    77  TRP77       0.0564
     51  CG        12.8810   -3.8320   32.0960 C.ar   77  TRP77       0.0003
     52  CD1       13.6670   -4.6520   31.3260 C.ar   77  TRP77       0.0946
     53  CD2       13.7680   -2.8850   32.7030 C.ar   77  TRP77       0.0152
     54  NE1       14.9820   -4.2600   31.4050 N.ar   77  TRP77      -0.2442
     55  CE2       15.0720   -3.1840   32.2450 C.ar   77  TRP77       0.0810
     56  CE3       13.5830   -1.8040   33.5650 C.ar   77  TRP77       0.0012
     57  CZ2       16.1810   -2.4510   32.6480 C.ar   77  TRP77       0.0191
     58  CZ3       14.6840   -1.0800   33.9610 C.ar   77  TRP77       0.0001
     59  CH2       15.9660   -1.4040   33.5070 C.ar   77  TRP77       0.0015
     60  N         12.0230   -1.2770   30.4950 N.am   78  LEU78      -0.1980
     61  CA        12.4200    0.1310   30.5310 C.3    78  LEU78       0.1596
     62  C         11.4600    0.9970   29.7110 C.2    78  LEU78       0.2287
     63  O         11.1820    2.1160   30.0990 O.2    78  LEU78      -0.2864
     64  CB        13.8670    0.3270   30.0540 C.3    78  LEU78       0.0297
     65  CG        14.4400    1.7510   30.1790 C.3    78  LEU78       0.0022
     66  CD1       14.1830    2.3660   31.5750 C.3    78  LEU78       0.0001
     67  CD2       15.9530    1.8420   29.8320 C.3    78  LEU78       0.0001
     68  N          8.5360    1.4550   32.1220 N.3    81  LEU81      -0.1231
     69  CA         8.9240    2.5000   33.0940 C.3    81  LEU81       0.1693
     70  C          8.8600    3.8880   32.4870 C.2    81  LEU81       0.2591
     71  O          8.3690    4.8260   33.1110 O.2    81  LEU81      -0.2718
     72  CB        10.3390    2.2660   33.6410 C.3    81  LEU81       0.0284
     73  CG        10.4450    1.1260   34.6480 C.3    81  LEU81       0.0019
     74  CD1       11.8620    0.9960   35.1580 C.3    81  LEU81       0.0001
     75  CD2        9.4880    1.3610   35.8060 C.3    81  LEU81       0.0001
     76  N          9.3580    4.0170   31.2620 N.am   82  MET82      -0.1979
     77  CA         9.4230    5.3150   30.6180 C.3    82  MET82       0.1605
     78  C          8.0710    5.8150   30.1660 C.2    82  MET82       0.2287
     79  O          7.7820    7.0050   30.3220 O.2    82  MET82      -0.2864
     80  CB        10.3660    5.2920   29.4060 C.3    82  MET82       0.0413
     81  CG        11.8440    5.2830   29.7640 C.3    82  MET82       0.0598
     82  SD        12.9070    5.1580   28.3010 S.3    82  MET82      -0.1393
     83  CE        14.4050    5.7900   29.0120 C.3    82  MET82       0.0692
     84  N          6.5480    7.0930   33.2870 N.3    85  LEU85      -0.1245
     85  CA         7.0930    8.3900   33.6840 C.3    85  LEU85       0.1561
     86  C          6.5520    9.5590   32.8560 C.2    85  LEU85       0.2260
     87  O          6.1910   10.6120   33.3850 O.2    85  LEU85      -0.2867
     88  CB         8.6010    8.3490   33.5950 C.3    85  LEU85       0.0270
     89  CG         9.2870    9.6830   33.8310 C.3    85  LEU85       0.0019
     90  CD1        9.0670   10.1310   35.2790 C.3    85  LEU85       0.0001
     91  CD2       10.7480    9.5360   33.5010 C.3    85  LEU85       0.0001
     92  N          2.8070   10.2210   33.7580 N.3    88  ARG88      -0.1245
     93  CA         2.7870   10.9790   35.0150 C.3    88  ARG88       0.1563
     94  C          3.1990   12.4270   34.8500 C.2    88  ARG88       0.2260
     95  O          2.7470   13.2880   35.5960 O.2    88  ARG88      -0.2867
     96  CB         3.7070   10.3460   36.0560 C.3    88  ARG88       0.0307
     97  CG         3.2670    9.0150   36.5270 C.3    88  ARG88       0.0489
     98  CD         3.9680    8.6530   37.8060 C.3    88  ARG88       0.2205
     99  NE         5.4250    8.6050   37.7170 N.pl3  88  ARG88      -0.0865
    100  CZ         6.1140    7.5410   37.3070 C.cat  88  ARG88       0.5346
    101  NH1        5.4880    6.4430   36.8790 N.pl3  88  ARG88       0.1354
    102  NH2        7.4330    7.5810   37.2990 N.pl3  88  ARG88       0.1354
    103  N          8.9940   11.8200   38.5230 N.3    98  PHE98      -0.1241
    104  CA         9.4170   10.4670   38.8670 C.3    98  PHE98       0.1605
    105  C          8.5630    9.9290   39.9940 C.2    98  PHE98       0.2264
    106  O          8.1780    8.7650   39.9850 O.2    98  PHE98      -0.2867
    107  CB        10.8890   10.4530   39.2420 C.3    98  PHE98       0.0534
    108  CG        11.7950   10.6250   38.0620 C.ar   98  PHE98      -0.0203
    109  CD1       12.1930   11.8920   37.6490 C.ar   98  PHE98      -0.0042
    110  CD2       12.2330    9.5290   37.3500 C.ar   98  PHE98      -0.0042
    111  CE1       13.0290   12.0500   36.5340 C.ar   98  PHE98      -0.0003
    112  CE2       13.0590    9.6920   36.2440 C.ar   98  PHE98      -0.0003
    113  CZ        13.4470   10.9550   35.8420 C.ar   98  PHE98      -0.0000
    114  N         23.6080   13.9120   35.9130 N.3   112  VAL112     -0.1245
    115  CA        24.2350   12.7150   35.3640 C.3   112  VAL112      0.1561
    116  C         24.6560   12.9360   33.9140 C.2   112  VAL112      0.2260
    117  O         23.8740   13.4400   33.1060 O.2   112  VAL112     -0.2867
    118  CB        23.2880   11.5110   35.4460 C.3   112  VAL112      0.0252
    119  CG1       23.9470   10.2770   34.8580 C.3   112  VAL112      0.0019
    120  CG2       22.8780   11.2820   36.8930 C.3   112  VAL112      0.0019
    121  N         22.5450   12.1700   30.5490 N.3   115  MET115     -0.1245
    122  CA        21.1600   11.8960   30.9200 C.3   115  MET115      0.1570
    123  C         20.2090   13.0030   30.4640 C.2   115  MET115      0.2261
    124  O         19.0090   12.7730   30.3260 O.2   115  MET115     -0.2867
    125  CB        21.0400   11.6830   32.4390 C.3   115  MET115      0.0387
    126  CG        19.6440   11.2850   32.8790 C.3   115  MET115      0.0595
    127  SD        19.4590   10.7630   34.5890 S.3   115  MET115     -0.1393
    128  CE        19.7250   12.3140   35.4510 C.3   115  MET115      0.0692
    129  N         18.4510   12.0370   27.4580 N.3   118  ILE118     -0.1231
    130  CA        17.3140   11.1470   27.6670 C.3   118  ILE118      0.1692
    131  C         16.1110   11.9260   28.2020 C.2   118  ILE118      0.2592
    132  O         14.9940   11.7640   27.7140 O.2   118  ILE118     -0.2718
    133  CB        17.6960    9.9910   28.6010 C.3   118  ILE118      0.0266
    134  CG1       18.7530    9.1240   27.9140 C.3   118  ILE118      0.0019
    135  CG2       16.4760    9.1440   28.9420 C.3   118  ILE118      0.0020
    136  CD1       19.2100    7.9500   28.7240 C.3   118  ILE118      0.0001
    137  N         16.3410   12.7800   29.1950 N.am  119  PHE119     -0.1976
    138  CA        15.3160   13.7150   29.6690 C.3   119  PHE119      0.1639
    139  C         14.5930   14.4460   28.5340 C.2   119  PHE119      0.2290
    140  O         13.3540   14.4390   28.4760 O.2   119  PHE119     -0.2864
    141  CB        15.9350   14.7610   30.6020 C.3   119  PHE119      0.0560
    142  CG        15.9660   14.3500   32.0330 C.ar  119  PHE119     -0.0200
    143  CD1       16.2950   13.0500   32.3830 C.ar  119  PHE119     -0.0042
    144  CD2       15.6870   15.2670   33.0330 C.ar  119  PHE119     -0.0042
    145  CE1       16.3270   12.6640   33.7050 C.ar  119  PHE119     -0.0003
    146  CE2       15.7180   14.8940   34.3630 C.ar  119  PHE119     -0.0003
    147  CZ        16.0350   13.5910   34.7010 C.ar  119  PHE119     -0.0000
    148  N         12.3220   12.3600   26.6950 N.3   122  LEU122     -0.1245
    149  CA        11.1470   12.0630   27.5120 C.3   122  LEU122      0.1561
    150  C         10.2140   13.2810   27.5730 C.2   122  LEU122      0.2260
    151  O          9.0100   13.1490   27.4260 O.2   122  LEU122     -0.2867
    152  CB        11.5730   11.6440   28.9280 C.3   122  LEU122      0.0270
    153  CG        12.2510   10.2860   29.0710 C.3   122  LEU122      0.0019
    154  CD1       13.1500   10.2590   30.3100 C.3   122  LEU122      0.0001
    155  CD2       11.2210    9.1470   29.1120 C.3   122  LEU122      0.0001
    156  N         18.6020    4.5240   26.5620 N.3   211  GLY211     -0.1225
    157  CA        18.6870    4.4490   27.9990 C.3   211  GLY211      0.1811
    158  C         19.4490    3.2210   28.4580 C.2   211  GLY211      0.2280
    159  O         20.2800    3.2990   29.3710 O.2   211  GLY211     -0.2866
    160  N         23.1550    3.4960   28.1650 N.3   214  HIS214     -0.1226
    161  CA        23.7690    4.2670   29.2490 C.3   214  HIS214      0.1752
    162  C         23.8980    3.4500   30.5270 C.2   214  HIS214      0.2595
    163  O         24.9520    3.4410   31.1670 O.2   214  HIS214     -0.2718
    164  CB        22.9910    5.5470   29.5150 C.3   214  HIS214      0.0759
    165  CG        23.4200    6.6800   28.6460 C.ar  214  HIS214      0.0818
    166  ND1       22.8390    6.9400   27.4210 N.ar  214  HIS214     -0.2268
    167  CD2       24.4130    7.5890   28.7900 C.ar  214  HIS214      0.1154
    168  CE1       23.4320    7.9790   26.8670 C.ar  214  HIS214      0.1986
    169  NE2       24.3950    8.3900   27.6760 N.ar  214  HIS214     -0.2212
    170  N         22.8240    2.7580   30.8820 N.am  215  LEU215     -0.1980
    171  CA        22.8110    1.8610   32.0270 C.3   215  LEU215      0.1596
    172  C         23.7900    0.6930   31.8810 C.2   215  LEU215      0.2287
    173  O         24.3180    0.2010   32.8800 O.2   215  LEU215     -0.2864
    174  CB        21.4080    1.3180   32.2430 C.3   215  LEU215      0.0297
    175  CG        20.3330    2.3370   32.6200 C.3   215  LEU215      0.0022
    176  CD1       19.0210    1.6320   32.8770 C.3   215  LEU215      0.0001
    177  CD2       20.7630    3.1240   33.8380 C.3   215  LEU215      0.0001
    178  N         27.2540    1.8300   32.9540 N.3   218  MET218     -0.1245
    179  CA        27.4840    2.1470   34.3580 C.3   218  MET218      0.1570
    180  C         27.3050    0.9050   35.2260 C.2   218  MET218      0.2261
    181  O         27.3980    0.9650   36.4560 O.2   218  MET218     -0.2867
    182  CB        26.5530    3.2740   34.8050 C.3   218  MET218      0.0387
    183  CG        26.7140    4.5410   33.9660 C.3   218  MET218      0.0595
    184  SD        25.9270    5.9960   34.6760 S.3   218  MET218     -0.1393
    185  CE        24.2260    5.4790   34.6760 C.3   218  MET218      0.0692
    186  N         23.5240   -1.3710   41.9660 N.3   226  LEU226     -0.1245
    187  CA        22.3550   -1.9380   41.3020 C.3   226  LEU226      0.1561
    188  C         21.8770   -3.1950   42.0170 C.2   226  LEU226      0.2260
    189  O         22.6690   -4.0960   42.2900 O.2   226  LEU226     -0.2867
    190  CB        22.6680   -2.2550   39.8370 C.3   226  LEU226      0.0270
    191  CG        22.7670   -1.0310   38.9250 C.3   226  LEU226      0.0019
    192  CD1       23.1750   -1.4190   37.5040 C.3   226  LEU226      0.0001
    193  CD2       21.4440   -0.2770   38.9240 C.3   226  LEU226      0.0001
    194  N         17.6930   -5.6940   38.9860 N.3   230  LEU230     -0.1245
    195  CA        18.0170   -4.7830   37.8970 C.3   230  LEU230      0.1561
    196  C         19.2210   -5.2990   37.1340 C.2   230  LEU230      0.2260
    197  O         19.2530   -5.2440   35.9050 O.2   230  LEU230     -0.2867
    198  CB        18.2790   -3.3740   38.4180 C.3   230  LEU230      0.0270
    199  CG        17.0400   -2.7350   39.0420 C.3   230  LEU230      0.0019
    200  CD1       17.3820   -1.4200   39.7230 C.3   230  LEU230      0.0001
    201  CD2       15.9820   -2.5340   37.9850 C.3   230  LEU230      0.0001
    202  N         19.2180   -6.1300   33.2610 N.3   234  LEU234     -0.1245
    203  CA        20.1160   -5.3510   32.4360 C.3   234  LEU234      0.1561
    204  C         20.8960   -6.2660   31.5170 C.2   234  LEU234      0.2260
    205  O         21.1510   -5.9290   30.3690 O.2   234  LEU234     -0.2867
    206  CB        21.0630   -4.5200   33.3020 C.3   234  LEU234      0.0270
    207  CG        21.7750   -3.4240   32.5100 C.3   234  LEU234      0.0019
    208  CD1       20.7440   -2.4810   31.9240 C.3   234  LEU234      0.0001
    209  CD2       22.7750   -2.6590   33.3640 C.3   234  LEU234      0.0001
@<TRIPOS>BOND
     1   156   157    1
     2   148   149    1
     3   168   166   ar
     4   168   169   ar
     5   166   165   ar
     6   151   150    2
     7   129   130    1
     8   149   150    1
     9   149   152    1
    10   130   131    1
    11   130   133    1
    12   169   167   ar
    13   132   131    2
    14   134   133    1
    15   134   136    1
    16   157   158    1
    17   160   161    1
    18   131   137   am
    19    82    83    1
    20    82    81    1
    21   158   159    2
    22   140   139    2
    23   139   138    1
    24   133   135    1
    25   165   167   ar
    26   165   164    1
    27   152   153    1
    28   153   155    1
    29   153   154    1
    30   137   138    1
    31   161   164    1
    32   161   162    1
    33    80    81    1
    34    80    77    1
    35   138   141    1
    36    62    63    2
    37    62    61    1
    38    67    65    1
    39    46    47    1
    40    64    65    1
    41    64    61    1
    42    78    79    2
    43    78    77    1
    44    65    66    1
    45   124   123    2
    46   205   204    2
    47   123   122    1
    48    60    61    1
    49    60    48   am
    50   162   170   am
    51   162   163    2
    52   121   122    1
    53   141   142    1
    54    77    76    1
    55   170   171    1
    56   122   125    1
    57    47    48    1
    58    47    50    1
    59    48    49    2
    60    76    70   am
    61    52    54   ar
    62    52    51   ar
    63    54    55   ar
    64   204   203    1
    65   172   171    1
    66   172   173    2
    67   208   207    1
    68   171   174    1
    69   142   143   ar
    70   142   144   ar
    71    51    50    1
    72    51    53   ar
    73    68    69    1
    74   174   175    1
    75    55    57   ar
    76    55    53   ar
    77   143   145   ar
    78   203   202    1
    79   203   206    1
    80   125   126    1
    81    70    69    1
    82    70    71    2
    83   207   206    1
    84   207   209    1
    85   175   176    1
    86   175   177    1
    87    57    59   ar
    88    53    56   ar
    89    86    87    2
    90    86    85    1
    91   126   127    1
    92   178   179    1
    93   144   146   ar
    94    69    72    1
    95   117   116    2
    96    84    85    1
    97    91    89    1
    98    59    58   ar
    99    56    58   ar
   100    88    85    1
   101    88    89    1
   102    72    73    1
   103   145   147   ar
   104    92    93    1
   105    89    90    1
   106   116   115    1
   107   183   184    1
   108   183   182    1
   109   179   182    1
   110   179   180    1
   111   146   147   ar
   112   127   128    1
   113    73    74    1
   114    73    75    1
   115   184   185    1
   116    94    93    1
   117    94    95    2
   118   119   118    1
   119    93    96    1
   120   180   181    2
   121   115   118    1
   122   115   114    1
   123   118   120    1
   124   113   112   ar
   125   113   111   ar
   126   197   196    2
   127    96    97    1
   128   112   110   ar
   129    97    98    1
   130   111   109   ar
   131     7     8    1
   132     7     6    1
   133   101   100    1
   134   196   195    1
   135   102   100    1
   136   100    99    2
   137   110   108   ar
   138    15    14    1
   139   192   191    1
   140   109   108   ar
   141    99    98    1
   142   195   198    1
   143   195   194    1
   144     6     5    1
   145   201   199    1
   146    45    43   ar
   147   108   107    1
   148    36    33    1
   149   198   199    1
   150   103   104    1
   151    44    43   ar
   152    43    42    1
   153    14    13    1
   154    14    16    1
   155   104   107    1
   156   104   105    1
   157   193   191    1
   158   191   190    1
   159    13    10    1
   160   199   200    1
   161    40    39    2
   162    33    34    1
   163    33    32    1
   164    41    42    1
   165    41    38    1
   166    35    34    2
   167     5     2    1
   168    23    21    1
   169    39    38    1
   170   190   187    1
   171    12    11    2
   172   106   105    2
   173     2     1    1
   174     2     3    1
   175    11    10    1
   176    11    17   am
   177    10     9    1
   178    38    37    1
   179    32    26   am
   180    18    17    1
   181    18    21    1
   182    18    19    1
   183    21    22    1
   184    31    29    1
   185     4     3    2
   186   187   186    1
   187   187   188    1
   188    20    19    2
   189    26    27    2
   190    26    25    1
   191    29    28    1
   192    29    30    1
   193    28    25    1
   194   188   189    2
   195    25    24    1
