@<TRIPOS>MOLECULE
tmp/5t23A00.pdb
 189 180 0 0 0
SMALL
GASTEIGER

@<TRIPOS>ATOM
      1  N        -53.2290   14.5410  -41.9620 N.3   548  LYS548     -0.1245
      2  CA       -52.6560   15.7970  -42.4370 C.3   548  LYS548      0.1561
      3  C        -51.1280   15.7620  -42.4580 C.2   548  LYS548      0.2260
      4  O        -50.5150   14.7440  -42.1430 O.2   548  LYS548     -0.2867
      5  CB       -53.1710   16.9890  -41.6080 C.3   548  LYS548      0.0271
      6  CG       -52.8890   16.9300  -40.1110 C.3   548  LYS548      0.0035
      7  CD       -52.9920   18.3110  -39.4730 C.3   548  LYS548      0.0206
      8  CE       -52.7950   18.2740  -37.9620 C.3   548  LYS548      0.1093
      9  NZ       -54.0290   17.8640  -37.2320 N.3   548  LYS548     -0.1314
     10  N        -47.6660   18.2110  -41.1360 N.3   550  MET550     -0.1230
     11  CA       -47.4510   19.0520  -39.9520 C.3   550  MET550      0.1702
     12  C        -46.5600   20.2720  -40.1890 C.2   550  MET550      0.2592
     13  O        -45.6670   20.2520  -41.0340 O.2   550  MET550     -0.2718
     14  CB       -46.9480   18.2010  -38.7730 C.3   550  MET550      0.0401
     15  CG       -48.0030   17.2460  -38.2170 C.3   550  MET550      0.0596
     16  SD       -47.4490   16.0710  -36.9580 S.3   550  MET550     -0.1393
     17  CE       -46.9020   17.1810  -35.6590 C.3   550  MET550      0.0692
     18  N        -46.8130   21.3270  -39.4160 N.am  551  ALA551     -0.1966
     19  CA       -46.1930   22.6400  -39.6120 C.3   551  ALA551      0.1728
     20  C        -44.7490   22.7510  -39.1080 C.2   551  ALA551      0.2616
     21  O        -44.3810   23.7450  -38.4720 O.2   551  ALA551     -0.2715
     22  CB       -47.0620   23.7270  -38.9890 C.3   551  ALA551      0.0334
     23  N        -43.9370   21.7340  -39.3990 N.am  552  SER552     -0.1950
     24  CA       -42.4970   21.7880  -39.1340 C.3   552  SER552      0.1924
     25  C        -41.7060   21.7770  -40.4430 C.2   552  SER552      0.2314
     26  O        -42.2160   21.3380  -41.4740 O.2   552  SER552     -0.2863
     27  CB       -42.0600   20.6280  -38.2360 C.3   552  SER552      0.2116
     28  OG       -40.6460   20.5700  -38.1340 O.3   552  SER552     -0.2180
     29  N        -43.4720   15.6780  -41.2990 N.3   556  PRO556     -0.2116
     30  CA       -44.0110   14.4480  -40.7720 C.3   556  PRO556      0.1372
     31  C        -45.4800   14.2720  -41.1280 C.2   556  PRO556      0.2244
     32  O        -46.2010   15.2560  -41.2910 O.2   556  PRO556     -0.2868
     33  CB       -43.8640   14.6360  -39.2580 C.3   556  PRO556      0.0268
     34  CG       -43.7650   16.1160  -39.0310 C.3   556  PRO556      0.0207
     35  CD       -43.6990   16.7970  -40.3670 C.3   556  PRO556      0.0892
     36  N        -49.2890   13.1920  -40.0540 N.3   558  TRP558     -0.1241
     37  CA       -50.1740   13.0780  -38.9000 C.3   558  TRP558      0.1605
     38  C        -51.2800   12.1410  -39.2810 C.2   558  TRP558      0.2264
     39  O        -52.1930   12.5180  -40.0170 O.2   558  TRP558     -0.2867
     40  CB       -50.7360   14.4380  -38.5210 C.3   558  TRP558      0.0550
     41  CG       -51.7920   14.3740  -37.4460 C.ar  558  TRP558      0.0003
     42  CD1      -53.1400   14.0600  -37.5920 C.ar  558  TRP558      0.0946
     43  CD2      -51.6130   14.6240  -36.0170 C.ar  558  TRP558      0.0152
     44  NE1      -53.7820   14.0950  -36.3850 N.ar  558  TRP558     -0.2442
     45  CE2      -52.9280   14.4310  -35.4010 C.ar  558  TRP558      0.0810
     46  CE3      -50.5350   14.9750  -35.2140 C.ar  558  TRP558      0.0012
     47  CZ2      -53.1320   14.5910  -34.0450 C.ar  558  TRP558      0.0191
     48  CZ3      -50.7530   15.1340  -33.8450 C.ar  558  TRP558      0.0001
     49  CH2      -52.0220   14.9450  -33.2770 C.ar  558  TRP558      0.0015
     50  N        -47.3200    9.2680  -35.9050 N.3   577  ILE577     -0.1245
     51  CA       -46.5650   10.2980  -36.6090 C.3   577  ILE577      0.1561
     52  C        -45.3810    9.6660  -37.3360 C.2   577  ILE577      0.2260
     53  O        -44.4750    9.1250  -36.7000 O.2   577  ILE577     -0.2867
     54  CB       -46.0700   11.4010  -35.6440 C.3   577  ILE577      0.0252
     55  CG1      -47.2250   12.3210  -35.2520 C.3   577  ILE577      0.0019
     56  CG2      -44.9330   12.2050  -36.2650 C.3   577  ILE577      0.0019
     57  CD1      -46.9310   13.2280  -34.0750 C.3   577  ILE577      0.0001
     58  N        -42.0320   10.3300  -39.4710 N.3   579  LYS579     -0.1245
     59  CA       -41.0930   11.4480  -39.5620 C.3   579  LYS579      0.1561
     60  C        -39.7690   11.0770  -40.2270 C.2   579  LYS579      0.2260
     61  O        -39.2540    9.9760  -40.0270 O.2   579  LYS579     -0.2867
     62  CB       -40.8450   12.0390  -38.1730 C.3   579  LYS579      0.0271
     63  CG       -40.5860   13.5360  -38.1690 C.3   579  LYS579      0.0035
     64  CD       -39.1180   13.8940  -37.9680 C.3   579  LYS579      0.0206
     65  CE       -38.6800   13.7520  -36.5140 C.3   579  LYS579      0.1093
     66  NZ       -39.5250   14.5360  -35.5710 N.3   579  LYS579     -0.1314
     67  N        -44.0120    8.0850  -24.3990 N.3   613  TYR613     -0.1241
     68  CA       -44.8040    7.6900  -25.5670 C.3   613  TYR613      0.1605
     69  C        -44.0530    6.7010  -26.4560 C.2   613  TYR613      0.2264
     70  O        -42.8180    6.7140  -26.5070 O.2   613  TYR613     -0.2867
     71  CB       -45.1930    8.9400  -26.3760 C.3   613  TYR613      0.0534
     72  CG       -44.0050    9.8110  -26.7390 C.ar  613  TYR613     -0.0201
     73  CD1      -43.5700   10.8260  -25.8850 C.ar  613  TYR613     -0.0009
     74  CD2      -43.3040    9.6070  -27.9240 C.ar  613  TYR613     -0.0009
     75  CE1      -42.4760   11.6150  -26.2060 C.ar  613  TYR613      0.0417
     76  CE2      -42.2130   10.3890  -28.2500 C.ar  613  TYR613      0.0417
     77  CZ       -41.8070   11.3930  -27.3910 C.ar  613  TYR613      0.1957
     78  OH       -40.7180   12.1670  -27.7190 O.3   613  TYR613     -0.2866
     79  N        -43.7620    7.7310  -34.2550 N.3   625  ILE625     -0.1231
     80  CA       -43.9700    8.2510  -32.9110 C.3   625  ILE625      0.1692
     81  C        -45.4560    8.1080  -32.5650 C.2   625  ILE625      0.2592
     82  O        -46.3230    8.3870  -33.4020 O.2   625  ILE625     -0.2718
     83  CB       -43.5630    9.7410  -32.8230 C.3   625  ILE625      0.0266
     84  CG1      -42.0450    9.9090  -32.9530 C.3   625  ILE625      0.0019
     85  CG2      -44.0350   10.3700  -31.5190 C.3   625  ILE625      0.0020
     86  CD1      -41.5730   10.2630  -34.3470 C.3   625  ILE625      0.0001
     87  N        -45.7520    7.6800  -31.3410 N.am  626  GLU626     -0.1966
     88  CA       -47.1350    7.5970  -30.8760 C.3   626  GLU626      0.1733
     89  C        -47.7440    8.9800  -30.6360 C.2   626  GLU626      0.2616
     90  O        -47.0850    9.8660  -30.0830 O.2   626  GLU626     -0.2715
     91  CB       -47.2070    6.7870  -29.5880 C.3   626  GLU626      0.0429
     92  CG       -48.6020    6.7150  -28.9840 C.3   626  GLU626      0.1163
     93  CD       -48.5890    6.3280  -27.5250 C.2   626  GLU626      0.3649
     94  OE1      -49.6860    6.2050  -26.9540 O.co2 626  GLU626     -0.2457
     95  OE2      -47.4920    6.1510  -26.9470 O.co2 626  GLU626     -0.2457
     96  N        -49.0030    9.1510  -31.0440 N.am  627  ILE627     -0.1963
     97  CA       -49.7380   10.3910  -30.7880 C.3   627  ILE627      0.1727
     98  C        -50.3770   10.3520  -29.4060 C.2   627  ILE627      0.2616
     99  O        -51.2050    9.4820  -29.1230 O.2   627  ILE627     -0.2715
    100  CB       -50.8220   10.6700  -31.8650 C.3   627  ILE627      0.0290
    101  CG1      -50.1660   11.0730  -33.1940 C.3   627  ILE627      0.0022
    102  CG2      -51.8040   11.7430  -31.3950 C.3   627  ILE627      0.0023
    103  CD1      -51.1430   11.4220  -34.2970 C.3   627  ILE627      0.0001
    104  N        -49.9760   11.2870  -28.5460 N.am  628  VAL628     -0.1977
    105  CA       -50.6450   11.4780  -27.2610 C.3   628  VAL628      0.1596
    106  C        -51.8540   12.3680  -27.5080 C.2   628  VAL628      0.2287
    107  O        -51.7230   13.4830  -28.0160 O.2   628  VAL628     -0.2864
    108  CB       -49.7410   12.1200  -26.1820 C.3   628  VAL628      0.0276
    109  CG1      -50.4220   12.0500  -24.8220 C.3   628  VAL628      0.0022
    110  CG2      -48.3840   11.4400  -26.1260 C.3   628  VAL628      0.0022
    111  N        -55.1110   14.7810  -26.9500 N.3   630  ASP630     -0.1225
    112  CA       -55.4000   16.0080  -26.1800 C.3   630  ASP630      0.1805
    113  C        -54.1580   16.7650  -25.6870 C.2   630  ASP630      0.2598
    114  O        -54.1900   17.3820  -24.6270 O.2   630  ASP630     -0.2718
    115  CB       -56.3380   15.7200  -24.9880 C.3   630  ASP630      0.1424
    116  CG       -57.6620   15.0860  -25.4050 C.2   630  ASP630      0.3668
    117  OD1      -58.3030   15.5740  -26.3640 O.co2 630  ASP630     -0.2456
    118  OD2      -58.0730   14.1040  -24.7460 O.co2 630  ASP630     -0.2456
    119  N        -53.0760   16.7310  -26.4560 N.am  631  ALA631     -0.1966
    120  CA       -51.8390   17.4040  -26.0540 C.3   631  ALA631      0.1728
    121  C        -51.4670   18.5960  -26.9470 C.2   631  ALA631      0.2617
    122  O        -51.8540   18.6630  -28.1150 O.2   631  ALA631     -0.2715
    123  CB       -50.6990   16.4040  -25.9890 C.3   631  ALA631      0.0334
    124  N        -50.7200   19.5390  -26.3800 N.am  632  THR632     -0.1937
    125  CA       -50.2960   20.7420  -27.1030 C.3   632  THR632      0.2028
    126  C        -48.9200   21.2060  -26.6260 C.2   632  THR632      0.2642
    127  O        -48.5720   21.0360  -25.4550 O.2   632  THR632     -0.2714
    128  CB       -51.3350   21.8930  -26.9950 C.3   632  THR632      0.1808
    129  OG1      -50.9540   22.9760  -27.8550 O.3   632  THR632     -0.2208
    130  CG2      -51.4620   22.4020  -25.5700 C.3   632  THR632      0.0379
    131  N        -48.1390   21.7740  -27.5440 N.am  633  THR633     -0.1950
    132  CA       -46.8280   22.3340  -27.2030 C.3   633  THR633      0.1897
    133  C        -46.9970   23.5830  -26.3420 C.2   633  THR633      0.2313
    134  O        -48.0370   24.2450  -26.3990 O.2   633  THR633     -0.2863
    135  CB       -45.9880   22.6750  -28.4580 C.3   633  THR633      0.1794
    136  OG1      -46.7390   23.5220  -29.3400 O.3   633  THR633     -0.2208
    137  CG2      -45.5790   21.4030  -29.2050 C.3   633  THR633      0.0378
    138  N        -47.1940   26.9190  -28.4720 N.3   636  LYS636     -0.1245
    139  CA       -48.5080   27.1900  -29.0550 C.3   636  LYS636      0.1561
    140  C        -49.4530   27.8350  -28.0340 C.2   636  LYS636      0.2260
    141  O        -50.2670   28.6900  -28.3930 O.2   636  LYS636     -0.2867
    142  CB       -49.1130   25.9060  -29.6410 C.3   636  LYS636      0.0271
    143  CG       -50.1350   26.1160  -30.7540 C.3   636  LYS636      0.0035
    144  CD       -51.5630   26.1540  -30.2230 C.3   636  LYS636      0.0206
    145  CE       -52.5860   26.1440  -31.3480 C.3   636  LYS636      0.1093
    146  NZ       -52.6720   24.8170  -32.0220 N.3   636  LYS636     -0.1314
    147  N        -40.6730   24.5870  -27.9370 N.3   687  ASP687     -0.1239
    148  CA       -41.4880   23.9070  -28.9480 C.3   687  ASP687      0.1674
    149  C        -41.3820   22.3850  -28.8010 C.2   687  ASP687      0.2266
    150  O        -42.1650   21.6270  -29.3890 O.2   687  ASP687     -0.2867
    151  CB       -41.0520   24.3340  -30.3560 C.3   687  ASP687      0.1410
    152  CG       -42.0070   23.8590  -31.4360 C.2   687  ASP687      0.3668
    153  OD1      -43.1900   24.2580  -31.4030 O.co2 687  ASP687     -0.2456
    154  OD2      -41.5760   23.0890  -32.3200 O.co2 687  ASP687     -0.2456
    155  N        -44.3230   19.5360  -24.2060 N.3   690  MET690     -0.1245
    156  CA       -45.7660   19.4790  -24.4070 C.3   690  MET690      0.1570
    157  C        -46.5380   19.2800  -23.1030 C.2   690  MET690      0.2261
    158  O        -45.9470   18.9960  -22.0580 O.2   690  MET690     -0.2867
    159  CB       -46.1070   18.3660  -25.3960 C.3   690  MET690      0.0387
    160  CG       -45.5010   18.5620  -26.7740 C.3   690  MET690      0.0595
    161  SD       -46.3020   17.5820  -28.0560 S.3   690  MET690     -0.1393
    162  CE       -47.9670   18.2360  -28.0540 C.3   690  MET690      0.0692
    163  N        -44.7490   16.7370  -20.8620 N.3   698  PHE698     -0.1241
    164  CA       -43.8350   15.7450  -21.4580 C.3   698  PHE698      0.1605
    165  C        -42.9570   16.2860  -22.5810 C.2   698  PHE698      0.2264
    166  O        -43.4280   17.0240  -23.4420 O.2   698  PHE698     -0.2867
    167  CB       -44.5820   14.4830  -21.9280 C.3   698  PHE698      0.0534
    168  CG       -45.5970   14.7150  -23.0250 C.ar  698  PHE698     -0.0203
    169  CD1      -46.8020   15.3700  -22.7700 C.ar  698  PHE698     -0.0042
    170  CD2      -45.3750   14.2180  -24.3040 C.ar  698  PHE698     -0.0042
    171  CE1      -47.7440   15.5560  -23.7780 C.ar  698  PHE698     -0.0003
    172  CE2      -46.3100   14.4000  -25.3130 C.ar  698  PHE698     -0.0003
    173  CZ       -47.4970   15.0670  -25.0520 C.ar  698  PHE698     -0.0000
    174  N        -40.3970   16.0410  -25.9900 N.3   700  ILE700     -0.1231
    175  CA       -40.4570   15.3760  -27.2980 C.3   700  ILE700      0.1692
    176  C        -39.1930   15.6300  -28.1350 C.2   700  ILE700      0.2592
    177  O        -38.2250   16.2160  -27.6470 O.2   700  ILE700     -0.2718
    178  CB       -41.7350   15.7440  -28.1040 C.3   700  ILE700      0.0266
    179  CG1      -41.7530   17.2360  -28.4870 C.3   700  ILE700      0.0019
    180  CG2      -43.0050   15.3380  -27.3540 C.3   700  ILE700      0.0020
    181  CD1      -42.8660   17.6320  -29.4380 C.3   700  ILE700      0.0001
    182  N        -39.2030   15.1450  -29.3780 N.am  701  ASP701     -0.1974
    183  CA       -38.1880   15.4660  -30.3960 C.3   701  ASP701      0.1709
    184  C        -36.7470   15.4370  -29.8650 C.2   701  ASP701      0.2293
    185  O        -36.0540   16.4530  -29.8690 O.2   701  ASP701     -0.2864
    186  CB       -38.5140   16.8240  -31.0500 C.3   701  ASP701      0.1436
    187  CG       -37.9720   16.9490  -32.4760 C.2   701  ASP701      0.3671
    188  OD1      -36.7350   16.9700  -32.6600 O.co2 701  ASP701     -0.2456
    189  OD2      -38.7910   17.0550  -33.4180 O.co2 701  ASP701     -0.2456
@<TRIPOS>BOND
     1     3     2    1
     2     3     4    2
     3     2     1    1
     4     2     5    1
     5     5     6    1
     6    26    25    2
     7    29    30    1
     8    29    35    1
     9    32    31    2
    10    10    11    1
    11    31    30    1
    12    13    12    2
    13    30    33    1
    14    25    24    1
    15    35    34    1
    16    60    61    2
    17    60    59    1
    18    12    11    1
    19    12    18   am
    20     6     7    1
    21    36    37    1
    22    39    38    2
    23    11    14    1
    24    19    18    1
    25    19    20    1
    26    19    22    1
    27    59    58    1
    28    59    62    1
    29     7     8    1
    30    23    24    1
    31    23    20   am
    32    38    37    1
    33    33    34    1
    34    24    27    1
    35    20    21    2
    36    37    40    1
    37    14    15    1
    38    40    41    1
    39    27    28    1
    40    15    16    1
    41    62    63    1
    42    63    64    1
    43    64    65    1
    44     8     9    1
    45    42    41   ar
    46    42    44   ar
    47    41    43   ar
    48    52    53    2
    49    52    51    1
    50    16    17    1
    51    51    50    1
    52    51    54    1
    53    65    66    1
    54    44    45   ar
    55    56    54    1
    56    43    45   ar
    57    43    46   ar
    58    54    55    1
    59    45    47   ar
    60    55    57    1
    61    46    48   ar
    62    86    84    1
    63   103   101    1
    64    79    80    1
    65    47    49   ar
    66    48    49   ar
    67   189   187   ar
    68    82    81    2
    69   101   100    1
    70    84    83    1
    71    80    83    1
    72    80    81    1
    73    83    85    1
    74   188   187   ar
    75    81    87   am
    76   187   186    1
    77   154   152   ar
    78   146   145    1
    79   100   102    1
    80   100    97    1
    81   152   153   ar
    82   152   151    1
    83   145   144    1
    84    87    88    1
    85   186   183    1
    86    96    97    1
    87    96    89   am
    88    88    89    1
    89    88    91    1
    90    97    98    1
    91   143   144    1
    92   143   142    1
    93    89    90    2
    94   183   184    1
    95   183   182    1
    96   151   148    1
    97   185   184    2
    98   142   139    1
    99    91    92    1
   100   181   179    1
   101    98    99    2
   102    98   104   am
   103   150   149    2
   104   182   176   am
   105   136   135    1
   106   137   135    1
   107   139   138    1
   108   139   140    1
   109    92    93    1
   110   148   149    1
   111   148   147    1
   112   104   105    1
   113   179   178    1
   114   135   132    1
   115   141   140    2
   116    76    74   ar
   117    76    77   ar
   118   176   177    2
   119   176   175    1
   120   122   121    2
   121   178   180    1
   122   178   175    1
   123   161   162    1
   124   161   160    1
   125   107   106    2
   126    74    72   ar
   127   129   128    1
   128    78    77    1
   129   131   132    1
   130   131   126   am
   131    93    94   ar
   132    93    95   ar
   133   106   105    1
   134    77    75   ar
   135   175   174    1
   136   105   108    1
   137   132   133    1
   138   125   128    1
   139   125   126    1
   140   125   124    1
   141   128   130    1
   142   111   112    1
   143   121   124   am
   144   121   120    1
   145   160   159    1
   146    72    71    1
   147    72    73   ar
   148   126   127    2
   149    70    69    2
   150    69    68    1
   151   119   120    1
   152   119   113   am
   153   134   133    2
   154    71    68    1
   155   117   116   ar
   156    75    73   ar
   157   108   110    1
   158   108   109    1
   159   112   113    1
   160   112   115    1
   161   120   123    1
   162   113   114    2
   163    68    67    1
   164   116   115    1
   165   116   118   ar
   166   159   156    1
   167   172   173   ar
   168   172   170   ar
   169   173   171   ar
   170   156   155    1
   171   156   157    1
   172   170   168   ar
   173   171   169   ar
   174   166   165    2
   175   157   158    2
   176   168   169   ar
   177   168   167    1
   178   165   164    1
   179   167   164    1
   180   164   163    1
