@<TRIPOS>MOLECULE
tmp/5t27A00.pdb
 177 170 0 0 0
SMALL
GASTEIGER

@<TRIPOS>ATOM
      1  N         -9.5320   -0.4730   14.8320 N.3   559  THR559     -0.1203
      2  CA       -10.7660    0.1360   14.3210 C.3   559  THR559      0.1994
      3  C        -10.6370    1.6560   14.2980 C.2   559  THR559      0.2618
      4  O         -9.5440    2.1870   14.5210 O.2   559  THR559     -0.2717
      5  CB       -12.0370   -0.3710   15.0640 C.3   559  THR559      0.1784
      6  OG1      -13.1770   -0.0240   14.2790 O.3   559  THR559     -0.2211
      7  CG2      -12.1850    0.1930   16.4970 C.3   559  THR559      0.0376
      8  N        -11.7410    2.3500   13.9940 N.am  560  PHE560     -0.1961
      9  CA       -11.7920    3.8010   14.0100 C.3   560  PHE560      0.1771
     10  C        -12.9850    4.2240   14.8360 C.2   560  PHE560      0.2619
     11  O        -13.8380    3.3880   15.1400 O.2   560  PHE560     -0.2715
     12  CB       -11.7810    4.4170   12.5950 C.3   560  PHE560      0.0574
     13  CG       -12.9960    4.1650   11.7420 C.ar  560  PHE560     -0.0200
     14  CD1      -13.0780    3.0340   10.9400 C.ar  560  PHE560     -0.0042
     15  CD2      -14.0280    5.0960   11.6830 C.ar  560  PHE560     -0.0042
     16  CE1      -14.2020    2.8020   10.1460 C.ar  560  PHE560     -0.0003
     17  CE2      -15.1440    4.8730   10.8720 C.ar  560  PHE560     -0.0003
     18  CZ       -15.2220    3.7260   10.1100 C.ar  560  PHE560     -0.0000
     19  N        -13.0310    5.4860   15.2480 N.am  561  MET561     -0.1977
     20  CA       -14.1360    5.9550   16.0760 C.3   561  MET561      0.1605
     21  C        -15.0710    6.8560   15.2810 C.2   561  MET561      0.2287
     22  O        -14.6890    7.3530   14.2240 O.2   561  MET561     -0.2864
     23  CB       -13.6180    6.5560   17.3850 C.3   561  MET561      0.0413
     24  CG       -13.1110    5.4600   18.3110 C.3   561  MET561      0.0598
     25  SD       -11.7880    5.8780   19.4510 S.3   561  MET561     -0.1393
     26  CE       -10.4190    5.9400   18.3680 C.3   561  MET561      0.0692
     27  N        -16.5070    9.7760   15.9920 N.3   563  SER563     -0.1217
     28  CA       -16.4100   11.2320   16.1680 C.3   563  SER563      0.1889
     29  C        -15.8940   11.9560   14.9050 C.2   563  SER563      0.2288
     30  O        -15.4500   11.2990   13.9620 O.2   563  SER563     -0.2866
     31  CB       -15.6050   11.5990   17.4150 C.3   563  SER563      0.2089
     32  OG       -14.4060   10.8560   17.5600 O.3   563  SER563     -0.2183
     33  N        -10.9360    9.2270   14.6950 N.3   567  PRO567     -0.2116
     34  CA        -9.6330    8.7450   15.1830 C.3   567  PRO567      0.1372
     35  C         -9.4350    7.2440   15.1030 C.2   567  PRO567      0.2244
     36  O        -10.4050    6.4940   15.1110 O.2   567  PRO567     -0.2868
     37  CB        -9.5540    9.2690   16.6190 C.3   567  PRO567      0.0268
     38  CG       -10.9140    9.6120   16.9970 C.3   567  PRO567      0.0207
     39  CD       -11.7120    9.8730   15.7780 C.3   567  PRO567      0.0892
     40  N         -8.0200    3.5580   16.3780 N.3   569  TRP569     -0.1241
     41  CA        -7.8470    2.6840   17.5210 C.3   569  TRP569      0.1605
     42  C         -6.8460    1.6010   17.1040 C.2   569  TRP569      0.2264
     43  O         -7.2470    0.6170   16.5000 O.2   569  TRP569     -0.2867
     44  CB        -9.2050    2.0720   17.8810 C.3   569  TRP569      0.0550
     45  CG        -9.1630    1.2000   19.1030 C.ar  569  TRP569      0.0003
     46  CD1       -8.9900   -0.1500   19.1410 C.ar  569  TRP569      0.0946
     47  CD2       -9.2500    1.6350   20.4700 C.ar  569  TRP569      0.0152
     48  NE1       -8.9850   -0.5880   20.4440 N.ar  569  TRP569     -0.2442
     49  CE2       -9.1560    0.4850   21.2810 C.ar  569  TRP569      0.0810
     50  CE3       -9.4150    2.8870   21.0860 C.ar  569  TRP569      0.0012
     51  CZ2       -9.2390    0.5440   22.6790 C.ar  569  TRP569      0.0191
     52  CZ3       -9.4950    2.9460   22.4710 C.ar  569  TRP569      0.0001
     53  CH2       -9.4310    1.7850   23.2510 C.ar  569  TRP569      0.0015
     54  N         -4.0230    5.6010   20.3350 N.3   586  ILE586     -0.1245
     55  CA        -5.0730    6.3120   19.6050 C.3   586  ILE586      0.1561
     56  C         -4.3540    7.3780   18.7830 C.2   586  ILE586      0.2260
     57  O         -3.5750    8.1440   19.3420 O.2   586  ILE586     -0.2867
     58  CB        -6.1880    6.9300   20.5330 C.3   586  ILE586      0.0252
     59  CG1       -7.0190    5.8570   21.2410 C.3   586  ILE586      0.0019
     60  CG2       -7.1170    7.9160   19.7750 C.3   586  ILE586      0.0019
     61  CD1       -7.4990    6.2540   22.5840 C.3   586  ILE586      0.0001
     62  N         -4.9970   10.6380   16.4310 N.3   588  LYS588     -0.1245
     63  CA        -5.9740   11.6670   16.1120 C.3   588  LYS588      0.1561
     64  C         -5.3210   12.6440   15.1580 C.2   588  LYS588      0.2260
     65  O         -4.1950   13.0720   15.3880 O.2   588  LYS588     -0.2867
     66  CB        -6.4990   12.3740   17.3820 C.3   588  LYS588      0.0271
     67  CG        -7.6160   13.4110   17.1120 C.3   588  LYS588      0.0035
     68  CD        -8.7480   13.3420   18.1370 C.3   588  LYS588      0.0206
     69  CE        -8.4600   14.1360   19.3920 C.3   588  LYS588      0.1093
     70  NZ        -9.2410   13.6460   20.5580 N.3   588  LYS588     -0.1314
     71  N         -2.5870    9.1550   31.8420 N.3   622  TYR622     -0.1241
     72  CA        -2.3610    8.6040   30.5060 C.3   622  TYR622      0.1605
     73  C         -1.7040    9.6170   29.5710 C.2   622  TYR622      0.2264
     74  O         -1.9430   10.8210   29.6820 O.2   622  TYR622     -0.2867
     75  CB        -3.6470    8.0150   29.9040 C.3   622  TYR622      0.0534
     76  CG        -4.7120    9.0360   29.5680 C.ar  622  TYR622     -0.0201
     77  CD1       -5.6840    9.3940   30.5020 C.ar  622  TYR622     -0.0009
     78  CD2       -4.8060    9.5760   28.2900 C.ar  622  TYR622     -0.0009
     79  CE1       -6.7030   10.2870   30.1760 C.ar  622  TYR622      0.0417
     80  CE2       -5.7960   10.5000   27.9660 C.ar  622  TYR622      0.0417
     81  CZ        -6.7440   10.8520   28.9100 C.ar  622  TYR622      0.1957
     82  OH        -7.6920   11.7820   28.5670 O.3   622  TYR622     -0.2866
     83  N         -2.7530    9.4170   21.6900 N.3   634  ILE634     -0.1231
     84  CA        -3.3490    9.2960   23.0120 C.3   634  ILE634      0.1692
     85  C         -3.1310    7.8590   23.4570 C.2   634  ILE634      0.2592
     86  O         -3.1780    6.9370   22.6350 O.2   634  ILE634     -0.2718
     87  CB        -4.8340    9.7560   23.0820 C.3   634  ILE634      0.0266
     88  CG1       -5.0570   11.0860   22.2970 C.3   634  ILE634      0.0019
     89  CG2       -5.2560    9.9180   24.5540 C.3   634  ILE634      0.0020
     90  CD1       -6.4940   11.5820   22.1620 C.3   634  ILE634      0.0001
     91  N         -2.8450    7.6710   24.7460 N.am  635  GLU635     -0.1966
     92  CA        -2.5970    6.3580   25.3030 C.3   635  GLU635      0.1733
     93  C         -3.8890    5.6950   25.6180 C.2   635  GLU635      0.2616
     94  O         -4.7400    6.2830   26.2800 O.2   635  GLU635     -0.2715
     95  CB        -1.7370    6.4630   26.5690 C.3   635  GLU635      0.0429
     96  CG        -0.9930    5.1820   26.9400 C.3   635  GLU635      0.1163
     97  CD        -0.6360    5.0730   28.4120 C.2   635  GLU635      0.3649
     98  OE1       -0.5400    6.1250   29.0810 O.co2 635  GLU635     -0.2457
     99  OE2       -0.4550    3.9350   28.9000 O.co2 635  GLU635     -0.2457
    100  N         -4.0430    4.4600   25.1550 N.am  636  VAL636     -0.1963
    101  CA        -5.2340    3.6790   25.4540 C.3   636  VAL636      0.1727
    102  C         -5.1710    3.2140   26.9130 C.2   636  VAL636      0.2616
    103  O         -4.1880    2.5980   27.3280 O.2   636  VAL636     -0.2715
    104  CB        -5.4120    2.4860   24.4910 C.3   636  VAL636      0.0290
    105  CG1       -6.4340    1.4840   25.0230 C.3   636  VAL636      0.0023
    106  CG2       -5.7860    2.9530   23.0900 C.3   636  VAL636      0.0023
    107  N         -6.2020    3.5620   27.6900 N.am  637  VAL637     -0.1977
    108  CA        -6.3680    3.0820   29.0530 C.3   637  VAL637      0.1596
    109  C         -7.2660    1.8390   28.8420 C.2   637  VAL637      0.2287
    110  O         -8.4290    1.9640   28.4450 O.2   637  VAL637     -0.2864
    111  CB        -6.9870    4.1250   30.0320 C.3   637  VAL637      0.0276
    112  CG1       -7.1790    3.5310   31.4310 C.3   637  VAL637      0.0022
    113  CG2       -6.1320    5.3910   30.1070 C.3   637  VAL637      0.0022
    114  N        -11.5060    0.0530   30.2590 N.3   640  SER640     -0.1202
    115  CA       -12.2220    1.2700   30.6120 C.3   640  SER640      0.2020
    116  C        -13.3160    1.5600   29.5880 C.2   640  SER640      0.2619
    117  O        -13.2440    1.0890   28.4500 O.2   640  SER640     -0.2717
    118  CB       -11.2570    2.4510   30.7430 C.3   640  SER640      0.2103
    119  OG       -10.7300    2.8740   29.4950 O.3   640  SER640     -0.2182
    120  N        -14.3440    2.3040   30.0040 N.am  641  ASP641     -0.1959
    121  CA       -15.4690    2.6930   29.1470 C.3   641  ASP641      0.1840
    122  C        -16.0780    4.0110   29.5980 C.2   641  ASP641      0.2622
    123  O        -15.8610    4.4520   30.7320 O.2   641  ASP641     -0.2715
    124  CB       -16.5520    1.5910   29.0770 C.3   641  ASP641      0.1450
    125  CG       -17.2320    1.4630   27.7180 C.2   641  ASP641      0.3671
    126  OD1      -17.1500    2.4190   26.9160 O.co2 641  ASP641     -0.2456
    127  OD2      -17.8340    0.4050   27.4540 O.co2 641  ASP641     -0.2456
    128  N        -16.8460    4.6400   28.7000 N.am  642  THR642     -0.1951
    129  CA       -17.5270    5.9060   28.9680 C.3   642  THR642      0.1897
    130  C        -18.7260    5.6740   29.8830 C.2   642  THR642      0.2313
    131  O        -19.2510    4.5560   29.9320 O.2   642  THR642     -0.2863
    132  CB       -17.9130    6.6020   27.6530 C.3   642  THR642      0.1794
    133  OG1      -18.8840    5.8190   26.9600 O.3   642  THR642     -0.2208
    134  CG2      -16.7060    6.8730   26.7510 C.3   642  THR642      0.0378
    135  N        -21.8150    4.6680   27.8200 N.3   645  ASN645     -0.1240
    136  CA       -21.7830    3.2710   27.3860 C.3   645  ASN645      0.1653
    137  C        -22.1310    2.2910   28.5050 C.2   645  ASN645      0.2266
    138  O        -22.8010    1.2970   28.2420 O.2   645  ASN645     -0.2867
    139  CB       -20.4510    2.9180   26.7180 C.3   645  ASN645      0.1155
    140  CG       -20.3160    3.3930   25.2860 C.2   645  ASN645      0.2627
    141  OD1      -21.2980    3.6160   24.5620 O.2   645  ASN645     -0.2716
    142  ND2      -19.0800    3.5120   24.8250 N.am  645  ASN645     -0.0877
    143  N        -14.8210    8.7310   31.8960 N.3   704  MET704     -0.1245
    144  CA       -14.6210    7.2860   31.8110 C.3   704  MET704      0.1570
    145  C        -14.3800    6.6110   33.1520 C.2   704  MET704      0.2261
    146  O        -14.0270    7.2730   34.1260 O.2   704  MET704     -0.2867
    147  CB       -13.5030    6.9720   30.8150 C.3   704  MET704      0.0387
    148  CG       -13.9660    7.1910   29.3970 C.3   704  MET704      0.0595
    149  SD       -12.8160    6.8070   28.0900 S.3   704  MET704     -0.1393
    150  CE       -12.8230    5.0610   28.1820 C.3   704  MET704      0.0692
    151  N        -11.8120    8.6890   35.3910 N.3   712  PHE712     -0.1241
    152  CA       -10.9000    9.6180   34.7230 C.3   712  PHE712      0.1605
    153  C        -11.6100   10.3920   33.6170 C.2   712  PHE712      0.2264
    154  O        -12.7060   10.0080   33.2040 O.2   712  PHE712     -0.2867
    155  CB        -9.5980    8.9430   34.2390 C.3   712  PHE712      0.0534
    156  CG        -9.7140    8.0280   33.0490 C.ar  712  PHE712     -0.0203
    157  CD1      -10.1490    6.7150   33.1990 C.ar  712  PHE712     -0.0042
    158  CD2       -9.3340    8.4580   31.7830 C.ar  712  PHE712     -0.0042
    159  CE1      -10.2320    5.8600   32.0970 C.ar  712  PHE712     -0.0003
    160  CE2       -9.4090    7.6000   30.6880 C.ar  712  PHE712     -0.0003
    161  CZ        -9.8630    6.3100   30.8510 C.ar  712  PHE712     -0.0000
    162  N        -11.4570   12.4620   29.6790 N.3   714  ILE714     -0.1231
    163  CA       -10.8990   12.4390   28.3220 C.3   714  ILE714      0.1692
    164  C        -11.3810   13.6490   27.5210 C.2   714  ILE714      0.2592
    165  O        -12.2750   14.3610   27.9650 O.2   714  ILE714     -0.2718
    166  CB       -11.1780   11.1000   27.5710 C.3   714  ILE714      0.0266
    167  CG1      -12.6990   10.8410   27.3570 C.3   714  ILE714      0.0019
    168  CG2      -10.4970    9.9230   28.2580 C.3   714  ILE714      0.0020
    169  CD1      -13.1140   10.1260   26.0550 C.3   714  ILE714      0.0001
    170  N        -10.7960   13.8500   26.3310 N.am  715  ASP715     -0.1974
    171  CA       -11.0860   14.9060   25.3560 C.3   715  ASP715      0.1709
    172  C        -11.4290   16.2550   26.0000 C.2   715  ASP715      0.2293
    173  O        -12.5460   16.7620   25.8450 O.2   715  ASP715     -0.2864
    174  CB       -12.1660   14.4600   24.3540 C.3   715  ASP715      0.1436
    175  CG       -11.8900   14.8700   22.9240 C.2   715  ASP715      0.3671
    176  OD1      -11.4060   16.0060   22.7120 O.co2 715  ASP715     -0.2456
    177  OD2      -12.1820   14.0660   22.0110 O.co2 715  ASP715     -0.2456
@<TRIPOS>BOND
     1    18    16   ar
     2    18    17   ar
     3    16    14   ar
     4    17    15   ar
     5    14    13   ar
     6    15    13   ar
     7    13    12    1
     8    12     9    1
     9    30    29    2
    10     8     9    1
    11     8     3   am
    12     9    10    1
    13    22    21    2
    14     6     5    1
    15     3     2    1
    16     3     4    2
    17     2     1    1
    18     2     5    1
    19    33    34    1
    20    33    39    1
    21    10    11    2
    22    10    19   am
    23    29    28    1
    24     5     7    1
    25    35    36    2
    26    35    34    1
    27    64    65    2
    28    64    63    1
    29    34    37    1
    30    19    20    1
    31    21    20    1
    32    39    38    1
    33    27    28    1
    34    20    23    1
    35    63    62    1
    36    63    66    1
    37    28    31    1
    38    40    41    1
    39    43    42    2
    40    37    38    1
    41    42    41    1
    42    67    66    1
    43    67    68    1
    44    23    24    1
    45    31    32    1
    46    41    44    1
    47    44    45    1
    48    68    69    1
    49    24    25    1
    50    26    25    1
    51    56    57    2
    52    56    55    1
    53    45    46   ar
    54    45    47   ar
    55    46    48   ar
    56    69    70    1
    57    55    54    1
    58    55    58    1
    59    60    58    1
    60    48    49   ar
    61    47    50   ar
    62    47    49   ar
    63    58    59    1
    64    50    52   ar
    65    59    61    1
    66    49    51   ar
    67    83    84    1
    68   177   175   ar
    69    90    88    1
    70    88    87    1
    71    52    53   ar
    72    86    85    2
    73    51    53   ar
    74   176   175   ar
    75   175   174    1
    76    84    87    1
    77    84    85    1
    78    87    89    1
    79   106   104    1
    80    85    91   am
    81   174   171    1
    82   104   105    1
    83   104   101    1
    84   141   140    2
    85    91    92    1
    86   142   140   am
    87   100   101    1
    88   100    93   am
    89   140   139    1
    90    92    93    1
    91    92    95    1
    92   171   172    1
    93   171   170    1
    94   101   102    1
    95    93    94    2
    96   173   172    2
    97   169   167    1
    98   170   164   am
    99    95    96    1
   100   139   136    1
   101   134   132    1
   102   102   103    2
   103   102   107   am
   104   126   125   ar
   105    96    97    1
   106   133   132    1
   107   167   166    1
   108   136   135    1
   109   136   137    1
   110   127   125   ar
   111   164   165    2
   112   164   163    1
   113   166   168    1
   114   166   163    1
   115   132   129    1
   116   107   108    1
   117   125   124    1
   118    80    78   ar
   119    80    81   ar
   120   149   150    1
   121   149   148    1
   122   138   137    2
   123    78    76   ar
   124   163   162    1
   125    97    99   ar
   126    97    98   ar
   127   110   109    2
   128   117   116    2
   129    82    81    1
   130   128   129    1
   131   128   122   am
   132   109   108    1
   133    81    79   ar
   134   129   130    1
   135   108   111    1
   136   124   121    1
   137   121   122    1
   138   121   120    1
   139   148   147    1
   140   119   118    1
   141    76    75    1
   142    76    77   ar
   143    73    74    2
   144    73    72    1
   145   116   120   am
   146   116   115    1
   147   122   123    2
   148   130   131    2
   149    75    72    1
   150   111   113    1
   151   111   112    1
   152    79    77   ar
   153   114   115    1
   154    72    71    1
   155   115   118    1
   156   160   161   ar
   157   160   158   ar
   158   147   144    1
   159   161   159   ar
   160   158   156   ar
   161   144   143    1
   162   144   145    1
   163   159   157   ar
   164   156   157   ar
   165   156   155    1
   166   145   146    2
   167   154   153    2
   168   153   152    1
   169   155   152    1
   170   152   151    1
