@<TRIPOS>MOLECULE
tmp/5t28A00.pdb
 194 187 0 0 0
SMALL
GASTEIGER

@<TRIPOS>ATOM
      1  N         19.9850   -1.4050    8.2740 N.3   512  LYS512     -0.1245
      2  CA        18.8470   -1.1840    9.1610 C.3   512  LYS512      0.1561
      3  C         18.2550    0.2240    8.9700 C.2   512  LYS512      0.2260
      4  O         17.0490    0.2820    8.7290 O.2   512  LYS512     -0.2867
      5  CB        19.1580   -1.5090   10.6380 C.3   512  LYS512      0.0271
      6  CG        17.9160   -1.4400   11.5360 C.3   512  LYS512      0.0035
      7  CD        18.0800   -2.1470   12.8700 C.3   512  LYS512      0.0206
      8  CE        16.7790   -2.2020   13.6390 C.3   512  LYS512      0.1093
      9  NZ        16.9830   -2.6300   15.0520 N.3   512  LYS512     -0.1314
     10  N          9.7690    0.6820   14.7800 N.3   554  THR554     -0.1203
     11  CA        11.0160    0.0520   14.3370 C.3   554  THR554      0.1994
     12  C         10.8470   -1.4670   14.3290 C.2   554  THR554      0.2618
     13  O          9.7430   -1.9610   14.5430 O.2   554  THR554     -0.2717
     14  CB        12.2370    0.5400   15.1750 C.3   554  THR554      0.1784
     15  OG1       13.4410    0.0230   14.6070 O.3   554  THR554     -0.2211
     16  CG2       12.1490    0.1600   16.6570 C.3   554  THR554      0.0376
     17  N         11.9200   -2.1950   14.0260 N.am  555  PHE555     -0.1961
     18  CA        11.9350   -3.6470   14.0290 C.3   555  PHE555      0.1771
     19  C         13.1330   -4.1200   14.8540 C.2   555  PHE555      0.2619
     20  O         14.0130   -3.3140   15.1750 O.2   555  PHE555     -0.2715
     21  CB        11.9200   -4.2250   12.5980 C.3   555  PHE555      0.0574
     22  CG        13.1910   -4.0930   11.7920 C.ar  555  PHE555     -0.0200
     23  CD1       13.3910   -3.0060   10.9540 C.ar  555  PHE555     -0.0042
     24  CD2       14.1600   -5.0890   11.8220 C.ar  555  PHE555     -0.0042
     25  CE1       14.5600   -2.8900   10.1990 C.ar  555  PHE555     -0.0003
     26  CE2       15.3260   -4.9750   11.0620 C.ar  555  PHE555     -0.0003
     27  CZ        15.5140   -3.8810   10.2500 C.ar  555  PHE555     -0.0000
     28  N         13.1590   -5.4010   15.2170 N.am  556  MET556     -0.1963
     29  CA        14.2320   -5.9530   16.0370 C.3   556  MET556      0.1736
     30  C         15.1430   -6.8630   15.2480 C.2   556  MET556      0.2616
     31  O         14.7300   -7.4190   14.2300 O.2   556  MET556     -0.2715
     32  CB        13.6780   -6.6260   17.2960 C.3   556  MET556      0.0427
     33  CG        12.8790   -5.6770   18.1630 C.3   556  MET556      0.0599
     34  SD        12.4400   -6.4220   19.7340 S.3   556  MET556     -0.1393
     35  CE        10.7230   -5.9950   19.8010 C.3   556  MET556      0.0692
     36  N         16.3930   -6.9990   15.7120 N.am  557  ASP557     -0.1957
     37  CA        17.4530   -7.7370   15.0380 C.3   557  ASP557      0.1840
     38  C         17.4040   -9.2690   15.1740 C.2   557  ASP557      0.2622
     39  O         18.1640   -9.9430   14.4710 O.2   557  ASP557     -0.2715
     40  CB        18.8180   -7.1970   15.4700 C.3   557  ASP557      0.1450
     41  CG        19.0720   -5.7730   15.0140 C.2   557  ASP557      0.3671
     42  OD1       18.4270   -5.3370   14.0340 O.co2 557  ASP557     -0.2456
     43  OD2       19.9370   -5.1070   15.6150 O.co2 557  ASP557     -0.2456
     44  N         16.5010   -9.8250   16.0090 N.am  558  SER558     -0.1950
     45  CA        16.3730  -11.2860   16.1340 C.3   558  SER558      0.1924
     46  C         15.8770  -11.9200   14.8200 C.2   558  SER558      0.2314
     47  O         15.2450  -11.2320   14.0180 O.2   558  SER558     -0.2863
     48  CB        15.5110  -11.6930   17.3310 C.3   558  SER558      0.2116
     49  OG        14.4750  -10.7800   17.6560 O.3   558  SER558     -0.2180
     50  N         11.0820   -9.0820   14.6260 N.3   562  PRO562     -0.2116
     51  CA         9.8240   -8.6190   15.2380 C.3   562  PRO562      0.1372
     52  C          9.5740   -7.1220   15.1130 C.2   562  PRO562      0.2244
     53  O         10.5190   -6.3400   15.1990 O.2   562  PRO562     -0.2868
     54  CB         9.9620   -9.0520   16.7030 C.3   562  PRO562      0.0268
     55  CG        11.0920  -10.0450   16.7200 C.3   562  PRO562      0.0207
     56  CD        12.0090   -9.5870   15.6570 C.3   562  PRO562      0.0892
     57  N          8.0720   -3.3950   16.2400 N.3   564  TRP564     -0.1241
     58  CA         7.8590   -2.5150   17.3850 C.3   564  TRP564      0.1605
     59  C          6.8730   -1.4410   16.9410 C.2   564  TRP564      0.2264
     60  O          7.2490   -0.5410   16.1890 O.2   564  TRP564     -0.2867
     61  CB         9.1960   -1.8760   17.7940 C.3   564  TRP564      0.0550
     62  CG         9.1210   -0.9920   19.0040 C.ar  564  TRP564      0.0003
     63  CD1        8.8490    0.3450   19.0340 C.ar  564  TRP564      0.0946
     64  CD2        9.3780   -1.3820   20.3600 C.ar  564  TRP564      0.0152
     65  NE1        8.9010    0.8080   20.3280 N.ar  564  TRP564     -0.2442
     66  CE2        9.2250   -0.2300   21.1630 C.ar  564  TRP564      0.0810
     67  CE3        9.7400   -2.5920   20.9730 C.ar  564  TRP564      0.0012
     68  CZ2        9.4110   -0.2560   22.5480 C.ar  564  TRP564      0.0191
     69  CZ3        9.9230   -2.6170   22.3430 C.ar  564  TRP564      0.0001
     70  CH2        9.7690   -1.4570   23.1140 C.ar  564  TRP564      0.0015
     71  N          4.2320   -5.5500   20.2170 N.3   581  ILE581     -0.1245
     72  CA         5.2660   -6.2620   19.4710 C.3   581  ILE581      0.1561
     73  C          4.5820   -7.3020   18.5780 C.2   581  ILE581      0.2260
     74  O          3.8540   -8.1600   19.0850 O.2   581  ILE581     -0.2867
     75  CB         6.3630   -6.8780   20.3990 C.3   581  ILE581      0.0252
     76  CG1        7.1830   -5.7650   21.0850 C.3   581  ILE581      0.0019
     77  CG2        7.2960   -7.8530   19.6400 C.3   581  ILE581      0.0019
     78  CD1        7.8010   -6.1320   22.4360 C.3   581  ILE581      0.0001
     79  N          5.2330  -10.4310   16.2520 N.3   583  LYS583     -0.1245
     80  CA         6.2030  -11.4790   15.9350 C.3   583  LYS583      0.1561
     81  C          5.5380  -12.4860   14.9980 C.2   583  LYS583      0.2260
     82  O          4.3870  -12.8570   15.2170 O.2   583  LYS583     -0.2867
     83  CB         6.6980  -12.1570   17.2260 C.3   583  LYS583      0.0271
     84  CG         7.9920  -12.9520   17.0690 C.3   583  LYS583      0.0035
     85  CD         8.7110  -13.0930   18.4010 C.3   583  LYS583      0.0206
     86  CE         8.7630  -14.5200   18.8860 C.3   583  LYS583      0.1093
     87  NZ         8.9510  -14.5950   20.3630 N.3   583  LYS583     -0.1314
     88  N          3.0560   -9.0030   31.6010 N.3   617  TYR617     -0.1241
     89  CA         2.7520   -8.3850   30.3140 C.3   617  TYR617      0.1605
     90  C          2.0590   -9.3940   29.4150 C.2   617  TYR617      0.2264
     91  O          2.3510  -10.5860   29.4780 O.2   617  TYR617     -0.2867
     92  CB         4.0290   -7.8240   29.6420 C.3   617  TYR617      0.0534
     93  CG         5.0790   -8.8670   29.3080 C.ar  617  TYR617     -0.0201
     94  CD1        6.0590   -9.2200   30.2320 C.ar  617  TYR617     -0.0009
     95  CD2        5.0980   -9.4940   28.0650 C.ar  617  TYR617     -0.0009
     96  CE1        7.0210  -10.1850   29.9340 C.ar  617  TYR617      0.0417
     97  CE2        6.0360  -10.4780   27.7650 C.ar  617  TYR617      0.0417
     98  CZ         6.9960  -10.8210   28.7030 C.ar  617  TYR617      0.1957
     99  OH         7.9170  -11.7950   28.4110 O.3   617  TYR617     -0.2866
    100  N          2.7550   -9.1690   21.6000 N.3   629  ILE629     -0.1231
    101  CA         3.3940   -9.0330   22.9180 C.3   629  ILE629      0.1692
    102  C          3.1910   -7.5770   23.4150 C.2   629  ILE629      0.2592
    103  O          3.3040   -6.6330   22.6290 O.2   629  ILE629     -0.2718
    104  CB         4.9020   -9.4530   22.9020 C.3   629  ILE629      0.0266
    105  CG1        5.0910  -10.9290   22.4660 C.3   629  ILE629      0.0019
    106  CG2        5.5780   -9.1990   24.2610 C.3   629  ILE629      0.0020
    107  CD1        6.5410  -11.3620   22.1540 C.3   629  ILE629      0.0001
    108  N          2.8720   -7.4020   24.7020 N.am  630  GLU630     -0.1966
    109  CA         2.6900   -6.0730   25.2600 C.3   630  GLU630      0.1733
    110  C          4.0520   -5.4880   25.5680 C.2   630  GLU630      0.2616
    111  O          4.8410   -6.1270   26.2610 O.2   630  GLU630     -0.2715
    112  CB         1.8360   -6.1230   26.5380 C.3   630  GLU630      0.0429
    113  CG         1.2780   -4.7760   26.9580 C.3   630  GLU630      0.1163
    114  CD         0.8440   -4.6690   28.4060 C.2   630  GLU630      0.3649
    115  OE1        0.0890   -5.5510   28.8760 O.co2 630  GLU630     -0.2457
    116  OE2        1.2220   -3.6700   29.0580 O.co2 630  GLU630     -0.2457
    117  N          4.3320   -4.2800   25.0510 N.am  631  VAL631     -0.1963
    118  CA         5.5820   -3.5670   25.3170 C.3   631  VAL631      0.1727
    119  C          5.5510   -3.0980   26.7700 C.2   631  VAL631      0.2616
    120  O          4.5420   -2.5490   27.2250 O.2   631  VAL631     -0.2715
    121  CB         5.7880   -2.3680   24.3470 C.3   631  VAL631      0.0290
    122  CG1        6.7440   -1.3220   24.9130 C.3   631  VAL631      0.0023
    123  CG2        6.2470   -2.8260   22.9730 C.3   631  VAL631      0.0023
    124  N          6.6480   -3.3340   27.4930 N.am  632  VAL632     -0.1977
    125  CA         6.8040   -2.8420   28.8470 C.3   632  VAL632      0.1596
    126  C          7.7020   -1.6340   28.6570 C.2   632  VAL632      0.2287
    127  O          8.9080   -1.7740   28.4370 O.2   632  VAL632     -0.2864
    128  CB         7.3800   -3.8830   29.8320 C.3   632  VAL632      0.0276
    129  CG1        7.5400   -3.2830   31.2250 C.3   632  VAL632      0.0022
    130  CG2        6.4980   -5.1260   29.8850 C.3   632  VAL632      0.0022
    131  N         11.8470    0.2450   29.9860 N.3   635  SER635     -0.1202
    132  CA        12.5410   -0.9720   30.3860 C.3   635  SER635      0.2020
    133  C         13.5860   -1.3530   29.3390 C.2   635  SER635      0.2619
    134  O         13.4450   -1.0070   28.1610 O.2   635  SER635     -0.2717
    135  CB        11.5560   -2.1170   30.6460 C.3   635  SER635      0.2103
    136  OG        11.1890   -2.8740   29.5020 O.3   635  SER635     -0.2182
    137  N         14.6400   -2.0480   29.7770 N.am  636  ASP636     -0.1959
    138  CA        15.7300   -2.4970   28.9160 C.3   636  ASP636      0.1840
    139  C         16.2990   -3.8030   29.4490 C.2   636  ASP636      0.2622
    140  O         16.2070   -4.0710   30.6510 O.2   636  ASP636     -0.2715
    141  CB        16.8330   -1.4190   28.8300 C.3   636  ASP636      0.1450
    142  CG        17.6460   -1.4030   27.5460 C.2   636  ASP636      0.3671
    143  OD1       17.2990   -2.1540   26.6120 O.co2 636  ASP636     -0.2456
    144  OD2       18.5980   -0.6070   27.4600 O.co2 636  ASP636     -0.2456
    145  N         16.8880   -4.6130   28.5510 N.am  637  THR637     -0.1951
    146  CA        17.5020   -5.9060   28.8830 C.3   637  THR637      0.1897
    147  C         18.7440   -5.7160   29.7520 C.2   637  THR637      0.2313
    148  O         19.3720   -4.6610   29.6920 O.2   637  THR637     -0.2863
    149  CB        17.8500   -6.6880   27.6060 C.3   637  THR637      0.1794
    150  OG1       18.6930   -5.8870   26.7870 O.3   637  THR637     -0.2208
    151  CG2       16.6230   -7.1160   26.8180 C.3   637  THR637      0.0378
    152  N         21.9230   -4.9680   27.5360 N.3   640  ASN640     -0.1240
    153  CA        21.9840   -3.5850   27.0550 C.3   640  ASN640      0.1653
    154  C         22.4520   -2.6120   28.1450 C.2   640  ASN640      0.2266
    155  O         23.1630   -1.6590   27.8390 O.2   640  ASN640     -0.2867
    156  CB        20.6600   -3.1540   26.4120 C.3   640  ASN640      0.1155
    157  CG        20.5080   -3.5820   24.9650 C.2   640  ASN640      0.2627
    158  OD1       21.3530   -3.3090   24.1050 O.2   640  ASN640     -0.2716
    159  ND2       19.3950   -4.2150   24.6470 N.am  640  ASN640     -0.0877
    160  N         14.9790   -8.6900   31.8130 N.3   704  MET704     -0.1245
    161  CA        14.8080   -7.2420   31.6480 C.3   704  MET704      0.1570
    162  C         14.6570   -6.4800   32.9690 C.2   704  MET704      0.2261
    163  O         14.3040   -7.0700   33.9900 O.2   704  MET704     -0.2867
    164  CB        13.6390   -6.9470   30.6960 C.3   704  MET704      0.0387
    165  CG        13.9200   -7.3630   29.2610 C.3   704  MET704      0.0595
    166  SD        12.7760   -6.7450   28.0030 S.3   704  MET704     -0.1393
    167  CE        13.1860   -5.0420   28.0090 C.3   704  MET704      0.0692
    168  N         12.0850   -8.6130   35.4320 N.3   712  PHE712     -0.1241
    169  CA        11.1570   -9.5220   34.7500 C.3   712  PHE712      0.1605
    170  C         11.8340  -10.3330   33.6590 C.2   712  PHE712      0.2264
    171  O         12.8990   -9.9490   33.1820 O.2   712  PHE712     -0.2867
    172  CB         9.8930   -8.8070   34.2270 C.3   712  PHE712      0.0534
    173  CG        10.0570   -7.8350   33.0860 C.ar  712  PHE712     -0.0203
    174  CD1       10.5300   -6.5480   33.3110 C.ar  712  PHE712     -0.0042
    175  CD2        9.6330   -8.1650   31.8060 C.ar  712  PHE712     -0.0042
    176  CE1       10.6310   -5.6280   32.2620 C.ar  712  PHE712     -0.0003
    177  CE2        9.7370   -7.2480   30.7580 C.ar  712  PHE712     -0.0003
    178  CZ        10.2380   -5.9860   30.9920 C.ar  712  PHE712     -0.0000
    179  N         11.6380  -12.3980   29.8170 N.3   714  ILE714     -0.1231
    180  CA        11.0480  -12.4220   28.4830 C.3   714  ILE714      0.1692
    181  C         11.4830  -13.6840   27.7350 C.2   714  ILE714      0.2592
    182  O         12.3720  -14.3980   28.2040 O.2   714  ILE714     -0.2718
    183  CB        11.3150  -11.1110   27.6750 C.3   714  ILE714      0.0266
    184  CG1       12.8140  -10.8980   27.3630 C.3   714  ILE714      0.0019
    185  CG2       10.7010   -9.8830   28.3580 C.3   714  ILE714      0.0020
    186  CD1       13.1140  -10.3030   25.9760 C.3   714  ILE714      0.0001
    187  N         10.8430  -13.9560   26.5780 N.am  715  ASP715     -0.1974
    188  CA        11.1250  -15.0730   25.6710 C.3   715  ASP715      0.1709
    189  C         11.2270  -16.4440   26.3820 C.2   715  ASP715      0.2293
    190  O         12.3280  -16.9620   26.5880 O.2   715  ASP715     -0.2864
    191  CB        12.3800  -14.7670   24.8240 C.3   715  ASP715      0.1436
    192  CG        12.1760  -14.8860   23.3270 C.2   715  ASP715      0.3671
    193  OD1       11.2640  -14.2090   22.7930 O.co2 715  ASP715     -0.2456
    194  OD2       12.9530  -15.6210   22.6820 O.co2 715  ASP715     -0.2456
@<TRIPOS>BOND
     1     1     2    1
     2     4     3    2
     3     3     2    1
     4     2     5    1
     5    25    27   ar
     6    25    23   ar
     7    27    26   ar
     8     5     6    1
     9    23    22   ar
    10    26    24   ar
    11     6     7    1
    12    22    24   ar
    13    22    21    1
    14    21    18    1
    15     7     8    1
    16     8     9    1
    17    47    46    2
    18    17    18    1
    19    17    12   am
    20    18    19    1
    21    42    41   ar
    22    31    30    2
    23    12    11    1
    24    12    13    2
    25    11    10    1
    26    11    14    1
    27    39    38    2
    28    15    14    1
    29    50    51    1
    30    50    56    1
    31    46    45    1
    32    19    20    2
    33    19    28   am
    34    81    82    2
    35    81    80    1
    36    41    40    1
    37    41    43   ar
    38    37    38    1
    39    37    40    1
    40    37    36    1
    41    52    53    2
    42    52    51    1
    43    38    44   am
    44    14    16    1
    45    28    29    1
    46    51    54    1
    47    30    36   am
    48    30    29    1
    49    56    55    1
    50    80    79    1
    51    80    83    1
    52    44    45    1
    53    29    32    1
    54    45    48    1
    55    60    59    2
    56    57    58    1
    57    54    55    1
    58    59    58    1
    59    84    83    1
    60    84    85    1
    61    32    33    1
    62    48    49    1
    63    58    61    1
    64    61    62    1
    65    33    34    1
    66    85    86    1
    67    73    74    2
    68    73    72    1
    69    86    87    1
    70    62    63   ar
    71    62    64   ar
    72    63    65   ar
    73    72    71    1
    74    72    75    1
    75    77    75    1
    76    34    35    1
    77    65    66   ar
    78    64    67   ar
    79    64    66   ar
    80    75    76    1
    81    67    69   ar
    82    76    78    1
    83    66    68   ar
    84   100   101    1
    85   107   105    1
    86    69    70   ar
    87   105   104    1
    88    68    70   ar
    89   103   102    2
    90   194   192   ar
    91   193   192   ar
    92   104   101    1
    93   104   106    1
    94   101   102    1
    95   123   121    1
    96   192   191    1
    97   102   108   am
    98   158   157    2
    99   121   122    1
   100   121   118    1
   101   159   157   am
   102   108   109    1
   103   191   188    1
   104   157   156    1
   105   117   118    1
   106   117   110   am
   107   109   110    1
   108   109   112    1
   109   118   119    1
   110   110   111    2
   111   188   189    1
   112   188   187    1
   113   186   184    1
   114   189   190    2
   115   156   153    1
   116   112   113    1
   117   187   181   am
   118   143   142   ar
   119   119   120    2
   120   119   124   am
   121   150   149    1
   122   151   149    1
   123   113   114    1
   124   153   152    1
   125   153   154    1
   126   184   183    1
   127   144   142   ar
   128   124   125    1
   129   142   141    1
   130   149   146    1
   131   183   185    1
   132   183   180    1
   133   181   182    2
   134   181   180    1
   135    97    95   ar
   136    97    98   ar
   137   155   154    2
   138   166   167    1
   139   166   165    1
   140    95    93   ar
   141   134   133    2
   142   114   115   ar
   143   114   116   ar
   144    99    98    1
   145   127   126    2
   146   180   179    1
   147   145   146    1
   148   145   139   am
   149   126   125    1
   150    98    96   ar
   151   141   138    1
   152   125   128    1
   153   146   147    1
   154   138   139    1
   155   138   137    1
   156   165   164    1
   157    93    92    1
   158    93    94   ar
   159   133   137   am
   160   133   132    1
   161    90    91    2
   162    90    89    1
   163   139   140    2
   164   136   135    1
   165    92    89    1
   166   148   147    2
   167   128   130    1
   168   128   129    1
   169    96    94   ar
   170   131   132    1
   171    89    88    1
   172   132   135    1
   173   164   161    1
   174   177   178   ar
   175   177   175   ar
   176   178   176   ar
   177   161   160    1
   178   161   162    1
   179   175   173   ar
   180   176   174   ar
   181   162   163    2
   182   173   174   ar
   183   173   172    1
   184   171   170    2
   185   170   169    1
   186   172   169    1
   187   169   168    1
