@<TRIPOS>MOLECULE
tmp/5t29B00.pdb
 91 86 0 0 0
SMALL
GASTEIGER

@<TRIPOS>ATOM
      1  N        -20.6550   27.6770  105.0400 N.3    35  GLN35      -0.1245
      2  CA       -21.8230   28.2330  104.3660 C.3    35  GLN35       0.1566
      3  C        -22.5310   27.1320  103.6050 C.2    35  GLN35       0.2260
      4  O        -21.8730   26.3170  102.9660 O.2    35  GLN35      -0.2867
      5  CB       -21.4190   29.3380  103.3980 C.3    35  GLN35       0.0367
      6  CG       -22.5910   30.0310  102.7590 C.3    35  GLN35       0.0905
      7  CD       -22.1480   31.0190  101.7120 C.2    35  GLN35       0.2608
      8  OE1      -22.1540   32.2310  101.9380 O.2    35  GLN35      -0.2717
      9  NE2      -21.7410   30.5080  100.5610 N.am   35  GLN35      -0.0878
     10  N        -25.9400   26.5410  100.8870 N.3    37  LYS37      -0.1245
     11  CA       -27.1340   26.9020  100.1390 C.3    37  LYS37       0.1561
     12  C        -27.8260   25.6290   99.6610 C.2    37  LYS37       0.2260
     13  O        -27.1700   24.6130   99.4330 O.2    37  LYS37      -0.2867
     14  CB       -26.7750   27.8050   98.9550 C.3    37  LYS37       0.0271
     15  CG       -26.1310   29.1100   99.3650 C.3    37  LYS37       0.0035
     16  CD       -25.8300   30.0170   98.1820 C.3    37  LYS37       0.0206
     17  CE       -25.1130   31.2680   98.6860 C.3    37  LYS37       0.1093
     18  NZ       -24.7730   32.2340   97.6120 N.3    37  LYS37      -0.1314
     19  N        -19.4640   24.9240  102.0500 N.3    43  ILE43      -0.1245
     20  CA       -18.1580   25.5260  101.8010 C.3    43  ILE43       0.1561
     21  C        -17.5420   25.9680  103.1180 C.2    43  ILE43       0.2260
     22  O        -18.1840   26.6660  103.8940 O.2    43  ILE43      -0.2867
     23  CB       -18.2500   26.7440  100.8730 C.3    43  ILE43       0.0252
     24  CG1      -18.9820   26.3890   99.5820 C.3    43  ILE43       0.0019
     25  CG2      -16.8580   27.2930  100.5450 C.3    43  ILE43       0.0019
     26  CD1      -19.5010   27.6140   98.8660 C.3    43  ILE43       0.0001
     27  N        -15.4600   28.2670  105.4830 N.3    45  LEU45      -0.1245
     28  CA       -15.2690   29.7130  105.4880 C.3    45  LEU45       0.1561
     29  C        -14.1080   30.1280  106.3680 C.2    45  LEU45       0.2260
     30  O        -13.3780   31.0740  106.0700 O.2    45  LEU45      -0.2867
     31  CB       -16.5350   30.4190  105.9890 C.3    45  LEU45       0.0270
     32  CG       -17.8350   30.2470  105.2070 C.3    45  LEU45       0.0019
     33  CD1      -18.9610   30.8750  105.9920 C.3    45  LEU45       0.0001
     34  CD2      -17.7470   30.8580  103.8120 C.3    45  LEU45       0.0001
     35  N        -10.0480   31.1940   98.7840 N.3    55  GLY55      -0.1210
     36  CA       -11.1240   31.7570   97.9780 C.3    55  GLY55       0.1956
     37  C        -12.2170   32.5110   98.7280 C.2    55  GLY55       0.2612
     38  O        -13.1220   33.0760   98.1140 O.2    55  GLY55      -0.2717
     39  N        -12.1470   32.5250  100.0560 N.am   56  VAL56      -0.1966
     40  CA       -13.2040   33.1350  100.8590 C.3    56  VAL56       0.1712
     41  C        -13.0060   34.6480  100.9770 C.2    56  VAL56       0.2458
     42  O        -11.9120   35.1080  101.2970 O.2    56  VAL56      -0.2730
     43  CB       -13.2660   32.5020  102.2660 C.3    56  VAL56       0.0289
     44  CG1      -14.3500   33.1600  103.0990 C.3    56  VAL56       0.0023
     45  CG2      -13.5280   31.0090  102.1590 C.3    56  VAL56       0.0023
     46  N        -14.0680   35.4300  100.7130 N.am   57  PRO57      -0.2727
     47  CA       -13.9600   36.8960  100.7650 C.3    57  PRO57       0.1402
     48  C        -13.5210   37.4170  102.1280 C.2    57  PRO57       0.2269
     49  O        -13.8230   36.8100  103.1620 O.2    57  PRO57      -0.2865
     50  CB       -15.3820   37.3650  100.4430 C.3    57  PRO57       0.0296
     51  CG       -15.9740   36.2430   99.6400 C.3    57  PRO57       0.0237
     52  CD       -15.3860   34.9900  100.2220 C.3    57  PRO57       0.0939
     53  N        -14.4760   39.7700  103.9270 N.3    59  ARG59      -0.1231
     54  CA       -15.4760   40.3020  104.8360 C.3    59  ARG59       0.1694
     55  C        -15.9260   39.2500  105.8480 C.2    59  ARG59       0.2592
     56  O        -16.5730   39.5890  106.8400 O.2    59  ARG59      -0.2718
     57  CB       -16.6730   40.8490  104.0590 C.3    59  ARG59       0.0321
     58  CG       -17.3620   39.8230  103.1920 C.3    59  ARG59       0.0489
     59  CD       -18.5790   40.4340  102.5270 C.3    59  ARG59       0.2205
     60  NE       -19.3410   39.4360  101.7920 N.pl3  59  ARG59      -0.0865
     61  CZ       -19.0240   39.0050  100.5760 C.cat  59  ARG59       0.5346
     62  NH1      -17.9560   39.4900   99.9640 N.pl3  59  ARG59       0.1354
     63  NH2      -19.7750   38.0860   99.9770 N.pl3  59  ARG59       0.1354
     64  N        -15.5800   37.9840  105.6050 N.am   60  PHE60      -0.1976
     65  CA       -15.8410   36.9150  106.5810 C.3    60  PHE60       0.1639
     66  C        -14.7020   36.8330  107.5750 C.2    60  PHE60       0.2290
     67  O        -13.5420   36.7510  107.1750 O.2    60  PHE60      -0.2864
     68  CB       -15.9900   35.5390  105.9220 C.3    60  PHE60       0.0560
     69  CG       -17.2380   35.3760  105.1350 C.ar   60  PHE60      -0.0200
     70  CD1      -18.4100   34.9790  105.7530 C.ar   60  PHE60      -0.0042
     71  CD2      -17.2420   35.6150  103.7760 C.ar   60  PHE60      -0.0042
     72  CE1      -19.5710   34.8340  105.0330 C.ar   60  PHE60      -0.0003
     73  CE2      -18.3980   35.4750  103.0510 C.ar   60  PHE60      -0.0003
     74  CZ       -19.5670   35.0860  103.6840 C.ar   60  PHE60      -0.0000
     75  N        -25.5090   37.5690   97.9440 N.3    79  GLU79      -0.1231
     76  CA       -24.9310   36.2420   97.8200 C.3    79  GLU79       0.1699
     77  C        -24.6630   35.5860   99.1700 C.2    79  GLU79       0.2592
     78  O        -24.4210   34.3790   99.2320 O.2    79  GLU79      -0.2718
     79  CB       -23.6290   36.3190   97.0240 C.3    79  GLU79       0.0402
     80  CG       -23.3170   37.7200   96.5400 C.3    79  GLU79       0.1161
     81  CD       -21.8350   38.0000   96.5270 C.2    79  GLU79       0.3649
     82  OE1      -21.4500   39.1550   96.2460 O.co2  79  GLU79      -0.2457
     83  OE2      -21.0550   37.0600   96.8020 O.co2  79  GLU79      -0.2457
     84  N        -24.6940   36.3730  100.2440 N.am   80  ASP80      -0.1974
     85  CA       -24.3990   35.8420  101.5840 C.3    80  ASP80       0.1709
     86  C        -25.6330   35.2380  102.2500 C.2    80  ASP80       0.2293
     87  O        -25.5220   34.5770  103.2840 O.2    80  ASP80      -0.2864
     88  CB       -23.8170   36.9370  102.4880 C.3    80  ASP80       0.1436
     89  CG       -22.5070   37.4910  101.9680 C.2    80  ASP80       0.3671
     90  OD1      -21.7930   36.7570  101.2470 O.co2  80  ASP80      -0.2456
     91  OD2      -22.1950   38.6650  102.2770 O.co2  80  ASP80      -0.2456
@<TRIPOS>BOND
     1    82    81   ar
     2    81    80    1
     3    81    83   ar
     4    80    79    1
     5    79    76    1
     6    18    17    1
     7    76    75    1
     8    76    77    1
     9    36    37    1
    10    36    35    1
    11    38    37    2
    12    16    17    1
    13    16    15    1
    14    37    39   am
    15    26    24    1
    16    14    15    1
    17    14    11    1
    18    77    78    2
    19    77    84   am
    20    13    12    2
    21    24    23    1
    22    51    52    1
    23    51    50    1
    24    12    11    1
    25    62    61    1
    26    63    61    1
    27    39    40    1
    28    11    10    1
    29    52    46    1
    30    84    85    1
    31    50    47    1
    32    25    23    1
    33     9     7   am
    34    61    60    2
    35    46    47    1
    36    46    41   am
    37    47    48    1
    38    40    41    1
    39    40    43    1
    40    23    20    1
    41    41    42    2
    42    90    89   ar
    43    85    86    1
    44    85    88    1
    45     7     8    2
    46     7     6    1
    47    60    59    1
    48    20    19    1
    49    20    21    1
    50    89    91   ar
    51    89    88    1
    52    48    49    2
    53    45    43    1
    54    86    87    2
    55    43    44    1
    56    59    58    1
    57     6     5    1
    58     4     3    2
    59    73    74   ar
    60    73    71   ar
    61    21    22    2
    62    58    57    1
    63     5     2    1
    64     3     2    1
    65    74    72   ar
    66    71    69   ar
    67    34    32    1
    68    53    54    1
    69    57    54    1
    70     2     1    1
    71    54    55    1
    72    72    70   ar
    73    69    70   ar
    74    69    68    1
    75    32    31    1
    76    32    33    1
    77    27    28    1
    78    28    31    1
    79    28    29    1
    80    64    55   am
    81    64    65    1
    82    55    56    2
    83    68    65    1
    84    30    29    2
    85    65    66    1
    86    67    66    2
