@<TRIPOS>MOLECULE
tmp/5t2dA00.pdb
 210 202 0 0 0
SMALL
GASTEIGER

@<TRIPOS>ATOM
      1  N         19.6440   -1.3930    8.2980 N.3   510  LYS510     -0.1245
      2  CA        18.4520   -1.2000    9.1280 C.3   510  LYS510      0.1561
      3  C         17.8240    0.1890    8.9460 C.2   510  LYS510      0.2260
      4  O         16.6210    0.2170    8.6910 O.2   510  LYS510     -0.2867
      5  CB        18.6830   -1.5380   10.6080 C.3   510  LYS510      0.0271
      6  CG        17.3830   -1.5800   11.4180 C.3   510  LYS510      0.0035
      7  CD        17.5080   -2.3520   12.7240 C.3   510  LYS510      0.0206
      8  CE        16.3340   -2.1020   13.6310 C.3   510  LYS510      0.1093
      9  NZ        16.5270   -2.7320   14.9590 N.3   510  LYS510     -0.1314
     10  N          9.5700    0.7230   14.9800 N.3   552  THR552     -0.1203
     11  CA        10.7340    0.0490   14.4290 C.3   552  THR552      0.1994
     12  C         10.4290   -1.4480   14.3990 C.2   552  THR552      0.2618
     13  O          9.2630   -1.8480   14.4500 O.2   552  THR552     -0.2717
     14  CB        12.0390    0.4200   15.1820 C.3   552  THR552      0.1784
     15  OG1       13.1590   -0.0860   14.4470 O.3   552  THR552     -0.2211
     16  CG2       12.0800   -0.1180   16.6280 C.3   552  THR552      0.0376
     17  N         11.4740   -2.2520   14.2320 N.am  553  PHE553     -0.1961
     18  CA        11.4550   -3.6970   14.2350 C.3   553  PHE553      0.1771
     19  C         12.7280   -4.1490   14.9700 C.2   553  PHE553      0.2619
     20  O         13.6810   -3.3630   15.0980 O.2   553  PHE553     -0.2715
     21  CB        11.3700   -4.2390   12.7990 C.3   553  PHE553      0.0574
     22  CG        12.6110   -4.1060   11.9500 C.ar  553  PHE553     -0.0200
     23  CD1       13.6210   -5.0580   12.0120 C.ar  553  PHE553     -0.0042
     24  CD2       12.7300   -3.0800   11.0220 C.ar  553  PHE553     -0.0042
     25  CE1       14.7470   -4.9540   11.1960 C.ar  553  PHE553     -0.0003
     26  CE2       13.8630   -2.9710   10.2210 C.ar  553  PHE553     -0.0003
     27  CZ        14.8560   -3.9160   10.3050 C.ar  553  PHE553     -0.0000
     28  N         12.7440   -5.3910   15.4500 N.am  554  MET554     -0.1963
     29  CA        13.8600   -5.9460   16.2150 C.3   554  MET554      0.1736
     30  C         14.7930   -6.7670   15.3720 C.2   554  MET554      0.2616
     31  O         14.3680   -7.3390   14.3720 O.2   554  MET554     -0.2715
     32  CB        13.3440   -6.7710   17.3860 C.3   554  MET554      0.0427
     33  CG        12.3370   -6.0370   18.2330 C.3   554  MET554      0.0599
     34  SD        12.3100   -6.7710   19.8540 S.3   554  MET554     -0.1393
     35  CE        10.7010   -6.3250   20.3570 C.3   554  MET554      0.0692
     36  N         16.0590   -6.8570   15.7810 N.am  555  ASP555     -0.1957
     37  CA        17.0860   -7.5670   15.0170 C.3   555  ASP555      0.1840
     38  C         17.0370   -9.1260   15.1340 C.2   555  ASP555      0.2622
     39  O         17.7010   -9.8040   14.3400 O.2   555  ASP555     -0.2715
     40  CB        18.4810   -7.0100   15.3460 C.3   555  ASP555      0.1450
     41  CG        18.6450   -5.5800   14.8560 C.2   555  ASP555      0.3671
     42  OD1       18.8570   -5.3910   13.6420 O.co2 555  ASP555     -0.2456
     43  OD2       18.4730   -4.6490   15.6710 O.co2 555  ASP555     -0.2456
     44  N         16.2140   -9.6870   16.0540 N.am  556  SER556     -0.1950
     45  CA        16.0720  -11.1480   16.2020 C.3   556  SER556      0.1924
     46  C         15.4970  -11.8040   14.9320 C.2   556  SER556      0.2314
     47  O         14.6860  -11.1870   14.2590 O.2   556  SER556     -0.2863
     48  CB        15.2740  -11.5160   17.4540 C.3   556  SER556      0.2116
     49  OG        13.9190  -11.0990   17.4340 O.3   556  SER556     -0.2180
     50  N         10.7160   -9.1250   14.5490 N.3   560  PRO560     -0.2116
     51  CA         9.4570   -8.6340   15.1360 C.3   560  PRO560      0.1372
     52  C          9.2740   -7.1390   15.0110 C.2   560  PRO560      0.2244
     53  O         10.2570   -6.4190   15.0570 O.2   560  PRO560     -0.2868
     54  CB         9.5670   -9.0430   16.6090 C.3   560  PRO560      0.0268
     55  CG        10.5290  -10.1540   16.6270 C.3   560  PRO560      0.0207
     56  CD        11.5210   -9.8330   15.5680 C.3   560  PRO560      0.0892
     57  N          7.8200   -3.3730   16.2070 N.3   562  TRP562     -0.1241
     58  CA         7.6530   -2.5180   17.3730 C.3   562  TRP562      0.1605
     59  C          6.6180   -1.4890   16.9400 C.2   562  TRP562      0.2264
     60  O          6.9190   -0.6220   16.1210 O.2   562  TRP562     -0.2867
     61  CB         8.9980   -1.8470   17.7300 C.3   562  TRP562      0.0550
     62  CG         8.9710   -1.0350   18.9950 C.ar  562  TRP562      0.0003
     63  CD1        8.6890    0.2960   19.1110 C.ar  562  TRP562      0.0946
     64  CD2        9.2260   -1.5110   20.3290 C.ar  562  TRP562      0.0152
     65  NE1        8.7660    0.6810   20.4310 N.ar  562  TRP562     -0.2442
     66  CE2        9.0630   -0.4150   21.2030 C.ar  562  TRP562      0.0810
     67  CE3        9.5640   -2.7630   20.8700 C.ar  562  TRP562      0.0012
     68  CZ2        9.2410   -0.5280   22.5900 C.ar  562  TRP562      0.0191
     69  CZ3        9.7400   -2.8730   22.2440 C.ar  562  TRP562      0.0001
     70  CH2        9.5820   -1.7650   23.0860 C.ar  562  TRP562      0.0015
     71  N          3.9820   -5.6690   20.2180 N.3   579  ILE579     -0.1245
     72  CA         5.0210   -6.3340   19.4460 C.3   579  ILE579      0.1561
     73  C          4.3730   -7.4570   18.6370 C.2   579  ILE579      0.2260
     74  O          3.8790   -8.4080   19.2220 O.2   579  ILE579     -0.2867
     75  CB         6.2230   -6.8070   20.3360 C.3   579  ILE579      0.0252
     76  CG1        6.9600   -5.6090   20.9730 C.3   579  ILE579      0.0019
     77  CG2        7.2160   -7.6890   19.5520 C.3   579  ILE579      0.0019
     78  CD1        7.5820   -5.8780   22.3200 C.3   579  ILE579      0.0001
     79  N          4.8710  -10.5580   16.3060 N.3   581  LYS581     -0.1245
     80  CA         5.8820  -11.5810   16.0240 C.3   581  LYS581      0.1561
     81  C          5.2290  -12.6160   15.1120 C.2   581  LYS581      0.2260
     82  O          4.0890  -13.0200   15.3590 O.2   581  LYS581     -0.2867
     83  CB         6.3940  -12.2140   17.3380 C.3   581  LYS581      0.0271
     84  CG         7.6360  -13.0920   17.1980 C.3   581  LYS581      0.0035
     85  CD         8.4600  -13.0710   18.4730 C.3   581  LYS581      0.0206
     86  CE         8.7100  -14.4610   19.0030 C.3   581  LYS581      0.1093
     87  NZ         8.8850  -14.4800   20.4840 N.3   581  LYS581     -0.1314
     88  N          3.1520   -9.2000   31.4730 N.3   615  TYR615     -0.1241
     89  CA         2.8430   -8.5570   30.2080 C.3   615  TYR615      0.1605
     90  C          2.0390   -9.5090   29.3310 C.2   615  TYR615      0.2264
     91  O          2.2320  -10.7280   29.3690 O.2   615  TYR615     -0.2867
     92  CB         4.1370   -8.0510   29.5120 C.3   615  TYR615      0.0534
     93  CG         5.1020   -9.1360   29.0830 C.ar  615  TYR615     -0.0201
     94  CD1        4.9900   -9.7400   27.8350 C.ar  615  TYR615     -0.0009
     95  CD2        6.1510   -9.5350   29.9090 C.ar  615  TYR615     -0.0009
     96  CE1        5.8640  -10.7520   27.4370 C.ar  615  TYR615      0.0417
     97  CE2        7.0460  -10.5330   29.5120 C.ar  615  TYR615      0.0417
     98  CZ         6.8830  -11.1520   28.2810 C.ar  615  TYR615      0.1957
     99  OH         7.7020  -12.1680   27.8640 O.3   615  TYR615     -0.2866
    100  N          2.5770   -9.1750   21.5120 N.3   627  ILE627     -0.1231
    101  CA         3.2420   -9.1250   22.8140 C.3   627  ILE627      0.1692
    102  C          3.0400   -7.7200   23.3570 C.2   627  ILE627      0.2592
    103  O          3.0870   -6.7680   22.5870 O.2   627  ILE627     -0.2718
    104  CB         4.7470   -9.5410   22.7110 C.3   627  ILE627      0.0266
    105  CG1        4.9040  -10.9770   22.1350 C.3   627  ILE627      0.0019
    106  CG2        5.4490   -9.4180   24.0770 C.3   627  ILE627      0.0020
    107  CD1        6.2800  -11.4250   21.8480 C.3   627  ILE627      0.0001
    108  N          2.7650   -7.5770   24.6520 N.am  628  GLU628     -0.1966
    109  CA         2.5510   -6.2560   25.2170 C.3   628  GLU628      0.1733
    110  C          3.8760   -5.6100   25.4910 C.2   628  GLU628      0.2616
    111  O          4.7260   -6.2150   26.1540 O.2   628  GLU628     -0.2715
    112  CB         1.7310   -6.3320   26.5040 C.3   628  GLU628      0.0429
    113  CG         1.2840   -4.9760   27.0130 C.3   628  GLU628      0.1163
    114  CD         0.6350   -4.9350   28.3780 C.2   628  GLU628      0.3649
    115  OE1       -0.0910   -5.8930   28.7310 O.co2 628  GLU628     -0.2457
    116  OE2        0.7990   -3.9040   29.0680 O.co2 628  GLU628     -0.2457
    117  N          4.0660   -4.3790   24.9810 N.am  629  VAL629     -0.1963
    118  CA         5.2950   -3.6350   25.2400 C.3   629  VAL629      0.1727
    119  C          5.3220   -3.2340   26.7200 C.2   629  VAL629      0.2616
    120  O          4.3480   -2.6640   27.2430 O.2   629  VAL629     -0.2715
    121  CB         5.4630   -2.3910   24.3380 C.3   629  VAL629      0.0290
    122  CG1        6.5230   -1.4430   24.8860 C.3   629  VAL629      0.0023
    123  CG2        5.7850   -2.7730   22.9100 C.3   629  VAL629      0.0023
    124  N          6.4350   -3.5530   27.3930 N.am  630  VAL630     -0.1977
    125  CA         6.6620   -3.0840   28.7440 C.3   630  VAL630      0.1596
    126  C          7.5060   -1.8510   28.4790 C.2   630  VAL630      0.2287
    127  O          8.6810   -1.9680   28.1110 O.2   630  VAL630     -0.2864
    128  CB         7.3570   -4.0870   29.6730 C.3   630  VAL630      0.0276
    129  CG1        7.5780   -3.4790   31.0460 C.3   630  VAL630      0.0022
    130  CG2        6.5600   -5.3800   29.7810 C.3   630  VAL630      0.0022
    131  N         11.7480   -0.0810   29.8110 N.3   633  SER633     -0.1202
    132  CA        12.4610   -1.2610   30.2710 C.3   633  SER633      0.2020
    133  C         13.4880   -1.6680   29.2390 C.2   633  SER633      0.2619
    134  O         13.2940   -1.4270   28.0490 O.2   633  SER633     -0.2717
    135  CB        11.4830   -2.4080   30.5450 C.3   633  SER633      0.2103
    136  OG        10.9110   -3.0010   29.3890 O.3   633  SER633     -0.2182
    137  N         14.5830   -2.2660   29.6890 N.am  634  ASP634     -0.1959
    138  CA        15.6410   -2.7570   28.8110 C.3   634  ASP634      0.1840
    139  C         16.1750   -4.0690   29.3460 C.2   634  ASP634      0.2622
    140  O         15.9880   -4.3740   30.5290 O.2   634  ASP634     -0.2715
    141  CB        16.7760   -1.7270   28.6440 C.3   634  ASP634      0.1450
    142  CG        17.4990   -1.8000   27.3060 C.2   634  ASP634      0.3671
    143  OD1       17.2910   -2.7880   26.5660 O.co2 634  ASP634     -0.2456
    144  OD2       18.2740   -0.8730   27.0030 O.co2 634  ASP634     -0.2456
    145  N         16.8170   -4.8510   28.4610 N.am  635  THR635     -0.1951
    146  CA        17.4080   -6.1510   28.7870 C.3   635  THR635      0.1897
    147  C         18.6710   -5.9590   29.6370 C.2   635  THR635      0.2313
    148  O         19.3840   -4.9690   29.4340 O.2   635  THR635     -0.2863
    149  CB        17.7590   -6.9070   27.4960 C.3   635  THR635      0.1794
    150  OG1       18.7440   -6.1650   26.7720 O.3   635  THR635     -0.2208
    151  CG2       16.5400   -7.1920   26.6190 C.3   635  THR635      0.0378
    152  N         21.8000   -5.2970   27.4430 N.3   638  ASN638     -0.1240
    153  CA        21.9360   -3.9310   26.9390 C.3   638  ASN638      0.1653
    154  C         22.4330   -2.9730   28.0070 C.2   638  ASN638      0.2266
    155  O         23.2630   -2.1170   27.7080 O.2   638  ASN638     -0.2867
    156  CB        20.6490   -3.4430   26.2710 C.3   638  ASN638      0.1155
    157  CG        20.4720   -3.9520   24.8550 C.2   638  ASN638      0.2627
    158  OD1       21.3460   -3.8050   23.9880 O.2   638  ASN638     -0.2716
    159  ND2       19.3180   -4.5240   24.5750 N.am  638  ASN638     -0.0877
    160  N         20.0480  -11.6900   27.8040 N.3   699  ASP699     -0.1225
    161  CA        19.2450  -11.3140   26.6360 C.3   699  ASP699      0.1805
    162  C         17.7410  -11.5600   26.8190 C.2   699  ASP699      0.2597
    163  O         16.9560  -10.9750   26.0600 O.2   699  ASP699     -0.2718
    164  CB        19.7570  -11.9870   25.3330 C.3   699  ASP699      0.1424
    165  CG        21.1810  -11.6420   24.9280 C.2   699  ASP699      0.3668
    166  OD1       21.4360  -10.4600   24.5840 O.co2 699  ASP699     -0.2456
    167  OD2       22.0270  -12.5620   24.8890 O.co2 699  ASP699     -0.2456
    168  N         17.3290  -12.4160   27.7940 N.am  700  ASN700     -0.1974
    169  CA        15.8990  -12.7140   28.0120 C.3   700  ASN700      0.1688
    170  C         15.4110  -12.5240   29.4650 C.2   700  ASN700      0.2292
    171  O         14.5400  -13.2510   29.9360 O.2   700  ASN700     -0.2864
    172  CB        15.5180  -14.0990   27.4890 C.3   700  ASN700      0.1181
    173  CG        16.3170  -15.2640   28.0320 C.2   700  ASN700      0.2629
    174  OD1       16.3490  -16.3300   27.4180 O.2   700  ASN700     -0.2716
    175  ND2       16.9700  -15.1160   29.1800 N.am  700  ASN700     -0.0877
    176  N         14.7470   -8.8250   31.7180 N.3   702  MET702     -0.1245
    177  CA        14.6880   -7.3690   31.5530 C.3   702  MET702      0.1570
    178  C         14.5080   -6.6210   32.8720 C.2   702  MET702      0.2261
    179  O         14.1350   -7.2330   33.8750 O.2   702  MET702     -0.2867
    180  CB        13.5830   -7.0050   30.5540 C.3   702  MET702      0.0387
    181  CG        13.8530   -7.5180   29.1480 C.3   702  MET702      0.0595
    182  SD        12.6940   -6.9720   27.8700 S.3   702  MET702     -0.1393
    183  CE        12.9360   -5.2100   27.9370 C.3   702  MET702      0.0692
    184  N         11.9680   -8.7320   35.3680 N.3   710  PHE710     -0.1241
    185  CA        11.0260   -9.6430   34.6840 C.3   710  PHE710      0.1605
    186  C         11.7130  -10.4550   33.5930 C.2   710  PHE710      0.2264
    187  O         12.8460  -10.1520   33.2340 O.2   710  PHE710     -0.2867
    188  CB         9.7510   -8.9320   34.1620 C.3   710  PHE710      0.0534
    189  CG         9.8970   -8.0000   32.9870 C.ar  710  PHE710     -0.0203
    190  CD1       10.3480   -6.6980   33.1620 C.ar  710  PHE710     -0.0042
    191  CD2        9.4990   -8.3910   31.7180 C.ar  710  PHE710     -0.0042
    192  CE1       10.4500   -5.8180   32.0720 C.ar  710  PHE710     -0.0003
    193  CE2        9.5980   -7.5090   30.6310 C.ar  710  PHE710     -0.0003
    194  CZ        10.0900   -6.2370   30.8140 C.ar  710  PHE710     -0.0000
    195  N         11.4820  -12.5600   29.6780 N.3   712  ILE712     -0.1231
    196  CA        10.9130  -12.6610   28.3420 C.3   712  ILE712      0.1692
    197  C         11.3630  -13.9940   27.7190 C.2   712  ILE712      0.2592
    198  O         12.0980  -14.7470   28.3620 O.2   712  ILE712     -0.2718
    199  CB        11.2240  -11.4040   27.4890 C.3   712  ILE712      0.0266
    200  CG1       12.7300  -11.2790   27.1660 C.3   712  ILE712      0.0019
    201  CG2       10.6900  -10.1420   28.1790 C.3   712  ILE712      0.0020
    202  CD1       13.1170  -10.1790   26.1200 C.3   712  ILE712      0.0001
    203  N         10.8850  -14.3030   26.5090 N.am  713  ASP713     -0.1974
    204  CA        11.1810  -15.5350   25.7740 C.3   713  ASP713      0.1709
    205  C         11.0550  -16.8430   26.6330 C.2   713  ASP713      0.2293
    206  O         12.0420  -17.3430   27.1550 O.2   713  ASP713     -0.2864
    207  CB        12.5500  -15.4430   25.0660 C.3   713  ASP713      0.1436
    208  CG        12.8190  -16.5540   24.0570 C.2   713  ASP713      0.3671
    209  OD1       11.9890  -16.7320   23.1280 O.co2 713  ASP713     -0.2456
    210  OD2       13.8820  -17.2140   24.1670 O.co2 713  ASP713     -0.2456
@<TRIPOS>BOND
     1     1     2    1
     2     4     3    2
     3     3     2    1
     4     2     5    1
     5    26    27   ar
     6    26    24   ar
     7    27    25   ar
     8     5     6    1
     9    24    22   ar
    10    25    23   ar
    11     6     7    1
    12    22    23   ar
    13    22    21    1
    14     7     8    1
    15    21    18    1
    16     8     9    1
    17    42    41   ar
    18    17    18    1
    19    17    12   am
    20    18    19    1
    21    47    46    2
    22    39    38    2
    23    31    30    2
    24    12    11    1
    25    12    13    2
    26    11    10    1
    27    11    14    1
    28    15    14    1
    29    50    51    1
    30    50    56    1
    31    41    40    1
    32    41    43   ar
    33    46    45    1
    34    19    20    2
    35    19    28   am
    36    52    53    2
    37    52    51    1
    38    37    38    1
    39    37    40    1
    40    37    36    1
    41    81    82    2
    42    81    80    1
    43    38    44   am
    44    51    54    1
    45    14    16    1
    46    30    36   am
    47    30    29    1
    48    28    29    1
    49    56    55    1
    50    80    79    1
    51    80    83    1
    52    44    45    1
    53    60    59    2
    54    45    48    1
    55    57    58    1
    56    29    32    1
    57    54    55    1
    58    59    58    1
    59    84    83    1
    60    84    85    1
    61    58    61    1
    62    32    33    1
    63    49    48    1
    64    61    62    1
    65    33    34    1
    66    85    86    1
    67    73    74    2
    68    73    72    1
    69    62    63   ar
    70    62    64   ar
    71    86    87    1
    72    63    65   ar
    73    72    71    1
    74    72    75    1
    75    77    75    1
    76    34    35    1
    77    64    67   ar
    78    64    66   ar
    79    75    76    1
    80    65    66   ar
    81    67    69   ar
    82    76    78    1
    83    66    68   ar
    84   100   101    1
    85   107   105    1
    86   105   104    1
    87    69    70   ar
    88   103   102    2
    89    68    70   ar
    90   104   101    1
    91   104   106    1
    92   101   102    1
    93   123   121    1
    94   209   208   ar
    95   102   108   am
    96   158   157    2
    97   208   210   ar
    98   208   207    1
    99   121   122    1
   100   121   118    1
   101   159   157   am
   102   166   165   ar
   103   108   109    1
   104   157   156    1
   105   167   165   ar
   106   165   164    1
   107   117   118    1
   108   117   110   am
   109   207   204    1
   110   109   110    1
   111   109   112    1
   112   118   119    1
   113   164   161    1
   114   110   111    2
   115   204   203    1
   116   204   205    1
   117   163   162    2
   118   202   200    1
   119   156   153    1
   120   112   113    1
   121   203   197   am
   122   143   142   ar
   123   151   149    1
   124   205   206    2
   125   161   162    1
   126   161   160    1
   127   119   120    2
   128   119   124   am
   129   150   149    1
   130   162   168   am
   131   153   152    1
   132   153   154    1
   133   144   142   ar
   134   113   114    1
   135   200   199    1
   136   142   141    1
   137   124   125    1
   138   174   173    2
   139    96    94   ar
   140    96    98   ar
   141   172   169    1
   142   172   173    1
   143   199   201    1
   144   199   196    1
   145   149   146    1
   146   155   154    2
   147   197   196    1
   148   197   198    2
   149   168   169    1
   150    94    93   ar
   151    99    98    1
   152   182   183    1
   153   182   181    1
   154   169   170    1
   155   173   175   am
   156   134   133    2
   157   127   126    2
   158    98    97   ar
   159   196   195    1
   160   114   115   ar
   161   114   116   ar
   162   145   146    1
   163   145   139   am
   164   126   125    1
   165   141   138    1
   166   125   128    1
   167   146   147    1
   168   138   139    1
   169   138   137    1
   170    93    92    1
   171    93    95   ar
   172   181   180    1
   173   133   137   am
   174   133   132    1
   175    90    91    2
   176    90    89    1
   177   139   140    2
   178   136   135    1
   179   148   147    2
   180   170   171    2
   181    97    95   ar
   182    92    89    1
   183   128   130    1
   184   128   129    1
   185   131   132    1
   186    89    88    1
   187   132   135    1
   188   180   177    1
   189   193   194   ar
   190   193   191   ar
   191   194   192   ar
   192   177   176    1
   193   177   178    1
   194   191   189   ar
   195   192   190   ar
   196   178   179    2
   197   189   190   ar
   198   189   188    1
   199   187   186    2
   200   186   185    1
   201   188   185    1
   202   185   184    1
