@<TRIPOS>MOLECULE
tmp/5t2gA00.pdb
 187 180 0 0 0
SMALL
GASTEIGER

@<TRIPOS>ATOM
      1  N         19.4880   -1.3610    8.3520 N.3   510  LYS510     -0.1245
      2  CA        18.3280   -1.1620    9.2100 C.3   510  LYS510      0.1561
      3  C         17.7310    0.2450    8.9850 C.2   510  LYS510      0.2260
      4  O         16.5350    0.3030    8.7220 O.2   510  LYS510     -0.2867
      5  CB        18.6470   -1.4370   10.6900 C.3   510  LYS510      0.0271
      6  CG        17.4430   -1.2590   11.6070 C.3   510  LYS510      0.0035
      7  CD        17.3990   -2.3140   12.6830 C.3   510  LYS510      0.0206
      8  CE        16.3090   -2.0210   13.6780 C.3   510  LYS510      0.1093
      9  NZ        16.4850   -2.8170   14.9000 N.3   510  LYS510     -0.1314
     10  N          9.2910    0.5570   14.6920 N.3   552  THR552     -0.1203
     11  CA        10.4930   -0.0930   14.1940 C.3   552  THR552      0.1994
     12  C         10.2610   -1.6040   14.1930 C.2   552  THR552      0.2618
     13  O          9.1200   -2.0750   14.2250 O.2   552  THR552     -0.2717
     14  CB        11.7720    0.3710   14.9710 C.3   552  THR552      0.1784
     15  OG1       12.9480   -0.1230   14.2960 O.3   552  THR552     -0.2211
     16  CG2       11.7810   -0.0510   16.4630 C.3   552  THR552      0.0376
     17  N         11.3530   -2.3530   14.1410 N.am  553  PHE553     -0.1961
     18  CA        11.3580   -3.7880   14.1650 C.3   553  PHE553      0.1771
     19  C         12.5630   -4.2210   14.9710 C.2   553  PHE553      0.2619
     20  O         13.5580   -3.4790   15.0430 O.2   553  PHE553     -0.2715
     21  CB        11.3880   -4.3480   12.7320 C.3   553  PHE553      0.0574
     22  CG        12.6540   -4.1420   11.9310 C.ar  553  PHE553     -0.0200
     23  CD1       12.8200   -3.0090   11.1400 C.ar  553  PHE553     -0.0042
     24  CD2       13.6460   -5.1250   11.8970 C.ar  553  PHE553     -0.0042
     25  CE1       13.9740   -2.8330   10.3740 C.ar  553  PHE553     -0.0003
     26  CE2       14.7860   -4.9630   11.1010 C.ar  553  PHE553     -0.0003
     27  CZ        14.9390   -3.8210   10.3430 C.ar  553  PHE553     -0.0000
     28  N         12.4770   -5.4100   15.5740 N.am  554  MET554     -0.1963
     29  CA        13.5470   -5.9680   16.3850 C.3   554  MET554      0.1736
     30  C         14.4320   -6.8540   15.5180 C.2   554  MET554      0.2616
     31  O         13.9810   -7.3390   14.4890 O.2   554  MET554     -0.2715
     32  CB        12.9960   -6.6690   17.6380 C.3   554  MET554      0.0427
     33  CG        11.7890   -5.9390   18.2900 C.3   554  MET554      0.0599
     34  SD        11.4510   -6.3860   20.0260 S.3   554  MET554     -0.1393
     35  CE        11.2940   -8.1120   19.8760 C.3   554  MET554      0.0692
     36  N         15.7010   -7.0100   15.8930 N.am  555  ASP555     -0.1957
     37  CA        16.7140   -7.7210   15.1010 C.3   555  ASP555      0.1840
     38  C         16.6830   -9.2690   15.1540 C.2   555  ASP555      0.2622
     39  O         17.3270   -9.8870   14.3010 O.2   555  ASP555     -0.2715
     40  CB        18.1190   -7.2170   15.4670 C.3   555  ASP555      0.1450
     41  CG        18.2700   -5.7350   15.2180 C.2   555  ASP555      0.3671
     42  OD1       18.2470   -5.3310   14.0350 O.co2 555  ASP555     -0.2456
     43  OD2       18.3790   -4.9730   16.2100 O.co2 555  ASP555     -0.2456
     44  N         15.9350   -9.8900   16.0980 N.am  556  SER556     -0.1950
     45  CA        15.8350  -11.3530   16.1790 C.3   556  SER556      0.1924
     46  C         15.3070  -11.9870   14.8920 C.2   556  SER556      0.2314
     47  O         14.7200  -11.2950   14.0710 O.2   556  SER556     -0.2863
     48  CB        15.0310  -11.8000   17.3980 C.3   556  SER556      0.2116
     49  OG        13.6600  -11.4460   17.3410 O.3   556  SER556     -0.2180
     50  N          7.6110   -3.4250   16.1750 N.3   562  TRP562     -0.1241
     51  CA         7.4530   -2.5990   17.3570 C.3   562  TRP562      0.1605
     52  C          6.4770   -1.5030   16.9390 C.2   562  TRP562      0.2264
     53  O          6.8730   -0.5530   16.2740 O.2   562  TRP562     -0.2867
     54  CB         8.8110   -1.9990   17.7310 C.3   562  TRP562      0.0550
     55  CG         8.7730   -1.0800   18.9180 C.ar  562  TRP562      0.0003
     56  CD1        8.5770    0.2650   18.9040 C.ar  562  TRP562      0.0946
     57  CD2        9.0610   -1.4310   20.2790 C.ar  562  TRP562      0.0152
     58  NE1        8.7110    0.7770   20.1720 N.ar  562  TRP562     -0.2442
     59  CE2        9.0050   -0.2430   21.0380 C.ar  562  TRP562      0.0810
     60  CE3        9.3760   -2.6370   20.9300 C.ar  562  TRP562      0.0012
     61  CZ2        9.1950   -0.2310   22.4250 C.ar  562  TRP562      0.0191
     62  CZ3        9.5770   -2.6170   22.2960 C.ar  562  TRP562      0.0001
     63  CH2        9.4740   -1.4270   23.0310 C.ar  562  TRP562      0.0015
     64  N          3.9600   -5.6320   20.1560 N.3   579  ILE579     -0.1245
     65  CA         5.0210   -6.2860   19.3990 C.3   579  ILE579      0.1561
     66  C          4.3210   -7.3530   18.5640 C.2   579  ILE579      0.2260
     67  O          3.7090   -8.2510   19.1300 O.2   579  ILE579     -0.2867
     68  CB         6.1730   -6.8820   20.2790 C.3   579  ILE579      0.0252
     69  CG1        6.9430   -5.7900   21.0440 C.3   579  ILE579      0.0019
     70  CG2        7.1410   -7.7530   19.4400 C.3   579  ILE579      0.0019
     71  CD1        7.6200   -6.2840   22.2940 C.3   579  ILE579      0.0001
     72  N          4.7250  -10.4630   16.2270 N.3   581  LYS581     -0.1245
     73  CA         5.6590  -11.5020   15.8070 C.3   581  LYS581      0.1561
     74  C          4.9550  -12.5150   14.9200 C.2   581  LYS581      0.2260
     75  O          3.8120  -12.9100   15.1650 O.2   581  LYS581     -0.2867
     76  CB         6.4320  -12.1560   16.9830 C.3   581  LYS581      0.0271
     77  CG         7.3640  -13.3080   16.5480 C.3   581  LYS581      0.0035
     78  CD         8.5660  -13.5280   17.4520 C.3   581  LYS581      0.0206
     79  CE         8.2530  -14.2290   18.7430 C.3   581  LYS581      0.1093
     80  NZ         9.0130  -13.6330   19.8690 N.3   581  LYS581     -0.1314
     81  N          3.0530   -9.2350   31.4740 N.3   615  TYR615     -0.1241
     82  CA         2.7590   -8.5930   30.1820 C.3   615  TYR615      0.1605
     83  C          1.9720   -9.5440   29.2750 C.2   615  TYR615      0.2264
     84  O          2.1640  -10.7550   29.3320 O.2   615  TYR615     -0.2867
     85  CB         4.0400   -8.0780   29.4950 C.3   615  TYR615      0.0534
     86  CG         4.9970   -9.1720   29.0750 C.ar  615  TYR615     -0.0201
     87  CD1        6.0060   -9.6150   29.9310 C.ar  615  TYR615     -0.0009
     88  CD2        4.8980   -9.7680   27.8210 C.ar  615  TYR615     -0.0009
     89  CE1        6.8860  -10.6290   29.5470 C.ar  615  TYR615      0.0417
     90  CE2        5.7610  -10.7940   27.4350 C.ar  615  TYR615      0.0417
     91  CZ         6.7590  -11.2120   28.2930 C.ar  615  TYR615      0.1957
     92  OH         7.5930  -12.2170   27.8810 O.3   615  TYR615     -0.2866
     93  N          2.5950   -9.3870   21.5850 N.3   627  ILE627     -0.1231
     94  CA         3.2090   -9.2730   22.8930 C.3   627  ILE627      0.1692
     95  C          2.9890   -7.8180   23.2660 C.2   627  ILE627      0.2592
     96  O          2.9950   -6.9510   22.4040 O.2   627  ILE627     -0.2718
     97  CB         4.7180   -9.6580   22.8230 C.3   627  ILE627      0.0266
     98  CG1        4.8990  -11.1330   22.3550 C.3   627  ILE627      0.0019
     99  CG2        5.4190   -9.4140   24.1540 C.3   627  ILE627      0.0020
    100  CD1        6.2300  -11.4290   21.7770 C.3   627  ILE627      0.0001
    101  N          2.8200   -7.5480   24.5420 N.am  628  GLU628     -0.1966
    102  CA         2.6260   -6.2130   25.0500 C.3   628  GLU628      0.1733
    103  C          3.9570   -5.5380   25.3600 C.2   628  GLU628      0.2616
    104  O          4.7650   -6.0740   26.1210 O.2   628  GLU628     -0.2715
    105  CB         1.7750   -6.3030   26.3150 C.3   628  GLU628      0.0429
    106  CG         1.0960   -5.0100   26.7140 C.3   628  GLU628      0.1163
    107  CD         0.8550   -4.9050   28.2030 C.2   628  GLU628      0.3649
    108  OE1        0.8120   -5.9610   28.8770 O.co2 628  GLU628     -0.2457
    109  OE2        0.6260   -3.7710   28.6810 O.co2 628  GLU628     -0.2457
    110  N          4.1690   -4.3480   24.7870 N.am  629  VAL629     -0.1963
    111  CA         5.3550   -3.5530   25.0550 C.3   629  VAL629      0.1727
    112  C          5.2740   -3.1180   26.5270 C.2   629  VAL629      0.2616
    113  O          4.2710   -2.5240   26.9390 O.2   629  VAL629     -0.2715
    114  CB         5.4650   -2.3240   24.0970 C.3   629  VAL629      0.0290
    115  CG1        6.3520   -1.2230   24.6570 C.3   629  VAL629      0.0023
    116  CG2        5.9080   -2.7290   22.6980 C.3   629  VAL629      0.0023
    117  N          6.3110   -3.4650   27.3150 N.am  630  VAL630     -0.1977
    118  CA         6.4380   -3.0140   28.6960 C.3   630  VAL630      0.1596
    119  C          7.3140   -1.7980   28.4860 C.2   630  VAL630      0.2287
    120  O          8.4220   -1.9320   27.9810 O.2   630  VAL630     -0.2864
    121  CB         7.0670   -4.0340   29.6780 C.3   630  VAL630      0.0276
    122  CG1        7.1540   -3.4580   31.0820 C.3   630  VAL630      0.0022
    123  CG2        6.2880   -5.3410   29.6990 C.3   630  VAL630      0.0022
    124  N         11.8140   -0.1930   29.6020 N.3   633  SER633     -0.1202
    125  CA        12.5460   -1.4050   29.9530 C.3   633  SER633      0.2020
    126  C         13.6860   -1.6990   28.9650 C.2   633  SER633      0.2619
    127  O         13.7930   -1.0610   27.9090 O.2   633  SER633     -0.2717
    128  CB        11.5920   -2.5960   30.0800 C.3   633  SER633      0.2103
    129  OG        10.9410   -2.8590   28.8500 O.3   633  SER633     -0.2182
    130  N         14.5520   -2.6480   29.3310 N.am  634  ASP634     -0.1959
    131  CA        15.7190   -3.0640   28.5480 C.3   634  ASP634      0.1840
    132  C         16.1990   -4.3660   29.1080 C.2   634  ASP634      0.2622
    133  O         15.9400   -4.6690   30.2830 O.2   634  ASP634     -0.2715
    134  CB        16.8610   -2.0290   28.6620 C.3   634  ASP634      0.1450
    135  CG        17.5240   -1.6660   27.3590 C.2   634  ASP634      0.3671
    136  OD1       17.6880   -2.5600   26.5090 O.co2 634  ASP634     -0.2456
    137  OD2       17.8790   -0.4820   27.1890 O.co2 634  ASP634     -0.2456
    138  N         16.9040   -5.1410   28.2740 N.am  635  THR635     -0.1951
    139  CA        17.4650   -6.4440   28.6840 C.3   635  THR635      0.1897
    140  C         18.7040   -6.2100   29.5350 C.2   635  THR635      0.2313
    141  O         19.3550   -5.1700   29.3810 O.2   635  THR635     -0.2863
    142  CB        17.8700   -7.2750   27.4490 C.3   635  THR635      0.1794
    143  OG1       18.8060   -6.5160   26.6780 O.3   635  THR635     -0.2208
    144  CG2       16.6690   -7.6960   26.5780 C.3   635  THR635      0.0378
    145  N         21.8540   -5.6280   27.2110 N.3   638  ASN638     -0.1240
    146  CA        22.0260   -4.2500   26.7330 C.3   638  ASN638      0.1653
    147  C         22.6510   -3.3080   27.7640 C.2   638  ASN638      0.2266
    148  O         23.5760   -2.5670   27.4310 O.2   638  ASN638     -0.2867
    149  CB        20.7160   -3.6840   26.2020 C.3   638  ASN638      0.1155
    150  CG        20.4250   -4.0090   24.7580 C.2   638  ASN638      0.2627
    151  OD1       21.3070   -4.3550   23.9720 O.2   638  ASN638     -0.2716
    152  ND2       19.1730   -3.8550   24.3650 N.am  638  ASN638     -0.0877
    153  N         14.6710   -9.0910   31.4910 N.3   702  MET702     -0.1245
    154  CA        14.4730   -7.6420   31.3610 C.3   702  MET702      0.1570
    155  C         14.2890   -6.9420   32.7060 C.2   702  MET702      0.2261
    156  O         13.9260   -7.5920   33.6880 O.2   702  MET702     -0.2867
    157  CB        13.3350   -7.3350   30.3870 C.3   702  MET702      0.0387
    158  CG        13.7260   -7.6870   28.9650 C.3   702  MET702      0.0595
    159  SD        12.6880   -7.0880   27.6320 S.3   702  MET702     -0.1393
    160  CE        13.1000   -5.4010   27.6240 C.3   702  MET702      0.0692
    161  N         12.0060   -9.0230   35.1850 N.3   710  PHE710     -0.1241
    162  CA        11.0300   -9.9020   34.5360 C.3   710  PHE710      0.1605
    163  C         11.6650  -10.7110   33.4240 C.2   710  PHE710      0.2264
    164  O         12.6830  -10.2980   32.8800 O.2   710  PHE710     -0.2867
    165  CB         9.7590   -9.1620   34.0740 C.3   710  PHE710      0.0534
    166  CG         9.8650   -8.2130   32.9050 C.ar  710  PHE710     -0.0203
    167  CD1       10.1840   -6.8770   33.1010 C.ar  710  PHE710     -0.0042
    168  CD2        9.5440   -8.6320   31.6170 C.ar  710  PHE710     -0.0042
    169  CE1       10.2500   -5.9970   32.0250 C.ar  710  PHE710     -0.0003
    170  CE2        9.6050   -7.7480   30.5490 C.ar  710  PHE710     -0.0003
    171  CZ         9.9320   -6.4260   30.7630 C.ar  710  PHE710     -0.0000
    172  N         11.5190  -12.8480   29.6080 N.3   712  ILE712     -0.1231
    173  CA        10.9660  -12.8850   28.2460 C.3   712  ILE712      0.1692
    174  C         11.4580  -14.1860   27.6230 C.2   712  ILE712      0.2592
    175  O         12.2710  -14.8700   28.2470 O.2   712  ILE712     -0.2718
    176  CB        11.2660  -11.6290   27.3640 C.3   712  ILE712      0.0266
    177  CG1       12.7580  -11.4900   27.0030 C.3   712  ILE712      0.0019
    178  CG2       10.7250  -10.3660   27.9990 C.3   712  ILE712      0.0020
    179  CD1       13.0860  -10.7540   25.6200 C.3   712  ILE712      0.0001
    180  N         10.9550  -14.5420   26.4300 N.am  713  ASP713     -0.1974
    181  CA        11.2940  -15.7590   25.6690 C.3   713  ASP713      0.1709
    182  C         11.1360  -17.0640   26.4690 C.2   713  ASP713      0.2293
    183  O         12.1300  -17.6160   26.9490 O.2   713  ASP713     -0.2864
    184  CB        12.6990  -15.6520   25.0560 C.3   713  ASP713      0.1436
    185  CG        12.9000  -14.4210   24.1970 C.2   713  ASP713      0.3671
    186  OD1       11.9260  -13.9990   23.5230 O.co2 713  ASP713     -0.2456
    187  OD2       14.0430  -13.8900   24.1740 O.co2 713  ASP713     -0.2456
@<TRIPOS>BOND
     1     1     2    1
     2     4     3    2
     3     3     2    1
     4     2     5    1
     5    27    25   ar
     6    27    26   ar
     7    25    23   ar
     8     5     6    1
     9    26    24   ar
    10    23    22   ar
    11     6     7    1
    12    24    22   ar
    13    22    21    1
    14     7     8    1
    15    21    18    1
    16     8     9    1
    17    42    41   ar
    18    47    46    2
    19    17    18    1
    20    17    12   am
    21    18    19    1
    22    12    11    1
    23    12    13    2
    24    11    10    1
    25    11    14    1
    26    15    14    1
    27    39    38    2
    28    31    30    2
    29    46    45    1
    30    74    75    2
    31    74    73    1
    32    19    20    2
    33    19    28   am
    34    14    16    1
    35    37    38    1
    36    37    40    1
    37    37    36    1
    38    38    44   am
    39    41    40    1
    40    41    43   ar
    41    30    36   am
    42    30    29    1
    43    28    29    1
    44    73    72    1
    45    73    76    1
    46    44    45    1
    47    50    51    1
    48    45    48    1
    49    53    52    2
    50    29    32    1
    51    77    76    1
    52    77    78    1
    53    52    51    1
    54    49    48    1
    55    51    54    1
    56    78    79    1
    57    32    33    1
    58    54    55    1
    59    33    34    1
    60    66    67    2
    61    66    65    1
    62    79    80    1
    63    56    55   ar
    64    56    58   ar
    65    55    57   ar
    66    65    64    1
    67    65    68    1
    68    70    68    1
    69    35    34    1
    70    58    59   ar
    71    57    60   ar
    72    57    59   ar
    73    68    69    1
    74    60    62   ar
    75    59    61   ar
    76    69    71    1
    77    93    94    1
    78   100    98    1
    79    62    63   ar
    80    98    97    1
    81    96    95    2
    82    61    63   ar
    83   116   114    1
    84    97    94    1
    85    97    99    1
    86    94    95    1
    87    95   101   am
    88   186   185   ar
    89   151   150    2
    90   114   115    1
    91   114   111    1
    92   187   185   ar
    93   185   184    1
    94   152   150   am
    95   101   102    1
    96   150   149    1
    97   110   111    1
    98   110   103   am
    99   102   103    1
   100   102   105    1
   101   111   112    1
   102   184   181    1
   103   103   104    2
   104   179   177    1
   105   181   180    1
   106   181   182    1
   107   149   146    1
   108   105   106    1
   109   180   174   am
   110   182   183    2
   111   136   135   ar
   112   112   113    2
   113   112   117   am
   114   144   142    1
   115   143   142    1
   116   106   107    1
   117   146   145    1
   118   146   147    1
   119   177   176    1
   120   137   135   ar
   121   117   118    1
   122   135   134    1
   123   176   178    1
   124   176   173    1
   125   148   147    2
   126    90    88   ar
   127    90    91   ar
   128   142   139    1
   129   174   173    1
   130   174   175    2
   131   160   159    1
   132   159   158    1
   133    88    86   ar
   134    92    91    1
   135   127   126    2
   136   120   119    2
   137   107   109   ar
   138   107   108   ar
   139   173   172    1
   140   138   139    1
   141   138   132   am
   142    91    89   ar
   143   119   118    1
   144   131   134    1
   145   131   132    1
   146   131   130    1
   147   139   140    1
   148   118   121    1
   149   129   128    1
   150   158   157    1
   151   126   130   am
   152   126   125    1
   153    86    85    1
   154    86    87   ar
   155   132   133    2
   156    83    84    2
   157    83    82    1
   158   141   140    2
   159    85    82    1
   160    89    87   ar
   161   124   125    1
   162   121   123    1
   163   121   122    1
   164   125   128    1
   165    82    81    1
   166   157   154    1
   167   170   171   ar
   168   170   168   ar
   169   171   169   ar
   170   154   153    1
   171   154   155    1
   172   168   166   ar
   173   169   167   ar
   174   155   156    2
   175   164   163    2
   176   166   167   ar
   177   166   165    1
   178   163   162    1
   179   165   162    1
   180   162   161    1
