@<TRIPOS>MOLECULE
tmp/5t2iA00.pdb
 195 187 0 0 0
SMALL
GASTEIGER

@<TRIPOS>ATOM
      1  N         19.7480   -1.3740    8.3810 N.3   510  LYS510     -0.1245
      2  CA        18.5840   -1.1550    9.2470 C.3   510  LYS510      0.1561
      3  C         18.0040    0.2610    9.0760 C.2   510  LYS510      0.2260
      4  O         16.7940    0.3320    8.8650 O.2   510  LYS510     -0.2867
      5  CB        18.8790   -1.5120   10.7170 C.3   510  LYS510      0.0271
      6  CG        17.6960   -1.2940   11.6740 C.3   510  LYS510      0.0035
      7  CD        17.7800   -2.1620   12.9260 C.3   510  LYS510      0.0206
      8  CE        16.5530   -2.0130   13.8000 C.3   510  LYS510      0.1093
      9  NZ        16.7410   -2.6590   15.1210 N.3   510  LYS510     -0.1314
     10  N          9.4930    0.5490   14.8320 N.3   552  THR552     -0.1203
     11  CA        10.7410   -0.0740   14.3930 C.3   552  THR552      0.1994
     12  C         10.5660   -1.6000   14.3400 C.2   552  THR552      0.2618
     13  O          9.4450   -2.0830   14.2100 O.2   552  THR552     -0.2717
     14  CB        11.9740    0.4400   15.2170 C.3   552  THR552      0.1784
     15  OG1       13.1890    0.0500   14.5520 O.3   552  THR552     -0.2211
     16  CG2       11.9780   -0.0240   16.6670 C.3   552  THR552      0.0376
     17  N         11.6750   -2.3360   14.3760 N.am  553  PHE553     -0.1961
     18  CA        11.7110   -3.7900   14.3870 C.3   553  PHE553      0.1771
     19  C         12.9580   -4.2140   15.1610 C.2   553  PHE553      0.2619
     20  O         13.8800   -3.4030   15.3260 O.2   553  PHE553     -0.2715
     21  CB        11.6890   -4.3690   12.9530 C.3   553  PHE553      0.0574
     22  CG        12.8790   -4.0590   12.0650 C.ar  553  PHE553     -0.0200
     23  CD1       12.9060   -2.9080   11.2860 C.ar  553  PHE553     -0.0042
     24  CD2       13.9290   -4.9610   11.9420 C.ar  553  PHE553     -0.0042
     25  CE1       13.9960   -2.6310   10.4520 C.ar  553  PHE553     -0.0003
     26  CE2       14.9970   -4.7030   11.0790 C.ar  553  PHE553     -0.0003
     27  CZ        15.0250   -3.5430   10.3410 C.ar  553  PHE553     -0.0000
     28  N         12.9740   -5.4640   15.6570 N.am  554  MET554     -0.1963
     29  CA        14.0880   -6.0260   16.4240 C.3   554  MET554      0.1736
     30  C         15.0320   -6.8090   15.5380 C.2   554  MET554      0.2616
     31  O         14.6530   -7.2110   14.4450 O.2   554  MET554     -0.2715
     32  CB        13.5900   -6.8390   17.6350 C.3   554  MET554      0.0427
     33  CG        12.6210   -6.0490   18.4970 C.3   554  MET554      0.0599
     34  SD        12.0920   -6.8860   19.9980 S.3   554  MET554     -0.1393
     35  CE        10.7070   -5.9710   20.3520 C.3   554  MET554      0.0692
     36  N         16.2720   -6.9930   15.9890 N.am  555  ASP555     -0.1957
     37  CA        17.3180   -7.6410   15.1950 C.3   555  ASP555      0.1840
     38  C         17.2820   -9.1700   15.1670 C.2   555  ASP555      0.2622
     39  O         17.9770   -9.7560   14.3280 O.2   555  ASP555     -0.2715
     40  CB        18.7060   -7.1390   15.6250 C.3   555  ASP555      0.1450
     41  CG        19.0810   -5.8160   14.9770 C.2   555  ASP555      0.3671
     42  OD1       18.2950   -5.3220   14.1330 O.co2 555  ASP555     -0.2456
     43  OD2       20.1820   -5.2990   15.2760 O.co2 555  ASP555     -0.2456
     44  N         16.4330   -9.8130   16.0080 N.am  556  SER556     -0.1950
     45  CA        16.2860  -11.2800   16.0390 C.3   556  SER556      0.1924
     46  C         15.7970  -11.8560   14.7050 C.2   556  SER556      0.2314
     47  O         15.3480  -11.0980   13.8450 O.2   556  SER556     -0.2863
     48  CB        15.4170  -11.7390   17.2110 C.3   556  SER556      0.2116
     49  OG        14.1720  -11.0640   17.2690 O.3   556  SER556     -0.2180
     50  N          7.9990   -3.4300   16.1940 N.3   562  TRP562     -0.1241
     51  CA         7.7900   -2.6180   17.3860 C.3   562  TRP562      0.1605
     52  C          6.8580   -1.5160   16.9600 C.2   562  TRP562      0.2264
     53  O          7.2610   -0.6480   16.2000 O.2   562  TRP562     -0.2867
     54  CB         9.1400   -2.0580   17.8640 C.3   562  TRP562      0.0550
     55  CG         9.0650   -1.1120   19.0330 C.ar  562  TRP562      0.0003
     56  CD1        8.8340    0.2360   18.9940 C.ar  562  TRP562      0.0946
     57  CD2        9.3040   -1.4390   20.4050 C.ar  562  TRP562      0.0152
     58  NE1        8.8900    0.7620   20.2620 N.ar  562  TRP562     -0.2442
     59  CE2        9.1870   -0.2430   21.1480 C.ar  562  TRP562      0.0810
     60  CE3        9.5940   -2.6340   21.0820 C.ar  562  TRP562      0.0012
     61  CZ2        9.3240   -0.2140   22.5350 C.ar  562  TRP562      0.0191
     62  CZ3        9.7620   -2.5950   22.4500 C.ar  562  TRP562      0.0001
     63  CH2        9.6370   -1.3960   23.1610 C.ar  562  TRP562      0.0015
     64  N          4.2060   -5.5510   20.2110 N.3   579  ILE579     -0.1245
     65  CA         5.2480   -6.2850   19.5050 C.3   579  ILE579      0.1561
     66  C          4.5190   -7.2890   18.6330 C.2   579  ILE579      0.2260
     67  O          3.8160   -8.1520   19.1600 O.2   579  ILE579     -0.2867
     68  CB         6.2440   -6.9800   20.4760 C.3   579  ILE579      0.0252
     69  CG1        7.0020   -5.9290   21.3280 C.3   579  ILE579      0.0019
     70  CG2        7.2120   -7.9620   19.7430 C.3   579  ILE579      0.0019
     71  CD1        7.7210   -6.4790   22.5700 C.3   579  ILE579      0.0001
     72  N          4.8990  -10.4180   16.3160 N.3   581  LYS581     -0.1245
     73  CA         5.8460  -11.5000   16.0630 C.3   581  LYS581      0.1561
     74  C          5.2540  -12.5030   15.0900 C.2   581  LYS581      0.2260
     75  O          4.1280  -12.9400   15.2710 O.2   581  LYS581     -0.2867
     76  CB         6.2350  -12.1680   17.4000 C.3   581  LYS581      0.0271
     77  CG         7.6610  -12.6780   17.4600 C.3   581  LYS581      0.0035
     78  CD         8.0070  -13.1770   18.8590 C.3   581  LYS581      0.0206
     79  CE         8.9220  -12.2390   19.6110 C.3   581  LYS581      0.1093
     80  NZ        10.3600  -12.5320   19.3620 N.3   581  LYS581     -0.1314
     81  N          4.8360  -19.3990   25.4990 N.3   589  ASP589     -0.1239
     82  CA         5.1330  -18.1180   26.1490 C.3   589  ASP589      0.1674
     83  C          3.8820  -17.6390   26.8550 C.2   589  ASP589      0.2266
     84  O          3.9640  -17.2060   27.9960 O.2   589  ASP589     -0.2867
     85  CB         5.5640  -17.0720   25.1090 C.3   589  ASP589      0.1410
     86  CG         7.0090  -17.1760   24.6930 C.2   589  ASP589      0.3668
     87  OD1        7.8580  -16.4790   25.3090 O.co2 589  ASP589     -0.2456
     88  OD2        7.2920  -17.9210   23.7350 O.co2 589  ASP589     -0.2456
     89  N          2.8210   -8.9090   31.6090 N.3   615  TYR615     -0.1241
     90  CA         2.5810   -8.3590   30.2690 C.3   615  TYR615      0.1605
     91  C          1.8690   -9.3500   29.3430 C.2   615  TYR615      0.2264
     92  O          2.1070  -10.5530   29.4110 O.2   615  TYR615     -0.2867
     93  CB         3.8830   -7.8390   29.6420 C.3   615  TYR615      0.0534
     94  CG         4.9210   -8.9060   29.3720 C.ar  615  TYR615     -0.0201
     95  CD1        4.9660   -9.5710   28.1450 C.ar  615  TYR615     -0.0009
     96  CD2        5.8930   -9.2170   30.3190 C.ar  615  TYR615     -0.0009
     97  CE1        5.9380  -10.5300   27.8800 C.ar  615  TYR615      0.0417
     98  CE2        6.8660  -10.1800   30.0660 C.ar  615  TYR615      0.0417
     99  CZ         6.8920  -10.8240   28.8400 C.ar  615  TYR615      0.1957
    100  OH         7.8090  -11.8110   28.6080 O.3   615  TYR615     -0.2866
    101  N          2.6910   -9.2810   21.5840 N.3   627  ILE627     -0.1231
    102  CA         3.2880   -9.1070   22.9020 C.3   627  ILE627      0.1692
    103  C          3.0650   -7.6340   23.2690 C.2   627  ILE627      0.2592
    104  O          3.2730   -6.7330   22.4530 O.2   627  ILE627     -0.2718
    105  CB         4.7830   -9.5230   22.9320 C.3   627  ILE627      0.0266
    106  CG1        4.9400  -11.0550   22.7220 C.3   627  ILE627      0.0019
    107  CG2        5.4720   -9.0870   24.2550 C.3   627  ILE627      0.0020
    108  CD1        6.2390  -11.4720   22.1810 C.3   627  ILE627      0.0001
    109  N          2.6400   -7.3960   24.4930 N.am  628  GLU628     -0.1966
    110  CA         2.4530   -6.0450   24.9900 C.3   628  GLU628      0.1733
    111  C          3.8210   -5.4680   25.3500 C.2   628  GLU628      0.2616
    112  O          4.5730   -6.0920   26.0990 O.2   628  GLU628     -0.2715
    113  CB         1.5420   -6.0800   26.2300 C.3   628  GLU628      0.0429
    114  CG         1.4330   -4.7580   26.9750 C.3   628  GLU628      0.1163
    115  CD         0.7150   -4.8230   28.3120 C.2   628  GLU628      0.3649
    116  OE1        0.5000   -5.9410   28.8340 O.co2 628  GLU628     -0.2457
    117  OE2        0.3300   -3.7480   28.8200 O.co2 628  GLU628     -0.2457
    118  N          4.1240   -4.2760   24.8370 N.am  629  VAL629     -0.1963
    119  CA         5.3570   -3.5720   25.1640 C.3   629  VAL629      0.1727
    120  C          5.3250   -3.0960   26.6180 C.2   629  VAL629      0.2616
    121  O          4.3640   -2.4360   27.0380 O.2   629  VAL629     -0.2715
    122  CB         5.6140   -2.3840   24.1890 C.3   629  VAL629      0.0290
    123  CG1        6.5680   -1.3330   24.7750 C.3   629  VAL629      0.0023
    124  CG2        6.0920   -2.8620   22.8280 C.3   629  VAL629      0.0023
    125  N          6.3900   -3.4290   27.3700 N.am  630  VAL630     -0.1977
    126  CA         6.6300   -2.9010   28.7080 C.3   630  VAL630      0.1596
    127  C          7.5860   -1.7230   28.4700 C.2   630  VAL630      0.2287
    128  O          8.7510   -1.9210   28.1230 O.2   630  VAL630     -0.2864
    129  CB         7.1890   -3.9000   29.7390 C.3   630  VAL630      0.0276
    130  CG1        7.3420   -3.2390   31.1140 C.3   630  VAL630      0.0022
    131  CG2        6.3220   -5.1380   29.8380 C.3   630  VAL630      0.0022
    132  N         11.9320    0.0780   29.9070 N.3   633  SER633     -0.1202
    133  CA        12.5980   -1.1570   30.2690 C.3   633  SER633      0.2020
    134  C         13.6920   -1.5120   29.2470 C.2   633  SER633      0.2619
    135  O         13.6930   -0.9900   28.1290 O.2   633  SER633     -0.2717
    136  CB        11.5790   -2.2830   30.4590 C.3   633  SER633      0.2103
    137  OG        11.0290   -2.7830   29.2530 O.3   633  SER633     -0.2182
    138  N         14.6530   -2.3550   29.6540 N.am  634  ASP634     -0.1959
    139  CA        15.7480   -2.8000   28.7950 C.3   634  ASP634      0.1840
    140  C         16.2230   -4.1390   29.2880 C.2   634  ASP634      0.2622
    141  O         15.9690   -4.5130   30.4350 O.2   634  ASP634     -0.2715
    142  CB        16.9240   -1.7960   28.8040 C.3   634  ASP634      0.1450
    143  CG        17.5140   -1.4670   27.4430 C.2   634  ASP634      0.3671
    144  OD1       17.6050   -2.3770   26.5940 O.co2 634  ASP634     -0.2456
    145  OD2       17.8430   -0.2910   27.2150 O.co2 634  ASP634     -0.2456
    146  N         16.9290   -4.8610   28.4200 N.am  635  THR635     -0.1951
    147  CA        17.5010   -6.1560   28.7620 C.3   635  THR635      0.1897
    148  C         18.7090   -5.9250   29.6840 C.2   635  THR635      0.2313
    149  O         19.3120   -4.8520   29.6730 O.2   635  THR635     -0.2863
    150  CB        17.9030   -6.9100   27.4980 C.3   635  THR635      0.1794
    151  OG1       18.8370   -6.1040   26.7940 O.3   635  THR635     -0.2208
    152  CG2       16.7170   -7.2220   26.5910 C.3   635  THR635      0.0378
    153  N         21.8760   -5.3440   27.6040 N.3   638  ASN638     -0.1240
    154  CA        22.0230   -3.9920   27.0740 C.3   638  ASN638      0.1653
    155  C         22.5670   -3.0110   28.0970 C.2   638  ASN638      0.2266
    156  O         23.3520   -2.1330   27.7390 O.2   638  ASN638     -0.2867
    157  CB        20.7170   -3.4910   26.4640 C.3   638  ASN638      0.1155
    158  CG        20.4870   -3.9200   25.0260 C.2   638  ASN638      0.2627
    159  OD1       21.2360   -4.7110   24.4320 O.2   638  ASN638     -0.2716
    160  ND2       19.4320   -3.4010   24.4300 N.am  638  ASN638     -0.0877
    161  N         14.7970   -8.7230   31.7180 N.3   702  MET702     -0.1245
    162  CA        14.5760   -7.2870   31.5770 C.3   702  MET702      0.1570
    163  C         14.4030   -6.6050   32.9290 C.2   702  MET702      0.2261
    164  O         14.1530   -7.2790   33.9330 O.2   702  MET702     -0.2867
    165  CB        13.3950   -7.0240   30.6320 C.3   702  MET702      0.0387
    166  CG        13.6700   -7.5800   29.2190 C.3   702  MET702      0.0595
    167  SD        12.7110   -6.9350   27.8580 S.3   702  MET702     -0.1393
    168  CE        13.3980   -5.3730   27.6970 C.3   702  MET702      0.0692
    169  N         11.9660   -8.6480   35.1860 N.3   710  PHE710     -0.1241
    170  CA        11.0210   -9.5580   34.5290 C.3   710  PHE710      0.1605
    171  C         11.7070  -10.4160   33.4700 C.2   710  PHE710      0.2264
    172  O         12.8590  -10.1540   33.1090 O.2   710  PHE710     -0.2867
    173  CB         9.7550   -8.8570   33.9890 C.3   710  PHE710      0.0534
    174  CG         9.8910   -7.8680   32.8630 C.ar  710  PHE710     -0.0203
    175  CD1       10.2150   -6.5370   33.1190 C.ar  710  PHE710     -0.0042
    176  CD2        9.5540   -8.2250   31.5600 C.ar  710  PHE710     -0.0042
    177  CE1       10.2700   -5.5990   32.0830 C.ar  710  PHE710     -0.0003
    178  CE2        9.6220   -7.2920   30.5230 C.ar  710  PHE710     -0.0003
    179  CZ         9.9670   -5.9790   30.7910 C.ar  710  PHE710     -0.0000
    180  N         11.5530  -12.6180   29.6380 N.3   712  ILE712     -0.1231
    181  CA        11.0660  -12.6990   28.2660 C.3   712  ILE712      0.1692
    182  C         11.5720  -13.9930   27.6220 C.2   712  ILE712      0.2592
    183  O         12.4370  -14.6760   28.1860 O.2   712  ILE712     -0.2718
    184  CB        11.3940  -11.4330   27.4310 C.3   712  ILE712      0.0266
    185  CG1       12.9270  -11.2050   27.2590 C.3   712  ILE712      0.0019
    186  CG2       10.7010  -10.2120   28.0000 C.3   712  ILE712      0.0020
    187  CD1       13.3840  -10.4370   25.9350 C.3   712  ILE712      0.0001
    188  N         10.9980  -14.3340   26.4680 N.am  713  ASP713     -0.1974
    189  CA        11.3250  -15.4850   25.6170 C.3   713  ASP713      0.1709
    190  C         11.3290  -16.8460   26.3580 C.2   713  ASP713      0.2293
    191  O         12.3770  -17.4300   26.6390 O.2   713  ASP713     -0.2864
    192  CB        12.6380  -15.2400   24.8590 C.3   713  ASP713      0.1436
    193  CG        12.5710  -15.7420   23.4330 C.2   713  ASP713      0.3671
    194  OD1       12.8790  -16.9390   23.2100 O.co2 713  ASP713     -0.2456
    195  OD2       12.1490  -14.9580   22.5480 O.co2 713  ASP713     -0.2456
@<TRIPOS>BOND
     1     1     2    1
     2     4     3    2
     3     3     2    1
     4     2     5    1
     5    27    25   ar
     6    27    26   ar
     7    25    23   ar
     8     5     6    1
     9    26    24   ar
    10    23    22   ar
    11     6     7    1
    12    24    22   ar
    13    22    21    1
    14     7     8    1
    15    21    18    1
    16     8     9    1
    17    47    46    2
    18    42    41   ar
    19    13    12    2
    20    39    38    2
    21    12    17   am
    22    12    11    1
    23    17    18    1
    24    18    19    1
    25    11    10    1
    26    11    14    1
    27    31    30    2
    28    15    14    1
    29    46    45    1
    30    41    43   ar
    31    41    40    1
    32    74    75    2
    33    74    73    1
    34    19    20    2
    35    19    28   am
    36    38    37    1
    37    38    44   am
    38    37    40    1
    39    37    36    1
    40    14    16    1
    41    30    36   am
    42    30    29    1
    43    28    29    1
    44    44    45    1
    45    45    48    1
    46    73    72    1
    47    73    76    1
    48    50    51    1
    49    53    52    2
    50    29    32    1
    51    52    51    1
    52    48    49    1
    53    51    54    1
    54    76    77    1
    55    77    78    1
    56    32    33    1
    57    54    55    1
    58    33    34    1
    59    66    67    2
    60    66    65    1
    61    78    79    1
    62    56    55   ar
    63    56    58   ar
    64    55    57   ar
    65    80    79    1
    66    65    64    1
    67    65    68    1
    68    70    68    1
    69    34    35    1
    70    58    59   ar
    71    57    60   ar
    72    57    59   ar
    73    68    69    1
    74    60    62   ar
    75    59    61   ar
    76    69    71    1
    77   101   102    1
    78   108   106    1
    79    62    63   ar
    80   104   103    2
    81    61    63   ar
    82   195   193   ar
    83   106   105    1
    84   124   122    1
    85   102   105    1
    86   102   103    1
    87   105   107    1
    88   194   193   ar
    89   103   109   am
    90   193   192    1
    91    88    86   ar
    92   122   123    1
    93   122   119    1
    94   160   158   am
    95   159   158    2
    96   109   110    1
    97    86    85    1
    98    86    87   ar
    99   118   119    1
   100   118   111   am
   101   192   189    1
   102   110   111    1
   103   110   113    1
   104   158   157    1
   105    85    82    1
   106   119   120    1
   107   111   112    2
   108    81    82    1
   109   189   190    1
   110   189   188    1
   111   187   185    1
   112    82    83    1
   113   113   114    1
   114   190   191    2
   115   157   154    1
   116   188   182   am
   117   152   150    1
   118   144   143   ar
   119   120   121    2
   120   120   125   am
   121   151   150    1
   122    83    84    2
   123   114   115    1
   124   154   153    1
   125   154   155    1
   126   145   143   ar
   127   185   184    1
   128   125   126    1
   129   184   186    1
   130   184   181    1
   131   143   142    1
   132   150   147    1
   133   182   183    2
   134   182   181    1
   135   168   167    1
   136   156   155    2
   137   167   166    1
   138    97    95   ar
   139    97    99   ar
   140   128   127    2
   141   135   134    2
   142    95    94   ar
   143   181   180    1
   144   115   117   ar
   145   115   116   ar
   146   146   147    1
   147   146   140   am
   148   127   126    1
   149   100    99    1
   150   126   129    1
   151   147   148    1
   152   139   142    1
   153   139   140    1
   154   139   138    1
   155    99    98   ar
   156   166   165    1
   157   134   138   am
   158   134   133    1
   159   137   136    1
   160   140   141    2
   161    91    92    2
   162    91    90    1
   163    94    93    1
   164    94    96   ar
   165    93    90    1
   166   149   148    2
   167   129   131    1
   168   129   130    1
   169   132   133    1
   170    98    96   ar
   171    90    89    1
   172   133   136    1
   173   178   179   ar
   174   178   176   ar
   175   165   162    1
   176   179   177   ar
   177   176   174   ar
   178   162   161    1
   179   162   163    1
   180   177   175   ar
   181   174   175   ar
   182   174   173    1
   183   163   164    2
   184   172   171    2
   185   171   170    1
   186   173   170    1
   187   170   169    1
