@<TRIPOS>MOLECULE
tmp/5t2kB00.pdb
 250 236 0 0 0
SMALL
GASTEIGER

@<TRIPOS>ATOM
      1  N        -21.1850  -20.8450   53.0070 N.3     4  ALA4       -0.1245
      2  CA       -22.4310  -20.9500   52.2730 C.3     4  ALA4        0.1562
      3  C        -22.3070  -22.0730   51.2590 C.2     4  ALA4        0.2260
      4  O        -21.2230  -22.3430   50.7260 O.2     4  ALA4       -0.2867
      5  CB       -22.7720  -19.6380   51.5540 C.3     4  ALA4        0.0290
      6  N        -26.3620  -19.1300   40.0210 N.3   108  GLU108     -0.1245
      7  CA       -26.1730  -19.5570   41.4100 C.3   108  GLU108      0.1567
      8  C        -27.4120  -19.2590   42.2440 C.2   108  GLU108      0.2260
      9  O        -27.9590  -18.1590   42.1600 O.2   108  GLU108     -0.2867
     10  CB       -24.9810  -18.8350   42.0380 C.3   108  GLU108      0.0388
     11  CG       -24.6510  -19.3020   43.4290 C.3   108  GLU108      0.1160
     12  CD       -23.6140  -18.4400   44.1040 C.2   108  GLU108      0.3649
     13  OE1      -23.9860  -17.5770   44.9360 O.co2 108  GLU108     -0.2457
     14  OE2      -22.4310  -18.6540   43.8130 O.co2 108  GLU108     -0.2457
     15  N        -28.5550  -19.7500   46.5400 N.3   110  SER110     -0.1217
     16  CA       -27.8490  -20.0100   47.7890 C.3   110  SER110      0.1889
     17  C        -28.6390  -20.9660   48.6860 C.2   110  SER110      0.2288
     18  O        -29.7440  -21.4030   48.3600 O.2   110  SER110     -0.2866
     19  CB       -27.5630  -18.6950   48.5250 C.3   110  SER110      0.2089
     20  OG       -28.7600  -18.1480   49.0260 O.3   110  SER110     -0.2183
     21  N        -29.0690  -19.9430   51.8830 N.3   112  TYR112     -0.1241
     22  CA       -29.5710  -19.0430   52.9070 C.3   112  TYR112      0.1605
     23  C        -31.0760  -19.2200   53.0200 C.2   112  TYR112      0.2264
     24  O        -31.5620  -19.7070   54.0380 O.2   112  TYR112     -0.2867
     25  CB       -29.2060  -17.5790   52.5900 C.3   112  TYR112      0.0534
     26  CG       -27.7170  -17.2960   52.7020 C.ar  112  TYR112     -0.0201
     27  CD1      -27.0440  -17.5100   53.8970 C.ar  112  TYR112     -0.0009
     28  CD2      -26.9900  -16.8130   51.6250 C.ar  112  TYR112     -0.0009
     29  CE1      -25.6920  -17.2710   54.0150 C.ar  112  TYR112      0.0417
     30  CE2      -25.6270  -16.5710   51.7300 C.ar  112  TYR112      0.0417
     31  CZ       -24.9810  -16.8030   52.9270 C.ar  112  TYR112      0.1957
     32  OH       -23.6260  -16.5710   53.0840 O.3   112  TYR112     -0.2866
     33  N        -34.9730  -21.5490   37.6500 N.3   125  ARG125     -0.1245
     34  CA       -34.0040  -20.4860   37.8960 C.3   125  ARG125      0.1563
     35  C        -32.5760  -20.8900   37.5550 C.2   125  ARG125      0.2260
     36  O        -31.7800  -20.0330   37.1470 O.2   125  ARG125     -0.2867
     37  CB       -34.0840  -20.0330   39.3520 C.3   125  ARG125      0.0307
     38  CG       -35.4690  -19.5150   39.7060 C.3   125  ARG125      0.0489
     39  CD       -35.4960  -18.8520   41.0540 C.3   125  ARG125      0.2205
     40  NE       -34.7000  -17.6310   41.0300 N.pl3 125  ARG125     -0.0865
     41  CZ       -34.3500  -16.9470   42.1120 C.cat 125  ARG125      0.5346
     42  NH1      -34.7310  -17.3610   43.3130 N.pl3 125  ARG125      0.1354
     43  NH2      -33.6180  -15.8500   41.9890 N.pl3 125  ARG125      0.1354
     44  N        -23.9360   -5.5520   36.3720 N.3   139  TYR139     -0.1241
     45  CA       -22.7480   -5.1340   37.1070 C.3   139  TYR139      0.1605
     46  C        -22.2280   -6.2760   37.9530 C.2   139  TYR139      0.2264
     47  O        -23.0110   -7.1190   38.4050 O.2   139  TYR139     -0.2867
     48  CB       -23.0250   -3.9310   38.0060 C.3   139  TYR139      0.0534
     49  CG       -24.1720   -4.0840   38.9400 C.ar  139  TYR139     -0.0201
     50  CD1      -25.4680   -3.8870   38.4950 C.ar  139  TYR139     -0.0009
     51  CD2      -23.9700   -4.3710   40.2740 C.ar  139  TYR139     -0.0009
     52  CE1      -26.5420   -3.9860   39.3670 C.ar  139  TYR139      0.0417
     53  CE2      -25.0430   -4.4630   41.1520 C.ar  139  TYR139      0.0417
     54  CZ       -26.3160   -4.2740   40.6790 C.ar  139  TYR139      0.1957
     55  OH       -27.3640   -4.3410   41.5710 O.3   139  TYR139     -0.2866
     56  N        -20.1440   -7.6260   41.5730 N.3   141  MET141     -0.1245
     57  CA       -19.9520   -7.1560   42.9410 C.3   141  MET141      0.1570
     58  C        -19.1890   -8.1820   43.7790 C.2   141  MET141      0.2261
     59  O        -19.1320   -9.3740   43.4650 O.2   141  MET141     -0.2867
     60  CB       -21.2860   -6.8110   43.6360 C.3   141  MET141      0.0387
     61  CG       -22.2700   -7.9180   43.6770 C.3   141  MET141      0.0595
     62  SD       -23.7390   -7.5030   44.6710 S.3   141  MET141     -0.1393
     63  CE       -23.1370   -7.8050   46.3160 C.3   141  MET141      0.0692
     64  N        -18.5720   -8.9960   48.1960 N.3   143  LYS143     -0.1245
     65  CA       -18.9460   -8.6590   49.5650 C.3   143  LYS143      0.1561
     66  C        -17.6890   -8.3850   50.3810 C.2   143  LYS143      0.2260
     67  O        -16.7410   -9.1800   50.3870 O.2   143  LYS143     -0.2867
     68  CB       -19.8270   -9.7470   50.1620 C.3   143  LYS143      0.0271
     69  CG       -21.2500   -9.6350   49.5780 C.3   143  LYS143      0.0035
     70  CD       -22.2670  -10.5340   50.2370 C.3   143  LYS143      0.0206
     71  CE       -23.6510  -10.3420   49.6080 C.3   143  LYS143      0.1093
     72  NZ       -24.6530  -11.2680   50.2150 N.3   143  LYS143     -0.1314
     73  N        -17.8600   -9.8410   55.7140 N.3   151  TRP151     -0.1241
     74  CA       -19.0050  -10.7060   55.4400 C.3   151  TRP151      0.1605
     75  C        -18.6740  -12.1620   55.7120 C.2   151  TRP151      0.2264
     76  O        -19.4950  -12.9100   56.2710 O.2   151  TRP151     -0.2867
     77  CB       -19.4110  -10.5350   53.9740 C.3   151  TRP151      0.0550
     78  CG       -20.4670  -11.4870   53.5260 C.ar  151  TRP151      0.0003
     79  CD1      -20.2860  -12.6220   52.8010 C.ar  151  TRP151      0.0946
     80  CD2      -21.8850  -11.4020   53.7940 C.ar  151  TRP151      0.0152
     81  NE1      -21.4960  -13.2430   52.5840 N.ar  151  TRP151     -0.2442
     82  CE2      -22.4900  -12.5140   53.1750 C.ar  151  TRP151      0.0810
     83  CE3      -22.6900  -10.4910   54.4770 C.ar  151  TRP151      0.0012
     84  CZ2      -23.8590  -12.7320   53.2080 C.ar  151  TRP151      0.0191
     85  CZ3      -24.0620  -10.7070   54.5040 C.ar  151  TRP151      0.0001
     86  CH2      -24.6240  -11.8360   53.8940 C.ar  151  TRP151      0.0015
     87  N        -29.7100  -11.3560   54.8050 N.3   163  MET163     -0.1230
     88  CA       -30.2940  -11.6920   53.5020 C.3   163  MET163      0.1702
     89  C        -31.8190  -11.7030   53.5440 C.2   163  MET163      0.2592
     90  O        -32.4680  -11.4320   52.5330 O.2   163  MET163     -0.2718
     91  CB       -29.7840  -13.0490   53.0190 C.3   163  MET163      0.0401
     92  CG       -28.2790  -13.0600   52.6450 C.3   163  MET163      0.0596
     93  SD       -27.8260  -11.7800   51.4620 S.3   163  MET163     -0.1393
     94  CE       -28.8570  -12.2190   50.0360 C.3   163  MET163      0.0692
     95  N        -32.4120  -12.0070   54.6890 N.am  164  ARG164     -0.1980
     96  CA       -33.8620  -11.8970   54.7880 C.3   164  ARG164      0.1597
     97  C        -34.3120  -10.4620   54.5560 C.2   164  ARG164      0.2287
     98  O        -35.3060  -10.2160   53.8540 O.2   164  ARG164     -0.2864
     99  CB       -34.3430  -12.3980   56.1590 C.3   164  ARG164      0.0334
    100  CG       -35.8570  -12.3600   56.2990 C.3   164  ARG164      0.0492
    101  CD       -36.3620  -13.1450   57.5240 C.3   164  ARG164      0.2205
    102  NE       -36.1750  -12.4140   58.7790 N.pl3 164  ARG164     -0.0865
    103  CZ       -37.1540  -11.9860   59.5800 C.cat 164  ARG164      0.5346
    104  NH1      -38.4300  -12.1970   59.2930 N.pl3 164  ARG164      0.1354
    105  NH2      -36.8450  -11.3420   60.6970 N.pl3 164  ARG164      0.1354
    106  N        -32.7380   -8.1560   52.7510 N.3   166  HIS166     -0.1226
    107  CA       -32.5450   -8.0030   51.3030 C.3   166  HIS166      0.1752
    108  C        -33.7170   -8.5680   50.4910 C.2   166  HIS166      0.2596
    109  O        -34.2310   -7.9170   49.5710 O.2   166  HIS166     -0.2718
    110  CB       -31.2400   -8.7170   50.9650 C.3   166  HIS166      0.0759
    111  CG       -30.9370   -8.8320   49.5120 C.ar  166  HIS166      0.0818
    112  ND1      -30.3170   -7.8310   48.7990 N.ar  166  HIS166     -0.2268
    113  CD2      -31.1040   -9.8620   48.6550 C.ar  166  HIS166      0.1154
    114  CE1      -30.1470   -8.2290   47.5520 C.ar  166  HIS166      0.1986
    115  NE2      -30.6230   -9.4540   47.4400 N.ar  166  HIS166     -0.2212
    116  N        -34.1140   -9.8040   50.7880 N.am  167  GLY167     -0.1957
    117  CA       -35.2030  -10.4250   50.0520 C.3   167  GLY167      0.1869
    118  C        -36.5110   -9.6820   50.2230 C.2   167  GLY167      0.2309
    119  O        -37.2810   -9.5410   49.2730 O.2   167  GLY167     -0.2863
    120  N        -36.2990   -6.8020   47.8430 N.3   170  GLY170     -0.1210
    121  CA       -36.4300   -7.2470   46.4660 C.3   170  GLY170      0.1956
    122  C        -37.8540   -7.6390   46.1040 C.2   170  GLY170      0.2611
    123  O        -38.2990   -7.4280   44.9760 O.2   170  GLY170     -0.2717
    124  N        -38.5810   -8.2510   47.0420 N.am  171  ARG171     -0.1979
    125  CA       -39.9350   -8.6850   46.7030 C.3   171  ARG171      0.1597
    126  C        -40.8590   -7.5110   46.3870 C.2   171  ARG171      0.2287
    127  O        -41.8490   -7.6970   45.6720 O.2   171  ARG171     -0.2864
    128  CB       -40.5110   -9.5510   47.8180 C.3   171  ARG171      0.0334
    129  CG       -39.9710  -10.9990   47.7040 C.3   171  ARG171      0.0492
    130  CD       -40.6960  -11.9720   48.6240 C.3   171  ARG171      0.2205
    131  NE       -40.5280  -11.6020   50.0180 N.pl3 171  ARG171     -0.0865
    132  CZ       -39.4690  -11.9040   50.7640 C.cat 171  ARG171      0.5346
    133  NH1      -38.4440  -12.5890   50.2600 N.pl3 171  ARG171      0.1354
    134  NH2      -39.4450  -11.5130   52.0260 N.pl3 171  ARG171      0.1354
    135  N        -40.2700   -5.3740   44.2710 N.3   173  TYR173     -0.1241
    136  CA       -40.1040   -5.1250   42.8470 C.3   173  TYR173      0.1605
    137  C        -40.5720   -6.3050   42.0080 C.2   173  TYR173      0.2264
    138  O        -40.2540   -6.3830   40.8140 O.2   173  TYR173     -0.2867
    139  CB       -38.6380   -4.7600   42.5590 C.3   173  TYR173      0.0534
    140  CG       -38.3000   -3.3990   43.1220 C.ar  173  TYR173     -0.0201
    141  CD1      -37.9580   -3.2290   44.4640 C.ar  173  TYR173     -0.0009
    142  CD2      -38.3930   -2.2750   42.3320 C.ar  173  TYR173     -0.0009
    143  CE1      -37.6850   -1.9840   44.9590 C.ar  173  TYR173      0.0417
    144  CE2      -38.1340   -1.0390   42.8240 C.ar  173  TYR173      0.0417
    145  CZ       -37.7900   -0.8960   44.1420 C.ar  173  TYR173      0.1957
    146  OH       -37.5170    0.3540   44.6290 O.3   173  TYR173     -0.2866
    147  N        -38.9920   -6.0290   37.9420 N.3   177  VAL177     -0.1245
    148  CA       -37.6020   -6.3420   37.6270 C.3   177  VAL177      0.1561
    149  C        -37.3610   -7.8140   37.9260 C.2   177  VAL177      0.2260
    150  O        -37.7550   -8.3080   38.9930 O.2   177  VAL177     -0.2867
    151  CB       -36.6370   -5.4840   38.4720 C.3   177  VAL177      0.0252
    152  CG1      -35.1850   -5.7520   38.0750 C.3   177  VAL177      0.0019
    153  CG2      -36.9680   -4.0400   38.3720 C.3   177  VAL177      0.0019
    154  N        -34.1540  -10.4990   38.3800 N.3   179  GLN179     -0.1245
    155  CA       -32.7040  -10.5790   38.5580 C.3   179  GLN179      0.1566
    156  C        -32.2280  -11.9830   38.2190 C.2   179  GLN179      0.2260
    157  O        -32.9120  -12.9690   38.4920 O.2   179  GLN179     -0.2867
    158  CB       -32.2680  -10.1950   39.9870 C.3   179  GLN179      0.0367
    159  CG       -32.2530  -11.2910   41.0240 C.3   179  GLN179      0.0905
    160  CD       -33.6340  -11.7970   41.3400 C.2   179  GLN179      0.2608
    161  OE1      -34.6410  -11.2110   40.9280 O.2   179  GLN179     -0.2717
    162  NE2      -33.6970  -12.8830   42.0910 N.am  179  GLN179     -0.0878
    163  N        -28.7550  -13.7610   39.2150 N.3   181  ILE181     -0.1245
    164  CA       -27.4980  -13.6880   39.9510 C.3   181  ILE181      0.1561
    165  C        -26.6280  -14.8540   39.5070 C.2   181  ILE181      0.2260
    166  O        -27.0700  -16.0140   39.5160 O.2   181  ILE181     -0.2867
    167  CB       -27.7210  -13.7370   41.4760 C.3   181  ILE181      0.0252
    168  CG1      -28.7390  -12.6700   41.9090 C.3   181  ILE181      0.0019
    169  CG2      -26.3930  -13.5710   42.1980 C.3   181  ILE181      0.0019
    170  CD1      -28.4090  -11.2510   41.4440 C.3   181  ILE181      0.0001
    171  N        -19.7810  -12.0300   42.3630 N.3   192  TRP192     -0.1241
    172  CA       -21.0380  -12.2980   41.6910 C.3   192  TRP192      0.1605
    173  C        -21.2120  -11.3760   40.4840 C.2   192  TRP192      0.2264
    174  O        -20.6990  -10.2510   40.4480 O.2   192  TRP192     -0.2867
    175  CB       -22.2270  -12.0950   42.6290 C.3   192  TRP192      0.0550
    176  CG       -22.3030  -13.0980   43.7330 C.ar  192  TRP192      0.0003
    177  CD1      -22.9070  -14.3170   43.6810 C.ar  192  TRP192      0.0946
    178  CD2      -21.7470  -12.9780   45.0480 C.ar  192  TRP192      0.0152
    179  NE1      -22.7650  -14.9670   44.8830 N.ar  192  TRP192     -0.2442
    180  CE2      -22.0590  -14.1660   45.7420 C.ar  192  TRP192      0.0810
    181  CE3      -21.0170  -11.9840   45.7010 C.ar  192  TRP192      0.0012
    182  CZ2      -21.6680  -14.3900   47.0780 C.ar  192  TRP192      0.0191
    183  CZ3      -20.6190  -12.2030   47.0360 C.ar  192  TRP192      0.0001
    184  CH2      -20.9510  -13.3970   47.7020 C.ar  192  TRP192      0.0015
    185  N        -24.4800   -9.5590   38.5700 N.3   194  VAL194     -0.1245
    186  CA       -25.8820   -9.1900   38.7510 C.3   194  VAL194      0.1561
    187  C        -26.4070   -8.7140   37.4100 C.2   194  VAL194      0.2260
    188  O        -25.9110   -7.7110   36.8710 O.2   194  VAL194     -0.2867
    189  CB       -26.0650   -8.0920   39.8050 C.3   194  VAL194      0.0252
    190  CG1      -27.5700   -7.7770   39.9940 C.3   194  VAL194      0.0019
    191  CG2      -25.4180   -8.5110   41.0920 C.3   194  VAL194      0.0019
    192  N        -30.0110   -7.5700   35.6370 N.3   196  LEU196     -0.1245
    193  CA       -31.3890   -7.1690   35.8560 C.3   196  LEU196      0.1561
    194  C        -32.0790   -6.9540   34.5170 C.2   196  LEU196      0.2260
    195  O        -31.5010   -6.3750   33.5900 O.2   196  LEU196     -0.2867
    196  CB       -31.4660   -5.8880   36.6790 C.3   196  LEU196      0.0270
    197  CG       -30.6590   -5.8750   37.9740 C.3   196  LEU196      0.0019
    198  CD1      -30.7470   -4.5220   38.6470 C.3   196  LEU196      0.0001
    199  CD2      -31.1160   -6.9560   38.9290 C.3   196  LEU196      0.0001
    200  N        -34.5900    0.0690   42.3090 N.3   207  LEU207     -0.1231
    201  CA       -34.2970   -1.1270   43.0870 C.3   207  LEU207      0.1693
    202  C        -32.9040   -1.0520   43.7290 C.2   207  LEU207      0.2591
    203  O        -32.7530   -1.2110   44.9510 O.2   207  LEU207     -0.2718
    204  CB       -34.4300   -2.3440   42.1710 C.3   207  LEU207      0.0284
    205  CG       -33.9000   -3.6810   42.6870 C.3   207  LEU207      0.0019
    206  CD1      -34.5640   -4.1070   43.9620 C.3   207  LEU207      0.0001
    207  CD2      -34.0660   -4.7360   41.5940 C.3   207  LEU207      0.0001
    208  N        -31.8820   -0.7810   42.9230 N.am  208  VAL208     -0.1980
    209  CA       -30.5030   -0.8270   43.4280 C.3   208  VAL208      0.1595
    210  C        -30.3030    0.2280   44.5110 C.2   208  VAL208      0.2287
    211  O        -29.7300   -0.0440   45.5790 O.2   208  VAL208     -0.2864
    212  CB       -29.5100   -0.6650   42.2650 C.3   208  VAL208      0.0276
    213  CG1      -28.0650   -0.6660   42.7770 C.3   208  VAL208      0.0022
    214  CG2      -29.7210   -1.8110   41.2640 C.3   208  VAL208      0.0022
    215  N        -32.0870   -0.8590   47.6350 N.3   211  MET211     -0.1230
    216  CA       -31.3540   -1.9360   48.2770 C.3   211  MET211      0.1702
    217  C        -30.1090   -1.4150   48.9590 C.2   211  MET211      0.2592
    218  O        -29.6700   -2.0190   49.9510 O.2   211  MET211     -0.2718
    219  CB       -30.9870   -3.0330   47.2780 C.3   211  MET211      0.0401
    220  CG       -32.1120   -4.0270   47.0710 C.3   211  MET211      0.0596
    221  SD       -31.6220   -5.4230   46.0710 S.3   211  MET211     -0.1393
    222  CE       -32.8960   -6.5700   46.5700 C.3   211  MET211      0.0692
    223  N        -29.5790   -0.2770   48.5030 N.am  212  ARG212     -0.1980
    224  CA       -28.3750    0.2440   49.1280 C.3   212  ARG212      0.1597
    225  C        -28.6310    0.6580   50.5720 C.2   212  ARG212      0.2287
    226  O        -27.6660    0.8000   51.3200 O.2   212  ARG212     -0.2864
    227  CB       -27.7830    1.4120   48.3210 C.3   212  ARG212      0.0334
    228  CG       -26.2970    1.6670   48.6340 C.3   212  ARG212      0.0492
    229  CD       -25.5060    2.0950   47.4560 C.3   212  ARG212      0.2205
    230  NE       -25.4890    1.0870   46.4010 N.pl3 212  ARG212     -0.0865
    231  CZ       -24.8240    1.2300   45.2680 C.cat 212  ARG212      0.5346
    232  NH1      -24.1090    2.3330   45.0500 N.pl3 212  ARG212      0.1354
    233  NH2      -24.8870    0.2810   44.3440 N.pl3 212  ARG212      0.1354
    234  N        -26.2580   -4.5510   51.7050 N.3   217  SER217     -0.1217
    235  CA       -25.6800   -3.7590   50.6180 C.3   217  SER217      0.1889
    236  C        -24.9190   -2.5550   51.1530 C.2   217  SER217      0.2288
    237  O        -23.7950   -2.2890   50.7100 O.2   217  SER217     -0.2866
    238  CB       -26.7680   -3.2950   49.6470 C.3   217  SER217      0.2089
    239  OG       -27.4050   -4.4100   49.0330 O.3   217  SER217     -0.2183
    240  N        -18.9980   -2.6690   44.4280 N.3   223  PHE223     -0.1241
    241  CA       -19.5670   -2.7430   43.0830 C.3   223  PHE223      0.1605
    242  C        -18.5400   -2.3940   42.0200 C.2   223  PHE223      0.2264
    243  O        -17.6830   -1.5290   42.2270 O.2   223  PHE223     -0.2867
    244  CB       -20.7600   -1.7960   42.9620 C.3   223  PHE223      0.0534
    245  CG       -21.7940   -2.0050   44.0290 C.ar  223  PHE223     -0.0203
    246  CD1      -22.7930   -2.9610   43.8770 C.ar  223  PHE223     -0.0042
    247  CD2      -21.7530   -1.2700   45.1900 C.ar  223  PHE223     -0.0042
    248  CE1      -23.7350   -3.1720   44.8870 C.ar  223  PHE223     -0.0003
    249  CE2      -22.6720   -1.4680   46.1810 C.ar  223  PHE223     -0.0003
    250  CZ       -23.6740   -2.4160   46.0390 C.ar  223  PHE223     -0.0000
@<TRIPOS>BOND
     1   195   194    2
     2   194   193    1
     3   192   193    1
     4   193   196    1
     5    44    45    1
     6   196   197    1
     7   188   187    2
     8    45    46    1
     9    45    48    1
    10    36    35    2
    11   187   186    1
    12    35    34    1
    13   148   149    1
    14   148   147    1
    15   148   151    1
    16    33    34    1
    17    34    37    1
    18   149   150    2
    19    46    47    2
    20   197   198    1
    21   197   199    1
    22    48    49    1
    23   152   151    1
    24   156   157    2
    25   156   155    1
    26   153   151    1
    27   154   155    1
    28    50    49   ar
    29    50    52   ar
    30   155   158    1
    31   185   186    1
    32   186   189    1
    33    49    51   ar
    34   163   164    1
    35    37    38    1
    36    52    54   ar
    37   165   166    2
    38   165   164    1
    39    38    39    1
    40   189   190    1
    41   189   191    1
    42   164   167    1
    43   158   159    1
    44     6     7    1
    45    51    53   ar
    46   174   173    2
    47   173   172    1
    48    54    53   ar
    49    54    55    1
    50   138   137    2
    51   161   160    2
    52   159   160    1
    53    40    39    1
    54    40    41    2
    55   214   212    1
    56   160   162   am
    57     7    10    1
    58     7     8    1
    59   170   168    1
    60   167   168    1
    61   167   169    1
    62    56    57    1
    63   207   205    1
    64   172   171    1
    65   172   175    1
    66    43    41    1
    67   137   136    1
    68   242   243    2
    69   242   241    1
    70    10    11    1
    71    41    42    1
    72     9     8    2
    73   204   205    1
    74   204   201    1
    75   212   213    1
    76   212   209    1
    77   200   201    1
    78   142   144   ar
    79   142   140   ar
    80   139   136    1
    81   139   140    1
    82   175   176    1
    83   205   206    1
    84   144   145   ar
    85   136   135    1
    86   208   209    1
    87   208   202   am
    88    57    60    1
    89    57    58    1
    90   244   241    1
    91   244   245    1
    92   241   240    1
    93   201   202    1
    94   140   141   ar
    95   209   210    1
    96    11    12    1
    97    59    58    2
    98    60    61    1
    99    61    62    1
   100   177   176   ar
   101   177   179   ar
   102   202   203    2
   103   176   178   ar
   104    14    12   ar
   105   246   245   ar
   106   246   248   ar
   107   245   247   ar
   108    12    13   ar
   109   145   146    1
   110   145   143   ar
   111   233   231    1
   112   141   143   ar
   113   210   211    2
   114    62    63    1
   115   179   180   ar
   116   248   250   ar
   117   123   122    2
   118   178   181   ar
   119   178   180   ar
   120   232   231    1
   121   247   249   ar
   122   231   230    2
   123   127   126    2
   124   181   183   ar
   125   180   182   ar
   126   250   249   ar
   127   221   222    1
   128   221   220    1
   129   122   121    1
   130   122   124   am
   131   126   125    1
   132   230   229    1
   133   121   120    1
   134    15    16    1
   135   125   124    1
   136   125   128    1
   137   183   184   ar
   138   220   219    1
   139   182   184   ar
   140   219   216    1
   141   115   114   ar
   142   115   113   ar
   143   229   228    1
   144   114   112   ar
   145   215   216    1
   146   129   128    1
   147   129   130    1
   148    16    19    1
   149    16    17    1
   150    64    65    1
   151   216   217    1
   152   227   228    1
   153   227   224    1
   154    18    17    2
   155   223   217   am
   156   223   224    1
   157    19    20    1
   158   130   131    1
   159   113   111   ar
   160   112   111   ar
   161   217   218    2
   162   239   238    1
   163   224   225    1
   164   119   118    2
   165   111   110    1
   166    65    68    1
   167    65    66    1
   168   109   108    2
   169    69    68    1
   170    69    70    1
   171    71    72    1
   172    71    70    1
   173   238   235    1
   174   131   132    2
   175    94    93    1
   176   117   118    1
   177   117   116    1
   178   133   132    1
   179    66    67    2
   180   108   116   am
   181   108   107    1
   182   225   226    2
   183   235   236    1
   184   235   234    1
   185   237   236    2
   186     4     3    2
   187   132   134    1
   188   110   107    1
   189     3     2    1
   190   107   106    1
   191    93    92    1
   192     5     2    1
   193    28    30   ar
   194    28    26   ar
   195    30    31   ar
   196    21    22    1
   197     2     1    1
   198    90    89    2
   199    81    79   ar
   200    81    82   ar
   201    25    26    1
   202    25    22    1
   203    92    91    1
   204    26    27   ar
   205    79    78   ar
   206    22    23    1
   207    31    32    1
   208    31    29   ar
   209    91    88    1
   210    23    24    2
   211    82    84   ar
   212    82    80   ar
   213    84    86   ar
   214    88    89    1
   215    88    87    1
   216    78    80   ar
   217    78    77    1
   218    89    95   am
   219    80    83   ar
   220    98    97    2
   221    86    85   ar
   222    27    29   ar
   223    77    74    1
   224    83    85   ar
   225    97    96    1
   226    95    96    1
   227    96    99    1
   228    74    75    1
   229    74    73    1
   230    75    76    2
   231    99   100    1
   232   100   101    1
   233   101   102    1
   234   102   103    2
   235   104   103    1
   236   103   105    1
