@<TRIPOS>MOLECULE
tmp/5t2lA00.pdb
 231 223 0 0 0
SMALL
GASTEIGER

@<TRIPOS>ATOM
      1  N         51.5860   -1.3180    8.2540 N.3   520  LYS520     -0.1245
      2  CA        50.4370   -1.1120    9.1370 C.3   520  LYS520      0.1561
      3  C         49.7750    0.2670    8.9280 C.2   520  LYS520      0.2260
      4  O         48.5540    0.2860    8.8030 O.2   520  LYS520     -0.2867
      5  CB        50.7540   -1.3830   10.6110 C.3   520  LYS520      0.0271
      6  CG        49.4770   -1.4730   11.4510 C.3   520  LYS520      0.0035
      7  CD        49.6570   -2.1220   12.7980 C.3   520  LYS520      0.0206
      8  CE        48.3530   -2.1380   13.5520 C.3   520  LYS520      0.1093
      9  NZ        48.5570   -2.4610   14.9910 N.3   520  LYS520     -0.1314
     10  N         41.3150    0.5320   14.6290 N.3   562  THR562     -0.1203
     11  CA        42.5490   -0.1080   14.1900 C.3   562  THR562      0.1994
     12  C         42.3930   -1.6310   14.1960 C.2   562  THR562      0.2618
     13  O         41.2780   -2.1410   14.1540 O.2   562  THR562     -0.2717
     14  CB        43.7860    0.4200   14.9680 C.3   562  THR562      0.1784
     15  OG1       44.9570    0.0120   14.2660 O.3   562  THR562     -0.2211
     16  CG2       43.8420   -0.0380   16.4430 C.3   562  THR562      0.0376
     17  N         43.5140   -2.3480   14.1910 N.am  563  PHE563     -0.1961
     18  CA        43.5360   -3.7890   14.1950 C.3   563  PHE563      0.1771
     19  C         44.7450   -4.2610   14.9630 C.2   563  PHE563      0.2619
     20  O         45.7500   -3.5470   15.0400 O.2   563  PHE563     -0.2715
     21  CB        43.4830   -4.3570   12.7630 C.3   563  PHE563      0.0574
     22  CG        44.7310   -4.2350   11.9290 C.ar  563  PHE563     -0.0200
     23  CD1       44.9240   -3.1400   11.0920 C.ar  563  PHE563     -0.0042
     24  CD2       45.6870   -5.2420   11.9280 C.ar  563  PHE563     -0.0042
     25  CE1       46.0700   -3.0380   10.2990 C.ar  563  PHE563     -0.0003
     26  CE2       46.8370   -5.1310   11.1460 C.ar  563  PHE563     -0.0003
     27  CZ        47.0140   -4.0410   10.3250 C.ar  563  PHE563     -0.0000
     28  N         44.6430   -5.4360   15.5690 N.am  564  MET564     -0.1963
     29  CA        45.7590   -5.9580   16.3370 C.3   564  MET564      0.1736
     30  C         46.6520   -6.8240   15.4710 C.2   564  MET564      0.2616
     31  O         46.2310   -7.2800   14.4140 O.2   564  MET564     -0.2715
     32  CB        45.2790   -6.6350   17.6180 C.3   564  MET564      0.0427
     33  CG        44.5930   -5.6560   18.5360 C.3   564  MET564      0.0599
     34  SD        43.8490   -6.4100   19.9800 S.3   564  MET564     -0.1393
     35  CE        42.2790   -6.5900   19.4060 C.3   564  MET564      0.0692
     36  N         47.9090   -6.9900   15.8790 N.am  565  ASP565     -0.1971
     37  CA        48.9030   -7.7070   15.0840 C.3   565  ASP565      0.1709
     38  C         48.8170   -9.2200   15.1890 C.2   565  ASP565      0.2293
     39  O         49.4260   -9.9050   14.3600 O.2   565  ASP565     -0.2864
     40  CB        50.3170   -7.1990   15.4090 C.3   565  ASP565      0.1436
     41  CG        50.5010   -5.7320   15.0500 C.2   565  ASP565      0.3671
     42  OD1       50.1160   -5.3400   13.9160 O.co2 565  ASP565     -0.2456
     43  OD2       51.0090   -4.9730   15.9040 O.co2 565  ASP565     -0.2456
     44  N         42.6560   -9.1110   14.4050 N.3   570  PRO570     -0.2116
     45  CA        41.3590   -8.6440   14.9430 C.3   570  PRO570      0.1372
     46  C         41.1270   -7.1550   14.8000 C.2   570  PRO570      0.2244
     47  O         42.0730   -6.3980   15.0010 O.2   570  PRO570     -0.2868
     48  CB        41.4460   -9.0170   16.4340 C.3   570  PRO570      0.0268
     49  CG        42.4250  -10.0810   16.5040 C.3   570  PRO570      0.0207
     50  CD        43.4320   -9.8060   15.4560 C.3   570  PRO570      0.0892
     51  N         39.7760   -3.4890   15.9950 N.3   572  TRP572     -0.1241
     52  CA        39.5900   -2.6600   17.1870 C.3   572  TRP572      0.1605
     53  C         38.6630   -1.5170   16.7580 C.2   572  TRP572      0.2264
     54  O         39.0910   -0.6300   16.0240 O.2   572  TRP572     -0.2867
     55  CB        40.9550   -2.1230   17.6560 C.3   572  TRP572      0.0550
     56  CG        40.8940   -1.2070   18.8500 C.ar  572  TRP572      0.0003
     57  CD1       40.6720    0.1390   18.8440 C.ar  572  TRP572      0.0946
     58  CD2       41.1700   -1.5620   20.2150 C.ar  572  TRP572      0.0152
     59  NE1       40.7640    0.6400   20.1210 N.ar  572  TRP572     -0.2442
     60  CE2       41.0630   -0.3830   20.9830 C.ar  572  TRP572      0.0810
     61  CE3       41.4790   -2.7700   20.8650 C.ar  572  TRP572      0.0012
     62  CZ2       41.2690   -0.3720   22.3680 C.ar  572  TRP572      0.0191
     63  CZ3       41.6690   -2.7590   22.2360 C.ar  572  TRP572      0.0001
     64  CH2       41.5650   -1.5710   22.9710 C.ar  572  TRP572      0.0015
     65  N         36.1000   -5.4790   19.8870 N.3   589  ILE589     -0.1245
     66  CA        37.1240   -6.2170   19.1600 C.3   589  ILE589      0.1561
     67  C         36.3790   -7.2710   18.3310 C.2   589  ILE589      0.2260
     68  O         35.7690   -8.1730   18.9040 O.2   589  ILE589     -0.2867
     69  CB        38.1570   -6.8530   20.1370 C.3   589  ILE589      0.0252
     70  CG1       38.9300   -5.7500   20.9020 C.3   589  ILE589      0.0019
     71  CG2       39.1260   -7.8350   19.3990 C.3   589  ILE589      0.0019
     72  CD1       39.5820   -6.1740   22.2100 C.3   589  ILE589      0.0001
     73  N         36.7670  -10.3480   16.0910 N.3   591  LYS591     -0.1245
     74  CA        37.7430  -11.3930   15.7900 C.3   591  LYS591      0.1561
     75  C         37.0950  -12.4200   14.8780 C.2   591  LYS591      0.2260
     76  O         35.9550  -12.8420   15.0990 O.2   591  LYS591     -0.2867
     77  CB        38.2590  -12.0310   17.0920 C.3   591  LYS591      0.0271
     78  CG        39.4890  -12.9120   16.9490 C.3   591  LYS591      0.0035
     79  CD        39.8710  -13.4210   18.3340 C.3   591  LYS591      0.0206
     80  CE        41.1120  -14.2690   18.3370 C.3   591  LYS591      0.1093
     81  NZ        41.2600  -15.0040   19.6230 N.3   591  LYS591     -0.1314
     82  N         36.4540  -19.4140   25.2550 N.3   599  ASP599     -0.1239
     83  CA        36.8100  -18.1130   25.8400 C.3   599  ASP599      0.1674
     84  C         35.6200  -17.5490   26.5900 C.2   599  ASP599      0.2266
     85  O         35.7750  -16.9910   27.6690 O.2   599  ASP599     -0.2867
     86  CB        37.2060  -17.1180   24.7300 C.3   599  ASP599      0.1410
     87  CG        38.4960  -17.4340   24.0090 C.2   599  ASP599      0.3668
     88  OD1       38.5320  -18.4480   23.2810 O.co2 599  ASP599     -0.2456
     89  OD2       39.4500  -16.6200   24.1140 O.co2 599  ASP599     -0.2456
     90  N         35.2030  -17.0130   30.5050 N.3   603  LEU603     -0.1245
     91  CA        34.8610  -15.6920   31.0280 C.3   603  LEU603      0.1561
     92  C         33.5890  -15.6930   31.8470 C.2   603  LEU603      0.2260
     93  O         33.4860  -14.9510   32.8240 O.2   603  LEU603     -0.2867
     94  CB        34.8020  -14.6530   29.9120 C.3   603  LEU603      0.0270
     95  CG        36.1570  -14.0780   29.4610 C.3   603  LEU603      0.0019
     96  CD1       36.0240  -13.4370   28.0990 C.3   603  LEU603      0.0001
     97  CD2       36.7380  -13.0870   30.4990 C.3   603  LEU603      0.0001
     98  N         34.9190   -9.2870   31.2270 N.3   625  TYR625     -0.1241
     99  CA        34.5360   -8.6050   29.9900 C.3   625  TYR625      0.1605
    100  C         33.7770   -9.5370   29.0280 C.2   625  TYR625      0.2264
    101  O         33.9340  -10.7570   29.0590 O.2   625  TYR625     -0.2867
    102  CB        35.7660   -7.9370   29.3200 C.3   625  TYR625      0.0534
    103  CG        36.8500   -8.9160   28.9240 C.ar  625  TYR625     -0.0201
    104  CD1       37.8610   -9.2680   29.8180 C.ar  625  TYR625     -0.0009
    105  CD2       36.8500   -9.5170   27.6690 C.ar  625  TYR625     -0.0009
    106  CE1       38.8470  -10.1940   29.4690 C.ar  625  TYR625      0.0417
    107  CE2       37.8280  -10.4450   27.3110 C.ar  625  TYR625      0.0417
    108  CZ        38.8140  -10.7880   28.2190 C.ar  625  TYR625      0.1957
    109  OH        39.7560  -11.7060   27.8610 O.3   625  TYR625     -0.2866
    110  N         32.3890  -11.5310   25.7540 N.3   627  CYS627     -0.1235
    111  CA        32.8980  -12.3600   24.6860 C.3   627  CYS627      0.1677
    112  C         31.7110  -13.0820   24.1610 C.2   627  CYS627      0.2270
    113  O         31.1070  -13.8760   24.8810 O.2   627  CYS627     -0.2867
    114  CB        33.9830  -13.3260   25.1510 C.3   627  CYS627      0.0956
    115  SG        34.7550  -14.2450   23.8000 S.3   627  CYS627     -0.0801
    116  N         34.5950   -9.3030   21.3100 N.3   637  ILE637     -0.1231
    117  CA        35.2160   -9.1860   22.6280 C.3   637  ILE637      0.1692
    118  C         35.0380   -7.7210   23.0680 C.2   637  ILE637      0.2592
    119  O         35.2230   -6.7940   22.2690 O.2   637  ILE637     -0.2718
    120  CB        36.7160   -9.6110   22.6470 C.3   637  ILE637      0.0266
    121  CG1       36.9360  -11.0360   22.1220 C.3   637  ILE637      0.0019
    122  CG2       37.2870   -9.4960   24.0450 C.3   637  ILE637      0.0020
    123  CD1       38.3020  -11.2670   21.5430 C.3   637  ILE637      0.0001
    124  N         34.7040   -7.5170   24.3430 N.am  638  GLU638     -0.1966
    125  CA        34.5470   -6.1930   24.9090 C.3   638  GLU638      0.1733
    126  C         35.8950   -5.5900   25.1520 C.2   638  GLU638      0.2616
    127  O         36.7370   -6.2410   25.7490 O.2   638  GLU638     -0.2715
    128  CB        33.8070   -6.2900   26.2490 C.3   638  GLU638      0.0429
    129  CG        33.2010   -4.9690   26.7180 C.3   638  GLU638      0.1163
    130  CD        32.7980   -4.8800   28.1780 C.2   638  GLU638      0.3649
    131  OE1       32.3830   -5.9080   28.7660 O.co2 638  GLU638     -0.2457
    132  OE2       32.8240   -3.7500   28.7110 O.co2 638  GLU638     -0.2457
    133  N         36.0960   -4.3320   24.7450 N.am  639  VAL639     -0.1963
    134  CA        37.3300   -3.6020   25.0130 C.3   639  VAL639      0.1727
    135  C         37.2940   -3.1150   26.4590 C.2   639  VAL639      0.2616
    136  O         36.3580   -2.4320   26.8560 O.2   639  VAL639     -0.2715
    137  CB        37.5480   -2.4260   24.0220 C.3   639  VAL639      0.0290
    138  CG1       38.5390   -1.3870   24.5580 C.3   639  VAL639      0.0023
    139  CG2       37.9810   -2.9300   22.6540 C.3   639  VAL639      0.0023
    140  N         38.2950   -3.4950   27.2480 N.am  640  VAL640     -0.1977
    141  CA        38.4470   -3.0010   28.5980 C.3   640  VAL640      0.1596
    142  C         39.3900   -1.8210   28.4180 C.2   640  VAL640      0.2287
    143  O         40.5870   -2.0110   28.1770 O.2   640  VAL640     -0.2864
    144  CB        38.9910   -4.0500   29.5730 C.3   640  VAL640      0.0276
    145  CG1       39.2130   -3.4410   30.9690 C.3   640  VAL640      0.0022
    146  CG2       38.0620   -5.2540   29.6360 C.3   640  VAL640      0.0022
    147  N         41.4930    1.8290   29.0660 N.3   642  HIS642     -0.1226
    148  CA        42.4860    2.3310   30.0320 C.3   642  HIS642      0.1752
    149  C         43.2190    1.1840   30.7060 C.2   642  HIS642      0.2597
    150  O         43.3300    1.1380   31.9310 O.2   642  HIS642     -0.2718
    151  CB        41.8710    3.3090   31.0680 C.3   642  HIS642      0.0759
    152  CG        40.8970    4.2840   30.4900 C.ar  642  HIS642      0.0818
    153  ND1       39.5840    4.3310   30.9240 N.ar  642  HIS642     -0.2268
    154  CD2       41.0730    5.2090   29.5190 C.ar  642  HIS642      0.1154
    155  CE1       39.0030    5.2730   30.2030 C.ar  642  HIS642      0.1986
    156  NE2       39.8600    5.8310   29.3420 N.ar  642  HIS642     -0.2212
    157  N         43.6470    0.2220   29.8840 N.am  643  SER643     -0.1938
    158  CA        44.3930   -0.9640   30.2600 C.3   643  SER643      0.2055
    159  C         45.4580   -1.2400   29.1920 C.2   643  SER643      0.2643
    160  O         45.3690   -0.7510   28.0520 O.2   643  SER643     -0.2714
    161  CB        43.4630   -2.1690   30.4570 C.3   643  SER643      0.2130
    162  OG        43.0750   -2.8250   29.2620 O.3   643  SER643     -0.2179
    163  N         46.4810   -2.0070   29.5910 N.am  644  ASP644     -0.1957
    164  CA        47.5950   -2.4100   28.7490 C.3   644  ASP644      0.1840
    165  C         48.1500   -3.7130   29.2620 C.2   644  ASP644      0.2622
    166  O         47.9000   -4.0700   30.4150 O.2   644  ASP644     -0.2715
    167  CB        48.6740   -1.3120   28.7020 C.3   644  ASP644      0.1450
    168  CG        49.3830   -1.1820   27.3730 C.2   644  ASP644      0.3671
    169  OD1       49.1210   -2.0050   26.4750 O.co2 644  ASP644     -0.2456
    170  OD2       50.1990   -0.2630   27.2320 O.co2 644  ASP644     -0.2456
    171  N         48.8760   -4.4480   28.3850 N.am  645  THR645     -0.1951
    172  CA        49.4740   -5.7560   28.6950 C.3   645  THR645      0.1897
    173  C         50.6600   -5.6060   29.6290 C.2   645  THR645      0.2313
    174  O         51.2140   -4.5170   29.7390 O.2   645  THR645     -0.2863
    175  CB        49.8040   -6.5470   27.3980 C.3   645  THR645      0.1794
    176  OG1       50.7640   -5.8310   26.6240 O.3   645  THR645     -0.2208
    177  CG2       48.5630   -6.8380   26.5400 C.3   645  THR645      0.0378
    178  N         53.6710   -4.7660   27.4620 N.3   648  ASN648     -0.1240
    179  CA        53.7420   -3.3960   26.9610 C.3   648  ASN648      0.1653
    180  C         54.2620   -2.4290   28.0120 C.2   648  ASN648      0.2266
    181  O         54.9790   -1.4970   27.6760 O.2   648  ASN648     -0.2867
    182  CB        52.4040   -2.9520   26.3620 C.3   648  ASN648      0.1155
    183  CG        52.1560   -3.4490   24.9440 C.2   648  ASN648      0.2627
    184  OD1       53.0170   -3.3950   24.0560 O.2   648  ASN648     -0.2716
    185  ND2       50.9400   -3.8720   24.6740 N.am  648  ASN648     -0.0877
    186  N         46.7810   -8.4880   31.4640 N.3   712  MET712     -0.1245
    187  CA        46.5530   -7.0410   31.3620 C.3   712  MET712      0.1570
    188  C         46.3690   -6.3660   32.7340 C.2   712  MET712      0.2261
    189  O         46.1830   -7.0570   33.7300 O.2   712  MET712     -0.2867
    190  CB        45.3740   -6.7510   30.4040 C.3   712  MET712      0.0387
    191  CG        45.6480   -7.2300   28.9840 C.3   712  MET712      0.0595
    192  SD        44.5990   -6.5840   27.6700 S.3   712  MET712     -0.1393
    193  CE        45.0770   -4.8840   27.6690 C.3   712  MET712      0.0692
    194  N         43.9230   -8.4920   35.0340 N.3   720  PHE720     -0.1241
    195  CA        42.9940   -9.4480   34.4240 C.3   720  PHE720      0.1605
    196  C         43.6720  -10.2100   33.3370 C.2   720  PHE720      0.2264
    197  O         44.6690   -9.7280   32.8000 O.2   720  PHE720     -0.2867
    198  CB        41.6880   -8.8080   33.9200 C.3   720  PHE720      0.0534
    199  CG        41.7960   -7.8040   32.8020 C.ar  720  PHE720     -0.0203
    200  CD1       42.2000   -6.4920   33.0560 C.ar  720  PHE720     -0.0042
    201  CD2       41.3790   -8.1270   31.5150 C.ar  720  PHE720     -0.0042
    202  CE1       42.2710   -5.5540   32.0300 C.ar  720  PHE720     -0.0003
    203  CE2       41.4220   -7.1750   30.4920 C.ar  720  PHE720     -0.0003
    204  CZ        41.8890   -5.9010   30.7520 C.ar  720  PHE720     -0.0000
    205  N         43.4260  -12.2670   29.5280 N.3   722  ILE722     -0.1231
    206  CA        42.8070  -12.2480   28.2070 C.3   722  ILE722      0.1692
    207  C         43.1960  -13.5110   27.4590 C.2   722  ILE722      0.2592
    208  O         44.0340  -14.2880   27.9380 O.2   722  ILE722     -0.2718
    209  CB        43.1560  -10.9690   27.3860 C.3   722  ILE722      0.0266
    210  CG1       44.6740  -10.8710   27.0630 C.3   722  ILE722      0.0019
    211  CG2       42.6260   -9.6910   28.0390 C.3   722  ILE722      0.0020
    212  CD1       45.0450  -10.0880   25.7280 C.3   722  ILE722      0.0001
    213  N         42.5860  -13.6990   26.2720 N.am  723  ASP723     -0.1960
    214  CA        42.8440  -14.7690   25.3070 C.3   723  ASP723      0.1840
    215  C         42.9090  -16.1650   25.9700 C.2   723  ASP723      0.2622
    216  O         43.9900  -16.7240   26.1780 O.2   723  ASP723     -0.2715
    217  CB        44.1040  -14.4160   24.4800 C.3   723  ASP723      0.1450
    218  CG        44.4870  -15.3980   23.3980 C.2   723  ASP723      0.3671
    219  OD1       43.6340  -15.6920   22.5310 O.co2 723  ASP723     -0.2456
    220  OD2       45.6540  -15.8480   23.3960 O.co2 723  ASP723     -0.2456
    221  N         41.7360  -16.7010   26.3340 N.am  724  PHE724     -0.1974
    222  CA        41.6260  -18.0050   26.9710 C.3   724  PHE724      0.1639
    223  C         41.4150  -19.0670   25.9140 C.2   724  PHE724      0.2290
    224  O         40.3000  -19.5730   25.7370 O.2   724  PHE724     -0.2864
    225  CB        40.4720  -18.0230   27.9790 C.3   724  PHE724      0.0560
    226  CG        40.6000  -17.0430   29.1140 C.ar  724  PHE724     -0.0200
    227  CD1       41.4640  -17.2920   30.1730 C.ar  724  PHE724     -0.0042
    228  CD2       39.8210  -15.8980   29.1500 C.ar  724  PHE724     -0.0042
    229  CE1       41.5630  -16.4010   31.2340 C.ar  724  PHE724     -0.0003
    230  CE2       39.9320  -14.9990   30.2040 C.ar  724  PHE724     -0.0003
    231  CZ        40.7900  -15.2650   31.2480 C.ar  724  PHE724     -0.0000
@<TRIPOS>BOND
     1     1     2    1
     2     4     3    2
     3     3     2    1
     4     2     5    1
     5    25    27   ar
     6    25    23   ar
     7    27    26   ar
     8     5     6    1
     9    23    22   ar
    10    26    24   ar
    11     6     7    1
    12    24    22   ar
    13    22    21    1
    14    21    18    1
    15     7     8    1
    16     8     9    1
    17    42    41   ar
    18    13    12    2
    19    11    12    1
    20    11    10    1
    21    11    14    1
    22    17    18    1
    23    17    12   am
    24    18    19    1
    25    15    14    1
    26    39    38    2
    27    44    45    1
    28    44    50    1
    29    31    30    2
    30    46    45    1
    31    46    47    2
    32    75    76    2
    33    75    74    1
    34    45    48    1
    35    19    20    2
    36    19    28   am
    37    14    16    1
    38    41    40    1
    39    41    43   ar
    40    37    38    1
    41    37    40    1
    42    37    36    1
    43    50    49    1
    44    30    36   am
    45    30    29    1
    46    28    29    1
    47    74    73    1
    48    74    77    1
    49    51    52    1
    50    54    53    2
    51    29    32    1
    52    48    49    1
    53    53    52    1
    54    78    77    1
    55    78    79    1
    56    52    55    1
    57    32    33    1
    58    55    56    1
    59    67    68    2
    60    67    66    1
    61    79    80    1
    62    80    81    1
    63    33    34    1
    64    57    56   ar
    65    57    59   ar
    66    56    58   ar
    67    66    65    1
    68    66    69    1
    69    71    69    1
    70    35    34    1
    71    59    60   ar
    72    69    70    1
    73    58    61   ar
    74    58    60   ar
    75    61    63   ar
    76    70    72    1
    77    60    62   ar
    78   116   117    1
    79   123   121    1
    80   121   120    1
    81    63    64   ar
    82   119   118    2
    83    62    64   ar
    84   219   218   ar
    85   117   120    1
    86   117   118    1
    87   120   122    1
    88   139   137    1
    89   118   124   am
    90    88    87   ar
    91   220   218   ar
    92   218   217    1
    93   115   114    1
    94    87    89   ar
    95    87    86    1
    96   137   138    1
    97   137   134    1
    98   184   183    2
    99   112   111    1
   100   112   113    2
   101   124   125    1
   102   217   214    1
   103   185   183   am
   104   111   114    1
   105   111   110    1
   106    86    83    1
   107   133   134    1
   108   133   126   am
   109   125   126    1
   110   125   128    1
   111   183   182    1
   112   134   135    1
   113   126   127    2
   114    82    83    1
   115   214   215    1
   116   214   213    1
   117   212   210    1
   118   224   223    2
   119    83    84    1
   120   223   222    1
   121   215   216    2
   122   215   221   am
   123   128   129    1
   124   213   207   am
   125   221   222    1
   126   182   179    1
   127   135   136    2
   128   135   140   am
   129   169   168   ar
   130   177   175    1
   131    84    85    2
   132   176   175    1
   133   129   130    1
   134   179   178    1
   135   179   180    1
   136   222   225    1
   137   210   209    1
   138   170   168   ar
   139   140   141    1
   140   107   105   ar
   141   107   108   ar
   142   168   167    1
   143   209   211    1
   144   209   206    1
   145   175   172    1
   146   207   208    2
   147   207   206    1
   148   105   103   ar
   149   193   192    1
   150   192   191    1
   151   181   180    2
   152   109   108    1
   153   225   226    1
   154   160   159    2
   155    96    95    1
   156   143   142    2
   157   130   132   ar
   158   130   131   ar
   159   206   205    1
   160   108   106   ar
   161   171   172    1
   162   171   165   am
   163   142   141    1
   164   141   144    1
   165   172   173    1
   166   167   164    1
   167   164   165    1
   168   164   163    1
   169   103   102    1
   170   103   104   ar
   171   191   190    1
   172   100   101    2
   173   100    99    1
   174   147   148    1
   175   226   228   ar
   176   226   227   ar
   177   228   230   ar
   178   159   163   am
   179   159   158    1
   180   165   166    2
   181   162   161    1
   182   102    99    1
   183   156   154   ar
   184   156   155   ar
   185    95    94    1
   186    95    97    1
   187   106   104   ar
   188   154   152   ar
   189   144   146    1
   190   144   145    1
   191   173   174    2
   192   157   158    1
   193   157   149   am
   194    94    91    1
   195    99    98    1
   196   148   149    1
   197   148   151    1
   198   227   229   ar
   199   155   153   ar
   200   230   231   ar
   201   158   161    1
   202   190   187    1
   203   152   153   ar
   204   152   151    1
   205   203   204   ar
   206   203   201   ar
   207    90    91    1
   208   149   150    2
   209   204   202   ar
   210    91    92    1
   211   229   231   ar
   212   187   186    1
   213   187   188    1
   214   201   199   ar
   215    92    93    2
   216   202   200   ar
   217   188   189    2
   218   197   196    2
   219   199   200   ar
   220   199   198    1
   221   196   195    1
   222   198   195    1
   223   195   194    1
