@<TRIPOS>MOLECULE
tmp/5t2mA00.pdb
 210 200 0 0 0
SMALL
GASTEIGER

@<TRIPOS>ATOM
      1  N         19.6500    1.2400   -8.3770 N.3   510  LYS510     -0.1245
      2  CA        18.4960    0.9630   -9.2290 C.3   510  LYS510      0.1561
      3  C         17.9830   -0.4880   -9.0820 C.2   510  LYS510      0.2260
      4  O         16.7680   -0.6310   -8.9290 O.2   510  LYS510     -0.2867
      5  CB        18.7600    1.3420  -10.6970 C.3   510  LYS510      0.0271
      6  CG        17.5120    1.2720  -11.5790 C.3   510  LYS510      0.0035
      7  CD        17.6430    2.0450  -12.8800 C.3   510  LYS510      0.0206
      8  CE        16.3530    2.0450  -13.6670 C.3   510  LYS510      0.1093
      9  NZ        16.5540    2.5520  -15.0520 N.3   510  LYS510     -0.1314
     10  N          9.5920   -0.8100  -14.7310 N.3   552  THR552     -0.1203
     11  CA        10.8200   -0.1370  -14.3280 C.3   552  THR552      0.1994
     12  C         10.5790    1.3630  -14.3440 C.2   552  THR552      0.2618
     13  O          9.4320    1.7970  -14.4120 O.2   552  THR552     -0.2717
     14  CB        12.0120   -0.5970  -15.2060 C.3   552  THR552      0.1784
     15  OG1       13.2260   -0.0560  -14.6840 O.3   552  THR552     -0.2211
     16  CG2       11.8590   -0.2200  -16.6790 C.3   552  THR552      0.0376
     17  N         11.6490    2.1420  -14.2280 N.am  553  PHE553     -0.1961
     18  CA        11.6250    3.5870  -14.2810 C.3   553  PHE553      0.1771
     19  C         12.8010    4.0490  -15.1460 C.2   553  PHE553      0.2619
     20  O         13.6850    3.2450  -15.4610 O.2   553  PHE553     -0.2715
     21  CB        11.6470    4.1990  -12.8680 C.3   553  PHE553      0.0574
     22  CG        12.8930    3.9840  -12.0330 C.ar  553  PHE553     -0.0200
     23  CD1       13.0330    2.8500  -11.2400 C.ar  553  PHE553     -0.0042
     24  CD2       13.8800    4.9580  -11.9650 C.ar  553  PHE553     -0.0042
     25  CE1       14.1720    2.6630  -10.4480 C.ar  553  PHE553     -0.0003
     26  CE2       15.0150    4.7740  -11.1650 C.ar  553  PHE553     -0.0003
     27  CZ        15.1490    3.6300  -10.4080 C.ar  553  PHE553     -0.0000
     28  N         12.7930    5.3200  -15.5590 N.am  554  MET554     -0.1963
     29  CA        13.8400    5.9110  -16.3850 C.3   554  MET554      0.1736
     30  C         14.8550    6.6410  -15.5070 C.2   554  MET554      0.2616
     31  O         14.5430    7.0230  -14.3750 O.2   554  MET554     -0.2715
     32  CB        13.2400    6.8280  -17.4530 C.3   554  MET554      0.0427
     33  CG        12.1640    6.1630  -18.2830 C.3   554  MET554      0.0599
     34  SD        12.2380    6.6750  -20.0040 S.3   554  MET554     -0.1393
     35  CE        10.7530    5.9580  -20.6100 C.3   554  MET554      0.0692
     36  N         16.0790    6.8120  -16.0190 N.am  555  ASP555     -0.1971
     37  CA        17.1790    7.4030  -15.2640 C.3   555  ASP555      0.1709
     38  C         17.2510    8.9370  -15.3010 C.2   555  ASP555      0.2293
     39  O         18.0600    9.5150  -14.5640 O.2   555  ASP555     -0.2864
     40  CB        18.5060    6.7680  -15.6920 C.3   555  ASP555      0.1436
     41  CG        18.5760    5.3120  -15.2860 C.2   555  ASP555      0.3671
     42  OD1       18.7090    5.0420  -14.0720 O.co2 555  ASP555     -0.2456
     43  OD2       18.4090    4.4420  -16.1690 O.co2 555  ASP555     -0.2456
     44  N         10.8640    9.0000  -14.5390 N.3   560  PRO560     -0.2116
     45  CA         9.5600    8.5980  -15.0960 C.3   560  PRO560      0.1372
     46  C          9.3230    7.1010  -15.0090 C.2   560  PRO560      0.2244
     47  O         10.2460    6.3360  -15.2470 O.2   560  PRO560     -0.2868
     48  CB         9.6330    9.0600  -16.5560 C.3   560  PRO560      0.0268
     49  CG        10.7680   10.0090  -16.6130 C.3   560  PRO560      0.0207
     50  CD        11.7350    9.5460  -15.5930 C.3   560  PRO560      0.0892
     51  N          7.8180    3.3650  -16.0340 N.3   562  TRP562     -0.1241
     52  CA         7.6610    2.5390  -17.2300 C.3   562  TRP562      0.1605
     53  C          6.7380    1.3960  -16.8230 C.2   562  TRP562      0.2264
     54  O          7.1720    0.4530  -16.1620 O.2   562  TRP562     -0.2867
     55  CB         9.0390    2.0180  -17.6710 C.3   562  TRP562      0.0550
     56  CG         9.0370    1.0730  -18.8360 C.ar  562  TRP562      0.0003
     57  CD1        8.8840   -0.2840  -18.7990 C.ar  562  TRP562      0.0946
     58  CD2        9.2950    1.4100  -20.2020 C.ar  562  TRP562      0.0152
     59  NE1        9.0030   -0.8080  -20.0620 N.ar  562  TRP562     -0.2442
     60  CE2        9.2510    0.2110  -20.9450 C.ar  562  TRP562      0.0810
     61  CE3        9.5540    2.6170  -20.8760 C.ar  562  TRP562      0.0012
     62  CZ2        9.4470    0.1840  -22.3290 C.ar  562  TRP562      0.0191
     63  CZ3        9.7610    2.5880  -22.2440 C.ar  562  TRP562      0.0001
     64  CH2        9.7090    1.3850  -22.9550 C.ar  562  TRP562      0.0015
     65  N          4.1850    5.3740  -19.9870 N.3   579  ILE579     -0.1245
     66  CA         5.2140    6.1200  -19.2740 C.3   579  ILE579      0.1561
     67  C          4.4880    7.1600  -18.4360 C.2   579  ILE579      0.2260
     68  O          3.6960    7.9330  -18.9750 O.2   579  ILE579     -0.2867
     69  CB         6.2470    6.7720  -20.2430 C.3   579  ILE579      0.0252
     70  CG1        6.9980    5.7000  -21.0510 C.3   579  ILE579      0.0019
     71  CG2        7.2350    7.7000  -19.4920 C.3   579  ILE579      0.0019
     72  CD1        7.3290    6.0990  -22.4320 C.3   579  ILE579      0.0001
     73  N          5.1340   10.3750  -16.3290 N.3   581  LYS581     -0.1245
     74  CA         6.0900   11.4390  -16.0460 C.3   581  LYS581      0.1561
     75  C          5.4590   12.4240  -15.0540 C.2   581  LYS581      0.2260
     76  O          4.3040   12.8260  -15.2270 O.2   581  LYS581     -0.2867
     77  CB         6.5270   12.1280  -17.3620 C.3   581  LYS581      0.0271
     78  CG         7.3440   13.4170  -17.2060 C.3   581  LYS581      0.0035
     79  CD         8.8390   13.2030  -17.3960 C.3   581  LYS581      0.0206
     80  CE         9.3770   13.9280  -18.6080 C.3   581  LYS581      0.1093
     81  NZ         9.0790   13.2050  -19.8740 N.3   581  LYS581     -0.1314
     82  N          4.0730   18.6400  -19.8300 N.3   586  LEU586     -0.1245
     83  CA         3.9650   17.8610  -21.0650 C.3   586  LEU586      0.1561
     84  C          3.0580   18.5270  -22.1040 C.2   586  LEU586      0.2260
     85  O          2.6840   17.8970  -23.0950 O.2   586  LEU586     -0.2867
     86  CB         3.5170   16.4130  -20.7560 C.3   586  LEU586      0.0270
     87  CG         4.4870   15.5630  -19.9210 C.3   586  LEU586      0.0019
     88  CD1        3.8120   14.3300  -19.3910 C.3   586  LEU586      0.0001
     89  CD2        5.7220   15.1580  -20.7230 C.3   586  LEU586      0.0001
     90  N          5.0960   19.2430  -25.4930 N.3   589  ASP589     -0.1239
     91  CA         5.2950   17.9310  -26.1000 C.3   589  ASP589      0.1674
     92  C          4.0250   17.4650  -26.7890 C.2   589  ASP589      0.2266
     93  O          4.0990   17.0540  -27.9430 O.2   589  ASP589     -0.2867
     94  CB         5.7430   16.9130  -25.0530 C.3   589  ASP589      0.1410
     95  CG         7.2390   16.7840  -24.9470 C.2   589  ASP589      0.3668
     96  OD1        7.8130   15.9620  -25.6870 O.co2 589  ASP589     -0.2456
     97  OD2        7.8320   17.4800  -24.1030 O.co2 589  ASP589     -0.2456
     98  N          3.1630    8.8200  -31.4560 N.3   615  TYR615     -0.1241
     99  CA         2.9980    8.2480  -30.1160 C.3   615  TYR615      0.1605
    100  C          2.2720    9.2340  -29.1980 C.2   615  TYR615      0.2264
    101  O          2.5350   10.4370  -29.2430 O.2   615  TYR615     -0.2867
    102  CB         4.3470    7.7960  -29.5140 C.3   615  TYR615      0.0534
    103  CG         5.3290    8.9140  -29.2100 C.ar  615  TYR615     -0.0201
    104  CD1        5.2850    9.6000  -27.9970 C.ar  615  TYR615     -0.0009
    105  CD2        6.3320    9.2530  -30.1130 C.ar  615  TYR615     -0.0009
    106  CE1        6.1700   10.6390  -27.7210 C.ar  615  TYR615      0.0417
    107  CE2        7.2420   10.2710  -29.8360 C.ar  615  TYR615      0.0417
    108  CZ         7.1540   10.9640  -28.6390 C.ar  615  TYR615      0.1957
    109  OH         8.0310   11.9810  -28.3630 O.3   615  TYR615     -0.2866
    110  N          0.8200   11.3840  -26.0030 N.3   617  CYS617     -0.1235
    111  CA         1.3320   12.2620  -24.9510 C.3   617  CYS617      0.1677
    112  C          0.1450   13.0100  -24.3760 C.2   617  CYS617      0.2270
    113  O         -0.5870   13.6650  -25.1250 O.2   617  CYS617     -0.2867
    114  CB         2.3890   13.2180  -25.4900 C.3   617  CYS617      0.0956
    115  SG         3.1700   14.2360  -24.2180 S.3   617  CYS617     -0.0801
    116  N          2.7750    9.1260  -21.4140 N.3   627  ILE627     -0.1231
    117  CA         3.4050    8.9880  -22.7290 C.3   627  ILE627      0.1692
    118  C          3.2440    7.5240  -23.1560 C.2   627  ILE627      0.2592
    119  O          3.4440    6.6190  -22.3440 O.2   627  ILE627     -0.2718
    120  CB         4.8950    9.4520  -22.7650 C.3   627  ILE627      0.0266
    121  CG1        5.0920   10.8620  -22.1620 C.3   627  ILE627      0.0019
    122  CG2        5.4580    9.4050  -24.1920 C.3   627  ILE627      0.0020
    123  CD1        6.3470   11.0080  -21.3140 C.3   627  ILE627      0.0001
    124  N          2.8450    7.2990  -24.4130 N.am  628  GLU628     -0.1966
    125  CA         2.6540    5.9660  -24.9600 C.3   628  GLU628      0.1733
    126  C          4.0030    5.3520  -25.2780 C.2   628  GLU628      0.2616
    127  O          4.8260    5.9880  -25.9420 O.2   628  GLU628     -0.2715
    128  CB         1.7990    6.0360  -26.2310 C.3   628  GLU628      0.0429
    129  CG         1.3440    4.6870  -26.7540 C.3   628  GLU628      0.1163
    130  CD         0.8430    4.6820  -28.1830 C.2   628  GLU628      0.3649
    131  OE1        0.1360    5.6370  -28.5790 O.co2 628  GLU628     -0.2457
    132  OE2        1.1250    3.6940  -28.8970 O.co2 628  GLU628     -0.2457
    133  N          4.2220    4.1110  -24.8100 N.am  629  VAL629     -0.1963
    134  CA         5.4460    3.3570  -25.0740 C.3   629  VAL629      0.1727
    135  C          5.4610    2.9120  -26.5380 C.2   629  VAL629      0.2616
    136  O          4.5380    2.2320  -26.9940 O.2   629  VAL629     -0.2715
    137  CB         5.6320    2.1390  -24.1150 C.3   629  VAL629      0.0290
    138  CG1        6.6560    1.1450  -24.6540 C.3   629  VAL629      0.0023
    139  CG2        6.0220    2.5820  -22.7140 C.3   629  VAL629      0.0023
    140  N          6.5160    3.2990  -27.2600 N.am  630  VAL630     -0.1977
    141  CA         6.7580    2.8390  -28.6190 C.3   630  VAL630      0.1596
    142  C          7.5820    1.5740  -28.3750 C.2   630  VAL630      0.2287
    143  O          8.7400    1.6540  -27.9470 O.2   630  VAL630     -0.2864
    144  CB         7.5100    3.8650  -29.5140 C.3   630  VAL630      0.0276
    145  CG1        7.6950    3.3240  -30.9240 C.3   630  VAL630      0.0022
    146  CG2        6.7830    5.2020  -29.5540 C.3   630  VAL630      0.0022
    147  N         11.8030   -0.0750  -29.6440 N.3   633  SER633     -0.1202
    148  CA        12.4950    1.1460  -30.0520 C.3   633  SER633      0.2020
    149  C         13.5890    1.5110  -29.0550 C.2   633  SER633      0.2619
    150  O         13.5240    1.1140  -27.8880 O.2   633  SER633     -0.2717
    151  CB        11.5150    2.3030  -30.2530 C.3   633  SER633      0.2103
    152  OG        11.0650    2.8970  -29.0470 O.3   633  SER633     -0.2182
    153  N         14.6090    2.2420  -29.5210 N.am  634  ASP634     -0.1959
    154  CA        15.7220    2.6830  -28.6830 C.3   634  ASP634      0.1840
    155  C         16.3060    3.9780  -29.2240 C.2   634  ASP634      0.2622
    156  O         16.1410    4.2790  -30.4120 O.2   634  ASP634     -0.2715
    157  CB        16.8050    1.5890  -28.5590 C.3   634  ASP634      0.1450
    158  CG        17.5820    1.5980  -27.2530 C.2   634  ASP634      0.3671
    159  OD1       17.4150    2.5530  -26.4670 O.co2 634  ASP634     -0.2456
    160  OD2       18.3590    0.6510  -27.0210 O.co2 634  ASP634     -0.2456
    161  N         16.9790    4.7490  -28.3450 N.am  635  THR635     -0.1951
    162  CA        17.5980    6.0350  -28.6880 C.3   635  THR635      0.1897
    163  C         18.8350    5.8310  -29.5670 C.2   635  THR635      0.2313
    164  O         19.3780    4.7250  -29.6050 O.2   635  THR635     -0.2863
    165  CB        17.9390    6.8360  -27.4110 C.3   635  THR635      0.1794
    166  OG1       18.8770    6.0990  -26.6300 O.3   635  THR635     -0.2208
    167  CG2       16.7060    7.1840  -26.5690 C.3   635  THR635      0.0378
    168  N         21.8760    5.0500  -27.1510 N.3   638  ASN638     -0.1240
    169  CA        21.9060    3.6690  -26.6520 C.3   638  ASN638      0.1653
    170  C         22.2780    2.6580  -27.7480 C.2   638  ASN638      0.2266
    171  O         22.8600    1.6170  -27.4420 O.2   638  ASN638     -0.2867
    172  CB        20.6050    3.2860  -25.9320 C.3   638  ASN638      0.1155
    173  CG        20.4830    3.8220  -24.5220 C.2   638  ASN638      0.2627
    174  OD1       21.2300    3.4480  -23.6090 O.2   638  ASN638     -0.2716
    175  ND2       19.4920    4.6660  -24.2960 N.am  638  ASN638     -0.0877
    176  N         15.0710    8.7570  -31.5900 N.3   702  MET702     -0.1245
    177  CA        14.8880    7.3050  -31.4670 C.3   702  MET702      0.1570
    178  C         14.6850    6.5840  -32.8080 C.2   702  MET702      0.2261
    179  O         14.2770    7.2050  -33.7950 O.2   702  MET702     -0.2867
    180  CB        13.7320    6.9860  -30.5050 C.3   702  MET702      0.0387
    181  CG        14.0030    7.4060  -29.0720 C.3   702  MET702      0.0595
    182  SD        12.7750    6.8680  -27.8600 S.3   702  MET702     -0.1393
    183  CE        13.1600    5.1540  -27.7590 C.3   702  MET702      0.0692
    184  N         11.9280    8.5890  -35.1380 N.3   710  PHE710     -0.1241
    185  CA        11.0250    9.5150  -34.4640 C.3   710  PHE710      0.1605
    186  C         11.7880   10.3800  -33.4640 C.2   710  PHE710      0.2264
    187  O         12.9660   10.1090  -33.1990 O.2   710  PHE710     -0.2867
    188  CB         9.7960    8.8170  -33.8560 C.3   710  PHE710      0.0534
    189  CG        10.0370    7.8350  -32.7410 C.ar  710  PHE710     -0.0203
    190  CD1       10.3590    6.5130  -33.0160 C.ar  710  PHE710     -0.0042
    191  CD2        9.8410    8.2040  -31.4150 C.ar  710  PHE710     -0.0042
    192  CE1       10.5490    5.5930  -31.9810 C.ar  710  PHE710     -0.0003
    193  CE2       10.0220    7.2810  -30.3820 C.ar  710  PHE710     -0.0003
    194  CZ        10.3660    5.9800  -30.6730 C.ar  710  PHE710     -0.0000
    195  N         11.7430   12.5410  -29.5680 N.3   712  ILE712     -0.1231
    196  CA        11.1850   12.6060  -28.2140 C.3   712  ILE712      0.1692
    197  C         11.6410   13.8690  -27.4820 C.2   712  ILE712      0.2592
    198  O         12.5570   14.5500  -27.9500 O.2   712  ILE712     -0.2718
    199  CB        11.4340   11.3130  -27.3840 C.3   712  ILE712      0.0266
    200  CG1       12.9260   11.0960  -27.0700 C.3   712  ILE712      0.0019
    201  CG2       10.8090   10.0860  -28.0490 C.3   712  ILE712      0.0020
    202  CD1       13.2080   10.3990  -25.7410 C.3   712  ILE712      0.0001
    203  N         10.9930   14.1690  -26.3310 N.am  713  ASP713     -0.1974
    204  CA        11.2780   15.3010  -25.4420 C.3   713  ASP713      0.1709
    205  C         11.3320   16.6470  -26.1920 C.2   713  ASP713      0.2293
    206  O         12.4090   17.1940  -26.4330 O.2   713  ASP713     -0.2864
    207  CB        12.5540   15.0340  -24.6060 C.3   713  ASP713      0.1436
    208  CG        12.8490   16.0720  -23.5430 C.2   713  ASP713      0.3671
    209  OD1       12.0400   16.2010  -22.5980 O.co2 713  ASP713     -0.2456
    210  OD2       13.9010   16.7380  -23.6420 O.co2 713  ASP713     -0.2456
@<TRIPOS>BOND
     1   184   185    1
     2   185   188    1
     3   185   186    1
     4   188   189    1
     5   179   178    2
     6   186   187    2
     7   190   189   ar
     8   190   192   ar
     9   178   177    1
    10   189   191   ar
    11   192   194   ar
    12   176   177    1
    13   177   180    1
    14    98    99    1
    15   191   193   ar
    16   145   144    1
    17   194   193   ar
    18   180   181    1
    19   156   155    2
    20   151   148    1
    21   151   152    1
    22    99   102    1
    23    99   100    1
    24   105   107   ar
    25   105   103   ar
    26   148   147    1
    27   148   149    1
    28   107   108   ar
    29   164   163    2
    30   195   196    1
    31   163   162    1
    32   146   144    1
    33   153   149   am
    34   153   154    1
    35   102   103    1
    36   144   141    1
    37   101   100    2
    38   155   154    1
    39   155   161   am
    40   103   104   ar
    41   181   182    1
    42   149   150    2
    43   132   130   ar
    44   162   161    1
    45   162   165    1
    46   154   157    1
    47   108   109    1
    48   108   106   ar
    49   141   142    1
    50   141   140    1
    51   131   130   ar
    52   157   158    1
    53   142   143    2
    54   196   197    1
    55   196   199    1
    56   130   129    1
    57   201   199    1
    58   104   106   ar
    59   198   197    2
    60    93    92    2
    61   182   183    1
    62   170   171    2
    63   170   169    1
    64   197   203   am
    65   165   166    1
    66   165   167    1
    67   199   200    1
    68   140   135   am
    69   158   160   ar
    70   158   159   ar
    71   168   169    1
    72   200   202    1
    73   136   135    2
    74    92    91    1
    75   129   128    1
    76   169   172    1
    77   135   134    1
    78   206   205    2
    79   203   204    1
    80   128   125    1
    81   205   204    1
    82    91    90    1
    83    91    94    1
    84   110   111    1
    85   127   126    2
    86   172   173    1
    87    96    95   ar
    88   114   111    1
    89   114   115    1
    90   204   207    1
    91   126   125    1
    92   126   133   am
    93   113   112    2
    94   134   133    1
    95   134   137    1
    96    94    95    1
    97   125   124    1
    98   111   112    1
    99    95    97   ar
   100   138   137    1
   101   207   208    1
   102   173   175   am
   103   173   174    2
   104   124   118   am
   105   122   120    1
   106   137   139    1
   107   210   208   ar
   108   208   209   ar
   109   118   117    1
   110   118   119    2
   111    85    84    2
   112    64    62   ar
   113    64    63   ar
   114   120   117    1
   115   120   121    1
   116   117   116    1
   117    72    70    1
   118    62    60   ar
   119    63    61   ar
   120   121   123    1
   121    84    83    1
   122    83    86    1
   123    83    82    1
   124    70    69    1
   125    60    58   ar
   126    60    59   ar
   127    61    58   ar
   128    86    87    1
   129    89    87    1
   130    35    34    1
   131    69    71    1
   132    69    66    1
   133    58    56   ar
   134    59    57   ar
   135    34    33    1
   136    65    66    1
   137    87    88    1
   138    81    80    1
   139    66    67    1
   140    68    67    2
   141    56    57   ar
   142    56    55    1
   143    80    79    1
   144    33    32    1
   145    55    52    1
   146    32    29    1
   147    79    78    1
   148    77    78    1
   149    77    74    1
   150    52    53    1
   151    52    51    1
   152    53    54    2
   153    16    14    1
   154    49    48    1
   155    49    50    1
   156    48    45    1
   157    29    28    1
   158    29    30    1
   159    73    74    1
   160    43    41   ar
   161    74    75    1
   162    36    30   am
   163    36    37    1
   164    40    41    1
   165    40    37    1
   166    50    44    1
   167    28    19   am
   168    30    31    2
   169    20    19    2
   170    38    37    1
   171    38    39    2
   172    41    42   ar
   173    47    46    2
   174    76    75    2
   175    14    15    1
   176    14    11    1
   177    19    18    1
   178    45    46    1
   179    45    44    1
   180     9     8    1
   181    10    11    1
   182    13    12    2
   183    12    11    1
   184    12    17   am
   185    18    17    1
   186    18    21    1
   187     8     7    1
   188     7     6    1
   189    21    22    1
   190    22    24   ar
   191    22    23   ar
   192    24    26   ar
   193     6     5    1
   194    23    25   ar
   195    26    27   ar
   196     5     2    1
   197    25    27   ar
   198     2     3    1
   199     2     1    1
   200     3     4    2
