@<TRIPOS>MOLECULE
tmp/5t2pD00.pdb
 121 119 0 0 0
SMALL
GASTEIGER

@<TRIPOS>ATOM
      1  N          2.3470   60.9340  -66.6960 N.3    23  PHE23      -0.1241
      2  CA         1.1530   60.1810  -66.3180 C.3    23  PHE23       0.1605
      3  C          1.4150   59.2910  -65.1000 C.2    23  PHE23       0.2264
      4  O          0.4970   59.0290  -64.3100 O.2    23  PHE23      -0.2867
      5  CB         0.6890   59.3110  -67.4930 C.3    23  PHE23       0.0534
      6  CG        -0.2970   58.2270  -67.0910 C.ar   23  PHE23      -0.0203
      7  CD1       -1.6560   58.4990  -67.0010 C.ar   23  PHE23      -0.0042
      8  CD2        0.1500   56.9440  -66.7620 C.ar   23  PHE23      -0.0042
      9  CE1       -2.5560   57.5120  -66.5980 C.ar   23  PHE23      -0.0003
     10  CE2       -0.7460   55.9600  -66.3600 C.ar   23  PHE23      -0.0003
     11  CZ        -2.0880   56.2410  -66.2650 C.ar   23  PHE23      -0.0000
     12  N          2.6770   57.5420  -61.5970 N.3    25  PRO25      -0.2116
     13  CA         3.1670   57.8300  -60.2480 C.3    25  PRO25       0.1372
     14  C          4.6460   57.4850  -60.1710 C.2    25  PRO25       0.2244
     15  O          5.2110   56.8220  -61.0550 O.2    25  PRO25      -0.2868
     16  CB         2.3320   56.9090  -59.3430 C.3    25  PRO25       0.0268
     17  CG         1.1510   56.5080  -60.1460 C.3    25  PRO25       0.0207
     18  CD         1.6960   56.4430  -61.5970 C.3    25  PRO25       0.0892
     19  N          5.4350   55.4790  -55.0270 N.3    29  ASP29      -0.1225
     20  CA         3.9810   55.4690  -54.8860 C.3    29  ASP29       0.1805
     21  C          3.3610   54.2120  -55.4790 C.2    29  ASP29       0.2597
     22  O          2.3530   53.7110  -54.9610 O.2    29  ASP29      -0.2718
     23  CB         3.3720   56.7290  -55.5150 C.3    29  ASP29       0.1424
     24  CG         3.5750   57.9660  -54.6310 C.2    29  ASP29       0.3668
     25  OD1        3.9060   57.7920  -53.4390 O.co2  29  ASP29      -0.2456
     26  OD2        3.3700   59.0960  -55.1080 O.co2  29  ASP29      -0.2456
     27  N          3.9460   53.6840  -56.5670 N.am   30  LEU30      -0.1979
     28  CA         3.4640   52.4260  -57.1200 C.3    30  LEU30       0.1596
     29  C          3.7150   51.2720  -56.1590 C.2    30  LEU30       0.2287
     30  O          2.8460   50.4070  -55.9840 O.2    30  LEU30      -0.2864
     31  CB         4.1520   52.1570  -58.4730 C.3    30  LEU30       0.0297
     32  CG         3.7310   53.1280  -59.5730 C.3    30  LEU30       0.0022
     33  CD1        4.7530   53.1990  -60.7310 C.3    30  LEU30       0.0001
     34  CD2        2.3700   52.7180  -60.1210 C.3    30  LEU30       0.0001
     35  N          1.3200   51.3390  -53.3360 N.3    33  THR33      -0.1218
     36  CA         0.0160   50.8760  -53.7600 C.3    33  THR33       0.1862
     37  C         -0.0040   49.3710  -53.9460 C.2    33  THR33       0.2287
     38  O         -0.9960   48.7230  -53.6020 O.2    33  THR33      -0.2866
     39  CB        -0.3950   51.6000  -55.0480 C.3    33  THR33       0.1770
     40  OG1       -0.5020   52.9990  -54.7720 O.3    33  THR33      -0.2211
     41  CG2       -1.7610   51.1170  -55.5520 C.3    33  THR33       0.0375
     42  N          3.0160   50.0640  -63.0400 N.3   102  TRP102     -0.1241
     43  CA         1.6660   50.5700  -63.2890 C.3   102  TRP102      0.1605
     44  C          0.8640   49.5610  -64.0860 C.2   102  TRP102      0.2264
     45  O         -0.3090   49.3180  -63.7960 O.2   102  TRP102     -0.2867
     46  CB         1.7040   51.9100  -64.0170 C.3   102  TRP102      0.0550
     47  CG         0.3040   52.3880  -64.3540 C.ar  102  TRP102      0.0003
     48  CD1       -0.5420   53.1070  -63.5460 C.ar  102  TRP102      0.0946
     49  CD2       -0.4180   52.1160  -65.5560 C.ar  102  TRP102      0.0152
     50  NE1       -1.7400   53.3200  -64.1910 N.ar  102  TRP102     -0.2442
     51  CE2       -1.6820   52.7340  -65.4340 C.ar  102  TRP102      0.0810
     52  CE3       -0.1000   51.4390  -66.7430 C.ar  102  TRP102      0.0012
     53  CZ2       -2.6420   52.6850  -66.4510 C.ar  102  TRP102      0.0191
     54  CZ3       -1.0580   51.3860  -67.7460 C.ar  102  TRP102      0.0001
     55  CH2       -2.3080   52.0040  -67.5950 C.ar  102  TRP102      0.0015
     56  N         -0.0370   46.4580  -61.7650 N.3   105  ILE105     -0.1231
     57  CA        -0.9740   46.8290  -60.6920 C.3   105  ILE105      0.1692
     58  C         -2.3570   47.1170  -61.2610 C.2   105  ILE105      0.2592
     59  O         -3.3810   46.6660  -60.7190 O.2   105  ILE105     -0.2718
     60  CB        -0.4290   48.0310  -59.9040 C.3   105  ILE105      0.0266
     61  CG1        0.8120   47.6170  -59.1200 C.3   105  ILE105      0.0019
     62  CG2       -1.5040   48.6270  -58.9340 C.3   105  ILE105      0.0020
     63  CD1        1.6520   48.8040  -58.6670 C.3   105  ILE105      0.0001
     64  N         -2.4170   47.8670  -62.3630 N.am  106  SER106     -0.1952
     65  CA        -3.7200   48.2020  -62.9280 C.3   106  SER106      0.1924
     66  C         -4.3860   46.9730  -63.5290 C.2   106  SER106      0.2314
     67  O         -5.5920   46.7740  -63.3590 O.2   106  SER106     -0.2863
     68  CB        -3.5800   49.3050  -63.9710 C.3   106  SER106      0.2116
     69  OG        -2.9330   50.4290  -63.4160 O.3   106  SER106     -0.2180
     70  N         -8.1990   45.8030  -62.8940 N.3   110  PHE110     -0.1241
     71  CA        -9.2020   46.0750  -63.9300 C.3   110  PHE110      0.1605
     72  C         -9.1900   45.1030  -65.0950 C.2   110  PHE110      0.2264
     73  O        -10.1390   45.1060  -65.8880 O.2   110  PHE110     -0.2867
     74  CB        -9.0160   47.4980  -64.4860 C.3   110  PHE110      0.0534
     75  CG        -9.1750   48.5760  -63.4560 C.ar  110  PHE110     -0.0203
     76  CD1      -10.4420   48.9090  -62.9950 C.ar  110  PHE110     -0.0042
     77  CD2       -8.0740   49.2320  -62.9200 C.ar  110  PHE110     -0.0042
     78  CE1      -10.6140   49.8980  -62.0370 C.ar  110  PHE110     -0.0003
     79  CE2       -8.2400   50.2210  -61.9520 C.ar  110  PHE110     -0.0003
     80  CZ        -9.5070   50.5520  -61.5090 C.ar  110  PHE110     -0.0000
     81  N         -8.0800   52.0070  -71.6970 N.3   118  TYR118     -0.1241
     82  CA        -7.8460   53.2590  -70.9910 C.3   118  TYR118      0.1605
     83  C         -6.5380   53.9050  -71.4310 C.2   118  TYR118      0.2264
     84  O         -6.4640   55.1260  -71.6150 O.2   118  TYR118     -0.2867
     85  CB        -7.8240   53.0140  -69.4780 C.3   118  TYR118      0.0534
     86  CG        -7.3270   54.2180  -68.7260 C.ar  118  TYR118     -0.0201
     87  CD1       -8.1740   55.2920  -68.4600 C.ar  118  TYR118     -0.0009
     88  CD2       -6.0030   54.3070  -68.3150 C.ar  118  TYR118     -0.0009
     89  CE1       -7.7110   56.4150  -67.7770 C.ar  118  TYR118      0.0417
     90  CE2       -5.5400   55.4030  -67.6390 C.ar  118  TYR118      0.0417
     91  CZ        -6.3940   56.4570  -67.3690 C.ar  118  TYR118      0.1957
     92  OH        -5.9130   57.5620  -66.7090 O.3   118  TYR118     -0.2866
     93  N        -10.3160   60.8620  -69.4090 N.3   138  PRO138     -0.2102
     94  CA       -11.1150   59.6350  -69.4160 C.3   138  PRO138      0.1504
     95  C        -11.0110   58.9380  -68.0670 C.2   138  PRO138      0.2576
     96  O        -10.0870   59.1680  -67.2810 O.2   138  PRO138     -0.2718
     97  CB       -10.4890   58.8010  -70.5500 C.3   138  PRO138      0.0282
     98  CG        -9.1530   59.4280  -70.8100 C.3   138  PRO138      0.0208
     99  CD        -9.3530   60.8830  -70.5300 C.3   138  PRO138      0.0893
    100  N        -11.9980   58.1200  -67.7760 N.am  139  ILE139     -0.1966
    101  CA       -12.0320   57.4570  -66.4820 C.3   139  ILE139      0.1727
    102  C        -11.5200   56.0350  -66.6430 C.2   139  ILE139      0.2616
    103  O        -11.6570   55.4230  -67.7100 O.2   139  ILE139     -0.2715
    104  CB       -13.4430   57.4850  -65.8620 C.3   139  ILE139      0.0290
    105  CG1      -13.3620   56.9660  -64.4310 C.3   139  ILE139      0.0022
    106  CG2      -14.4230   56.6870  -66.7130 C.3   139  ILE139      0.0023
    107  CD1      -12.1850   57.5830  -63.6650 C.3   139  ILE139      0.0001
    108  N        -10.8550   55.5430  -65.6050 N.am  140  LEU140     -0.1963
    109  CA       -10.3710   54.1710  -65.5440 C.3   140  LEU140      0.1728
    110  C        -11.3250   53.3470  -64.6870 C.2   140  LEU140      0.2616
    111  O        -11.3670   53.5100  -63.4630 O.2   140  LEU140     -0.2715
    112  CB        -8.9550   54.1350  -64.9780 C.3   140  LEU140      0.0311
    113  CG        -8.3720   52.7560  -64.6980 C.3   140  LEU140      0.0022
    114  CD1       -8.3150   51.9150  -65.9630 C.3   140  LEU140      0.0001
    115  CD2       -6.9800   52.9070  -64.1130 C.3   140  LEU140      0.0001
    116  N        -12.1230   52.5050  -65.3430 N.am  141  SER141     -0.1950
    117  CA       -13.0550   51.5990  -64.6880 C.3   141  SER141      0.1924
    118  C        -13.4500   50.5430  -65.7070 C.2   141  SER141      0.2314
    119  O        -13.4270   50.8010  -66.9130 O.2   141  SER141     -0.2863
    120  CB       -14.2880   52.3340  -64.1510 C.3   141  SER141      0.2116
    121  OG       -14.9650   52.9850  -65.2030 O.3   141  SER141     -0.2180
@<TRIPOS>BOND
     1    81    82    1
     2    84    83    2
     3    83    82    1
     4    82    85    1
     5    98    97    1
     6    98    99    1
     7    97    94    1
     8    99    93    1
     9    85    86    1
    10    94    93    1
    11    94    95    1
    12    86    87   ar
    13    86    88   ar
    14    87    89   ar
    15    88    90   ar
    16    95   100   am
    17    95    96    2
    18    89    91   ar
    19   100   101    1
    20    54    55   ar
    21    54    52   ar
    22   103   102    2
    23    90    91   ar
    24    55    53   ar
    25     5     6    1
    26     5     2    1
    27    91    92    1
    28     6     7   ar
    29     6     8   ar
    30     7     9   ar
    31   119   118    2
    32     8    10   ar
    33    52    49   ar
    34   106   104    1
    35     1     2    1
    36   102   101    1
    37   102   108   am
    38     9    11   ar
    39   101   104    1
    40    53    51   ar
    41    10    11   ar
    42     2     3    1
    43   114   113    1
    44    73    72    2
    45   104   105    1
    46   118   117    1
    47   108   109    1
    48    49    51   ar
    49    49    47   ar
    50   109   112    1
    51   109   110    1
    52    51    50   ar
    53   116   117    1
    54   116   110   am
    55   121   120    1
    56     3     4    2
    57    72    71    1
    58   112   113    1
    59   113   115    1
    60   117   120    1
    61   110   111    2
    62    74    71    1
    63    74    75    1
    64   105   107    1
    65    47    46    1
    66    47    48   ar
    67    50    48   ar
    68    44    45    2
    69    44    43    1
    70    46    43    1
    71    68    69    1
    72    68    65    1
    73    71    70    1
    74    66    67    2
    75    66    65    1
    76    75    76   ar
    77    75    77   ar
    78    43    42    1
    79    76    78   ar
    80    65    64    1
    81    77    79   ar
    82    64    58   am
    83    78    80   ar
    84    79    80   ar
    85    56    57    1
    86    12    18    1
    87    12    13    1
    88    18    17    1
    89    58    59    2
    90    58    57    1
    91    15    14    2
    92    33    32    1
    93    57    60    1
    94    13    14    1
    95    13    16    1
    96    17    16    1
    97    34    32    1
    98    60    61    1
    99    60    62    1
   100    32    31    1
   101    61    63    1
   102    31    28    1
   103    28    27    1
   104    28    29    1
   105    27    21   am
   106    29    30    2
   107    41    39    1
   108    23    20    1
   109    23    24    1
   110    21    22    2
   111    21    20    1
   112    26    24   ar
   113    39    40    1
   114    39    36    1
   115    19    20    1
   116    24    25   ar
   117    37    36    1
   118    37    38    2
   119    36    35    1
