@<TRIPOS>MOLECULE
tmp/5t2tA00.pdb
 138 128 0 0 0
SMALL
GASTEIGER

@<TRIPOS>ATOM
      1  N        -97.5240  -40.9130    4.0430 N.3    44  LYS44      -0.1245
      2  CA       -96.1930  -41.5250    3.9890 C.3    44  LYS44       0.1561
      3  C        -96.0570  -42.4260    2.7650 C.2    44  LYS44       0.2260
      4  O        -94.9850  -42.5120    2.1680 O.2    44  LYS44      -0.2867
      5  CB       -95.8900  -42.3140    5.2670 C.3    44  LYS44       0.0271
      6  CG       -95.5950  -41.4340    6.4840 C.3    44  LYS44       0.0035
      7  CD       -95.5180  -42.2540    7.7790 C.3    44  LYS44       0.0206
      8  CE       -94.6610  -43.4900    7.6070 C.3    44  LYS44       0.1093
      9  NZ       -94.6700  -44.3600    8.8320 N.3    44  LYS44      -0.1314
     10  N        -95.4590  -40.2850   -0.0890 N.3    47  SER47      -0.1202
     11  CA       -94.1220  -39.7120    0.0380 C.3    47  SER47       0.2020
     12  C        -93.0670  -40.7060   -0.3860 C.2    47  SER47       0.2618
     13  O        -92.0870  -40.3360   -1.0380 O.2    47  SER47      -0.2717
     14  CB       -93.8420  -39.2550    1.4690 C.3    47  SER47       0.2103
     15  OG       -94.5090  -38.0490    1.7450 O.3    47  SER47      -0.2182
     16  N        -93.2560  -41.9760   -0.0160 N.am   48  ARG48      -0.1979
     17  CA       -92.3200  -43.0290   -0.4380 C.3    48  ARG48       0.1597
     18  C        -92.2760  -43.1820   -1.9600 C.2    48  ARG48       0.2287
     19  O        -91.2220  -43.3990   -2.5300 O.2    48  ARG48      -0.2864
     20  CB       -92.6860  -44.3810    0.1950 C.3    48  ARG48       0.0334
     21  CG       -92.4780  -44.4660    1.7090 C.3    48  ARG48       0.0492
     22  CD       -91.1050  -43.9570    2.1730 C.3    48  ARG48       0.2205
     23  NE       -90.8060  -44.4090    3.5400 N.pl3  48  ARG48      -0.0865
     24  CZ       -89.7820  -43.9880    4.2730 C.cat  48  ARG48       0.5346
     25  NH1      -88.9540  -43.0710    3.7840 N.pl3  48  ARG48       0.1354
     26  NH2      -89.5850  -44.4820    5.5000 N.pl3  48  ARG48       0.1354
     27  N        -90.1780  -40.2580   -3.1360 N.3    51  GLU51      -0.1245
     28  CA       -88.7810  -40.4330   -2.7340 C.3    51  GLU51       0.1567
     29  C        -88.0640  -41.4570   -3.6140 C.2    51  GLU51       0.2260
     30  O        -86.9180  -41.2590   -4.0100 O.2    51  GLU51      -0.2867
     31  CB       -88.6760  -40.8680   -1.2610 C.3    51  GLU51       0.0388
     32  CG       -89.1330  -39.8390   -0.2620 C.3    51  GLU51       0.1160
     33  CD       -89.3040  -40.4370    1.1270 C.2    51  GLU51       0.3649
     34  OE1      -88.9210  -41.6140    1.3080 O.co2  51  GLU51      -0.2457
     35  OE2      -89.8140  -39.7320    2.0230 O.co2  51  GLU51      -0.2457
     36  N        -84.7740  -46.3300    6.7660 N.3    66  ASP66      -0.1239
     37  CA       -84.5420  -45.1810    7.6210 C.3    66  ASP66       0.1674
     38  C        -83.1770  -45.2280    8.3180 C.2    66  ASP66       0.2266
     39  O        -83.0620  -44.8540    9.4760 O.2    66  ASP66      -0.2867
     40  CB       -85.6520  -45.0660    8.6640 C.3    66  ASP66       0.1410
     41  CG       -87.0240  -44.8450    8.0390 C.2    66  ASP66       0.3668
     42  OD1      -87.1480  -44.0200    7.1080 O.co2  66  ASP66      -0.2456
     43  OD2      -87.9830  -45.4980    8.4900 O.co2  66  ASP66      -0.2456
     44  N        -78.0980  -36.6040   14.3780 N.3    85  LEU85      -0.1231
     45  CA       -78.9550  -37.6490   13.8430 C.3    85  LEU85       0.1693
     46  C        -79.7190  -37.1440   12.6220 C.2    85  LEU85       0.2592
     47  O        -80.6140  -36.3060   12.7390 O.2    85  LEU85      -0.2718
     48  CB       -79.9200  -38.1470   14.9200 C.3    85  LEU85       0.0284
     49  CG       -80.8740  -39.2800   14.5480 C.3    85  LEU85       0.0019
     50  CD1      -80.1750  -40.3340   13.7000 C.3    85  LEU85       0.0001
     51  CD2      -81.4240  -39.9000   15.8230 C.3    85  LEU85       0.0001
     52  N        -79.3460  -37.6510   11.4510 N.am   86  ILE86      -0.1966
     53  CA       -79.9940  -37.2630   10.2010 C.3    86  ILE86       0.1727
     54  C        -80.3660  -38.5020    9.4000 C.2    86  ILE86       0.2616
     55  O        -79.5400  -39.3890    9.2150 O.2    86  ILE86      -0.2715
     56  CB       -79.0830  -36.3510    9.3480 C.3    86  ILE86       0.0290
     57  CG1      -78.9240  -34.9910   10.0250 C.3    86  ILE86       0.0022
     58  CG2      -79.6440  -36.1820    7.9220 C.3    86  ILE86       0.0023
     59  CD1      -77.8850  -34.1280    9.3770 C.3    86  ILE86       0.0001
     60  N        -81.6150  -38.5640    8.9390 N.am   87  ILE87      -0.1977
     61  CA       -82.0680  -39.6910    8.1360 C.3    87  ILE87       0.1596
     62  C        -82.5240  -39.1850    6.7550 C.2    87  ILE87       0.2287
     63  O        -83.6020  -38.6230    6.6000 O.2    87  ILE87      -0.2864
     64  CB       -83.1770  -40.4850    8.9000 C.3    87  ILE87       0.0276
     65  CG1      -84.3880  -40.8130    8.0250 C.3    87  ILE87       0.0022
     66  CG2      -83.5940  -39.7390   10.1630 C.3    87  ILE87       0.0022
     67  CD1      -84.1900  -42.0010    7.1250 C.3    87  ILE87       0.0001
     68  N        -83.5430  -39.0470    2.5830 N.3    89  ASP89      -0.1239
     69  CA       -84.5370  -39.7570    1.7810 C.3    89  ASP89       0.1674
     70  C        -83.7200  -40.7400    0.8880 C.2    89  ASP89       0.2266
     71  O        -84.2110  -41.8070    0.4740 O.2    89  ASP89      -0.2867
     72  CB       -85.4670  -38.8010    0.9120 C.3    89  ASP89       0.1410
     73  CG       -86.3360  -37.6840    1.7300 C.2    89  ASP89       0.3668
     74  OD1      -87.0560  -37.8530    2.7530 O.co2  89  ASP89      -0.2456
     75  OD2      -86.4030  -36.5370    1.2680 O.co2  89  ASP89      -0.2456
     76  N        -82.3840  -35.3680   -0.1880 N.3   102  GLU102     -0.1231
     77  CA       -83.6180  -35.0020    0.5030 C.3   102  GLU102      0.1699
     78  C        -84.6640  -34.6500   -0.5510 C.2   102  GLU102      0.2592
     79  O        -84.3870  -33.8580   -1.4590 O.2   102  GLU102     -0.2718
     80  CB       -83.4040  -33.8140    1.4550 C.3   102  GLU102      0.0402
     81  CG       -82.5190  -34.1010    2.6570 C.3   102  GLU102      0.1161
     82  CD       -83.1150  -35.1260    3.6190 C.2   102  GLU102      0.3649
     83  OE1      -82.4050  -35.5060    4.5670 O.co2 102  GLU102     -0.2457
     84  OE2      -84.2850  -35.5420    3.4360 O.co2 102  GLU102     -0.2457
     85  N        -85.8460  -35.2590   -0.4190 N.am  103  CYS103     -0.1956
     86  CA       -86.9760  -35.0660   -1.3250 C.3   103  CYS103      0.1843
     87  C        -88.1380  -34.4360   -0.5700 C.2   103  CYS103      0.2625
     88  O        -88.3240  -34.7030    0.6230 O.2   103  CYS103     -0.2714
     89  CB       -87.4340  -36.4000   -1.9120 C.3   103  CYS103      0.0997
     90  SG       -86.1190  -37.4370   -2.4870 S.3   103  CYS103     -0.0797
     91  N        -88.9320  -33.6080   -1.2520 N.am  104  PHE104     -0.1974
     92  CA       -90.1220  -33.0720   -0.5780 C.3   104  PHE104      0.1639
     93  C        -91.2230  -32.6870   -1.5490 C.2   104  PHE104      0.2290
     94  O        -91.0000  -32.5950   -2.7600 O.2   104  PHE104     -0.2864
     95  CB       -89.7580  -31.8770    0.3120 C.3   104  PHE104      0.0560
     96  CG       -89.3350  -30.6430   -0.4350 C.ar  104  PHE104     -0.0200
     97  CD1      -90.2770  -29.7460   -0.9130 C.ar  104  PHE104     -0.0042
     98  CD2      -87.9840  -30.3520   -0.6010 C.ar  104  PHE104     -0.0042
     99  CE1      -89.8840  -28.5960   -1.5750 C.ar  104  PHE104     -0.0003
    100  CE2      -87.5770  -29.2090   -1.2630 C.ar  104  PHE104     -0.0003
    101  CZ       -88.5300  -28.3250   -1.7500 C.ar  104  PHE104     -0.0000
    102  N        -94.2830  -29.7130   -1.8800 N.3   106  ARG106     -0.1245
    103  CA       -94.8810  -28.4740   -1.4060 C.3   106  ARG106      0.1563
    104  C        -95.7510  -27.9200   -2.5260 C.2   106  ARG106      0.2260
    105  O        -95.3840  -28.0130   -3.6910 O.2   106  ARG106     -0.2867
    106  CB       -93.8120  -27.4560   -1.0120 C.3   106  ARG106      0.0307
    107  CG       -93.1160  -27.7350    0.3110 C.3   106  ARG106      0.0489
    108  CD       -94.1130  -27.7370    1.4730 C.3   106  ARG106      0.2205
    109  NE       -93.4140  -27.8440    2.7530 N.pl3 106  ARG106     -0.0865
    110  CZ       -93.0890  -28.9870    3.3490 C.cat 106  ARG106      0.5346
    111  NH1      -92.4440  -28.9620    4.5120 N.pl3 106  ARG106      0.1354
    112  NH2      -93.4070  -30.1520    2.7950 N.pl3 106  ARG106      0.1354
    113  N        -89.1540  -24.7170    2.4210 N.3   115  LYS115     -0.1245
    114  CA       -88.7370  -26.1100    2.6170 C.3   115  LYS115      0.1561
    115  C        -87.4310  -26.3860    1.8830 C.2   115  LYS115      0.2260
    116  O        -86.5770  -27.1150    2.3900 O.2   115  LYS115     -0.2867
    117  CB       -89.8510  -27.0660    2.1420 C.3   115  LYS115      0.0271
    118  CG       -89.5960  -28.5600    2.2900 C.3   115  LYS115      0.0035
    119  CD       -89.0200  -28.9460    3.6390 C.3   115  LYS115      0.0206
    120  CE       -89.2160  -30.4450    3.8860 C.3   115  LYS115      0.1093
    121  NZ       -88.3070  -30.8730    4.9560 N.3   115  LYS115     -0.1314
    122  N        -84.2460  -28.0480    3.9570 N.3   119  ASP119     -0.1239
    123  CA       -83.5380  -29.3000    3.7030 C.3   119  ASP119      0.1674
    124  C        -82.1010  -29.0410    3.2760 C.2   119  ASP119      0.2266
    125  O        -81.2070  -29.8270    3.5920 O.2   119  ASP119     -0.2867
    126  CB       -84.2570  -30.1550    2.6350 C.3   119  ASP119      0.1410
    127  CG       -85.4560  -30.9110    3.2090 C.2   119  ASP119      0.3668
    128  OD1      -85.7090  -30.7720    4.4250 O.co2 119  ASP119     -0.2456
    129  OD2      -86.1370  -31.6420    2.4560 O.co2 119  ASP119     -0.2456
    130  N        -80.2550  -28.4470    6.3890 N.3   122  LYS122     -0.1245
    131  CA       -80.2060  -29.7040    7.1140 C.3   122  LYS122      0.1561
    132  C        -78.9840  -30.5140    6.7150 C.2   122  LYS122      0.2260
    133  O        -78.2410  -30.9850    7.5730 O.2   122  LYS122     -0.2867
    134  CB       -81.4790  -30.5110    6.8640 C.3   122  LYS122      0.0271
    135  CG       -81.5420  -31.8420    7.6060 C.3   122  LYS122      0.0035
    136  CD       -82.6960  -32.6850    7.0540 C.3   122  LYS122      0.0206
    137  CE       -82.8700  -34.0030    7.7890 C.3   122  LYS122      0.1093
    138  NZ       -83.7170  -34.9370    6.9900 N.3   122  LYS122     -0.1314
@<TRIPOS>BOND
     1    30    29    2
     2   105   104    2
     3    29    28    1
     4    27    28    1
     5    94    93    2
     6    28    31    1
     7    19    18    2
     8   104   103    1
     9    90    89    1
    10    18    17    1
    11    89    86    1
    12   102   103    1
    13   101    99   ar
    14   101   100   ar
    15    99    97   ar
    16    93    92    1
    17    79    78    2
    18   103   106    1
    19    86    87    1
    20    86    85    1
    21   100    98   ar
    22    31    32    1
    23    91    92    1
    24    91    87   am
    25    13    12    2
    26   106   107    1
    27    97    96   ar
    28    98    96   ar
    29    92    95    1
    30    87    88    2
    31    78    85   am
    32    78    77    1
    33    17    16    1
    34    17    20    1
    35    96    95    1
    36    12    16   am
    37    12    11    1
    38    32    33    1
    39    76    77    1
    40    10    11    1
    41    11    14    1
    42    20    21    1
    43   107   108    1
    44    71    70    2
    45    77    80    1
    46    70    69    1
    47    72    73    1
    48    72    69    1
    49    33    34   ar
    50    33    35   ar
    51    75    73   ar
    52    80    81    1
    53    14    15    1
    54   108   109    1
    55    21    22    1
    56    73    74   ar
    57    69    68    1
    58   115   116    2
    59   115   114    1
    60   117   118    1
    61   117   114    1
    62     4     3    2
    63    22    23    1
    64   118   119    1
    65   113   114    1
    66   129   127   ar
    67   126   127    1
    68   126   123    1
    69    81    82    1
    70   109   110    2
    71     3     2    1
    72   112   110    1
    73   127   128   ar
    74   124   125    2
    75   124   123    1
    76   110   111    1
    77    84    82   ar
    78    23    24    2
    79    82    83   ar
    80   119   120    1
    81   123   122    1
    82    25    24    1
    83   120   121    1
    84     2     1    1
    85     2     5    1
    86    24    26    1
    87     5     6    1
    88   130   131    1
    89     6     7    1
    90    63    62    2
    91   132   131    1
    92   132   133    2
    93    62    61    1
    94    36    37    1
    95   134   131    1
    96   134   135    1
    97   138   137    1
    98   136   135    1
    99   136   137    1
   100    42    41   ar
   101    67    65    1
   102     8     7    1
   103     8     9    1
   104    37    38    1
   105    37    40    1
   106    58    56    1
   107    65    64    1
   108    41    43   ar
   109    41    40    1
   110    61    64    1
   111    61    60    1
   112    38    39    2
   113    64    66    1
   114    60    54   am
   115    55    54    2
   116    56    57    1
   117    56    53    1
   118    59    57    1
   119    54    53    1
   120    53    52    1
   121    52    46   am
   122    46    47    2
   123    46    45    1
   124    50    49    1
   125    45    44    1
   126    45    48    1
   127    49    48    1
   128    49    51    1
