@<TRIPOS>MOLECULE
tmp/5t2yB00.pdb
 89 83 0 0 0
SMALL
GASTEIGER

@<TRIPOS>ATOM
      1  N         45.8320  138.4950   21.9920 N.3   131  HIS131     -0.1241
      2  CA        47.1070  139.0000   22.4950 C.3   131  HIS131      0.1621
      3  C         47.2430  140.4530   22.0680 C.2   131  HIS131      0.2264
      4  O         47.3940  140.7450   20.8770 O.2   131  HIS131     -0.2867
      5  CB        48.2880  138.1660   21.9940 C.3   131  HIS131      0.0745
      6  CG        49.6270  138.6680   22.4500 C.ar  131  HIS131      0.0817
      7  ND1       50.8120  138.1090   22.0270 N.ar  131  HIS131     -0.2268
      8  CD2       49.9720  139.6840   23.2820 C.ar  131  HIS131      0.1154
      9  CE1       51.8280  138.7510   22.5770 C.ar  131  HIS131      0.1986
     10  NE2       51.3450  139.7040   23.3520 N.ar  131  HIS131     -0.2212
     11  N         49.7620  143.1290   22.1250 N.3   133  SER133     -0.1217
     12  CA        51.2050  143.0570   22.3130 C.3   133  SER133      0.1889
     13  C         51.7190  144.3420   22.9650 C.2   133  SER133      0.2288
     14  O         50.9520  145.2380   23.3170 O.2   133  SER133     -0.2866
     15  CB        51.9050  142.7780   20.9830 C.3   133  SER133      0.2089
     16  OG        53.2100  142.2700   21.1990 O.3   133  SER133     -0.2183
     17  N         45.5440  139.0150   17.3090 N.3   149  PHE149     -0.1241
     18  CA        46.8980  139.4110   17.6640 C.3   149  PHE149      0.1605
     19  C         47.0660  140.8680   17.2710 C.2   149  PHE149      0.2264
     20  O         47.0420  141.1930   16.0800 O.2   149  PHE149     -0.2867
     21  CB        47.9270  138.5320   16.9590 C.3   149  PHE149      0.0534
     22  CG        49.3220  138.7500   17.4300 C.ar  149  PHE149     -0.0203
     23  CD1       49.5680  139.2110   18.7010 C.ar  149  PHE149     -0.0042
     24  CD2       50.3900  138.5160   16.5940 C.ar  149  PHE149     -0.0042
     25  CE1       50.8590  139.4210   19.1360 C.ar  149  PHE149     -0.0003
     26  CE2       51.6910  138.7300   17.0250 C.ar  149  PHE149     -0.0003
     27  CZ        51.9200  139.1830   18.2970 C.ar  149  PHE149     -0.0000
     28  N         49.7520  143.5600   17.1910 N.3   151  GLY151     -0.1210
     29  CA        51.1970  143.5990   17.2640 C.3   151  GLY151      0.1956
     30  C         51.7410  144.8130   18.0000 C.2   151  GLY151      0.2611
     31  O         51.0310  145.7750   18.3020 O.2   151  GLY151     -0.2717
     32  N         53.0500  144.7580   18.2700 N.am  152  ILE152     -0.1979
     33  CA        53.7190  145.7830   19.0660 C.3   152  ILE152      0.1595
     34  C         53.4320  147.1660   18.5040 C.2   152  ILE152      0.2287
     35  O         53.5400  147.3970   17.2950 O.2   152  ILE152     -0.2864
     36  CB        55.2340  145.5100   19.1350 C.3   152  ILE152      0.0276
     37  CG1       55.9440  146.6880   19.8180 C.3   152  ILE152      0.0022
     38  CG2       55.8020  145.2380   17.7360 C.3   152  ILE152      0.0022
     39  CD1       57.3370  146.3790   20.3350 C.3   152  ILE152      0.0001
     40  N         45.0240  139.4570   12.6730 N.3   167  ILE167     -0.1231
     41  CA        46.3360  139.9470   13.0700 C.3   167  ILE167      0.1692
     42  C         46.4240  141.4090   12.6730 C.2   167  ILE167      0.2592
     43  O         46.0810  141.7740   11.5410 O.2   167  ILE167     -0.2718
     44  CB        47.4720  139.1590   12.3980 C.3   167  ILE167      0.0266
     45  CG1       47.4700  137.7050   12.8420 C.3   167  ILE167      0.0019
     46  CG2       48.8150  139.8170   12.6670 C.3   167  ILE167      0.0020
     47  CD1       48.5810  136.9180   12.1900 C.3   167  ILE167      0.0001
     48  N         46.8740  142.2470   13.5910 N.am  168  LEU168     -0.1966
     49  CA        47.2240  143.6220   13.2760 C.3   168  LEU168      0.1728
     50  C         48.7290  143.7100   13.4550 C.2   168  LEU168      0.2617
     51  O         49.2350  143.4550   14.5510 O.2   168  LEU168     -0.2715
     52  CB        46.4770  144.5990   14.1850 C.3   168  LEU168      0.0311
     53  CG        46.5600  146.1060   13.9530 C.3   168  LEU168      0.0022
     54  CD1       46.0540  146.4640   12.5630 C.3   168  LEU168      0.0001
     55  CD2       45.7590  146.8520   14.9950 C.3   168  LEU168      0.0001
     56  N         49.4450  144.0050   12.3790 N.am  169  GLY169     -0.1940
     57  CA        50.8900  143.9610   12.4260 C.3   169  GLY169      0.2014
     58  C         51.4730  144.9650   13.4090 C.2   169  GLY169      0.2639
     59  O         50.8010  145.8650   13.9140 O.2   169  GLY169     -0.2714
     60  N         52.7670  144.7920   13.6880 N.am  170  GLY170     -0.1954
     61  CA        53.5120  145.7880   14.4340 C.3   170  GLY170      0.1869
     62  C         53.3740  147.1500   13.7950 C.2   170  GLY170      0.2309
     63  O         53.4470  147.2680   12.5670 O.2   170  GLY170     -0.2863
     64  N         45.4560  139.6100    7.9430 N.3   183  VAL183     -0.1245
     65  CA        46.6370  140.2490    8.5080 C.3   183  VAL183      0.1561
     66  C         46.6870  141.6630    7.9530 C.2   183  VAL183      0.2260
     67  O         46.8470  141.8510    6.7420 O.2   183  VAL183     -0.2867
     68  CB        47.9130  139.4820    8.1510 C.3   183  VAL183      0.0252
     69  CG1       49.1200  140.2100    8.6630 C.3   183  VAL183      0.0019
     70  CG2       47.8430  138.0480    8.6960 C.3   183  VAL183      0.0019
     71  N         48.3680  145.4110    7.8910 N.3   185  VAL185     -0.1231
     72  CA        49.6700  146.0080    8.1370 C.3   185  VAL185      0.1692
     73  C         49.6840  147.4190    7.5780 C.2   185  VAL185      0.2592
     74  O         48.9360  147.7460    6.6530 O.2   185  VAL185     -0.2718
     75  CB        50.8220  145.1620    7.5180 C.3   185  VAL185      0.0266
     76  CG1       50.9440  143.8140    8.2130 C.3   185  VAL185      0.0020
     77  CG2       50.6140  144.9710    6.0070 C.3   185  VAL185      0.0020
     78  N         50.5320  148.2620    8.1600 N.am  186  GLY186     -0.1957
     79  CA        50.7810  149.5880    7.6330 C.3   186  GLY186      0.1869
     80  C         50.0140  150.6710    8.3650 C.2   186  GLY186      0.2309
     81  O         49.2150  150.4230    9.2710 O.2   186  GLY186     -0.2863
     82  N         47.1130  142.0910    3.9810 N.3   192  MET192     -0.1196
     83  CA        48.2590  141.5320    3.2530 C.3   192  MET192      0.1786
     84  C         47.7800  140.7890    2.0030 C.2   192  MET192      0.2306
     85  O         48.4580  139.8930    1.5030 O.2   192  MET192     -0.2863
     86  CB        49.0830  140.5780    4.1320 C.2   192  MET192      0.0070
     87  CG        49.9420  141.2530    5.2160 C.2   192  MET192      0.0282
     88  SD        51.3140  140.2510    5.8850 S.3   192  MET192     -0.1125
     89  CE        52.5000  140.3320    4.5440 C.3   192  MET192      0.0742
@<TRIPOS>BOND
     1    85    84    2
     2    84    83    1
     3    83    82    1
     4    83    86    1
     5    86    87    2
     6    89    88    1
     7    87    88    1
     8    77    75    1
     9    74    73    2
    10    67    66    2
    11    75    72    1
    12    75    76    1
    13    73    72    1
    14    73    78   am
    15    79    78    1
    16    79    80    1
    17    71    72    1
    18    64    65    1
    19    66    65    1
    20    68    65    1
    21    68    69    1
    22    68    70    1
    23    80    81    2
    24    43    42    2
    25    47    45    1
    26    56    57    1
    27    56    50   am
    28    44    46    1
    29    44    45    1
    30    44    41    1
    31    57    58    1
    32    54    53    1
    33    63    62    2
    34    42    41    1
    35    42    48   am
    36    40    41    1
    37    49    50    1
    38    49    48    1
    39    49    52    1
    40    58    60   am
    41    58    59    2
    42    50    51    2
    43    60    61    1
    44    62    61    1
    45    53    52    1
    46    53    55    1
    47    20    19    2
    48    24    26   ar
    49    24    22   ar
    50    21    22    1
    51    21    18    1
    52    26    27   ar
    53    28    29    1
    54    29    30    1
    55    19    18    1
    56    35    34    2
    57    17    18    1
    58    22    23   ar
    59    38    36    1
    60    30    32   am
    61    30    31    2
    62    32    33    1
    63    27    25   ar
    64    34    33    1
    65    23    25   ar
    66    33    36    1
    67    36    37    1
    68    37    39    1
    69     4     3    2
    70    15    16    1
    71    15    12    1
    72     1     2    1
    73     5     6    1
    74     5     2    1
    75     7     6   ar
    76     7     9   ar
    77     3     2    1
    78    11    12    1
    79    12    13    1
    80     6     8   ar
    81     9    10   ar
    82    13    14    2
    83     8    10   ar
