@<TRIPOS>MOLECULE
tmp/5t31A00.pdb
 139 132 0 0 0
SMALL
GASTEIGER

@<TRIPOS>ATOM
      1  N        -14.2910   21.7570  -11.4780 N.3    28  ILE28      -0.1245
      2  CA       -13.8360   22.7000  -10.4390 C.3    28  ILE28       0.1561
      3  C        -12.8370   21.9480   -9.5720 C.2    28  ILE28       0.2260
      4  O        -13.0610   20.7830   -9.2550 O.2    28  ILE28      -0.2867
      5  CB       -14.9690   23.1010   -9.4740 C.3    28  ILE28       0.0252
      6  CG1      -16.2200   23.5370  -10.2640 C.3    28  ILE28       0.0019
      7  CG2      -14.4350   24.1400   -8.4740 C.3    28  ILE28       0.0019
      8  CD1      -17.4360   23.8730   -9.4180 C.3    28  ILE28       0.0001
      9  N        -13.0100   17.2990   -8.5140 N.3    36  VAL36      -0.1231
     10  CA       -14.3890   17.6040   -8.1600 C.3    36  VAL36       0.1692
     11  C        -15.0810   18.2370   -9.3640 C.2    36  VAL36       0.2592
     12  O        -14.5030   19.0990  -10.0010 O.2    36  VAL36      -0.2718
     13  CB       -14.4530   18.6130   -7.0160 C.3    36  VAL36       0.0266
     14  CG1      -15.7930   18.5050   -6.3390 C.3    36  VAL36       0.0020
     15  CG2      -13.3250   18.3880   -6.0150 C.3    36  VAL36       0.0020
     16  N        -16.3050   17.8150   -9.6810 N.am   37  TYR37      -0.1976
     17  CA       -17.1250   18.4790  -10.7170 C.3    37  TYR37       0.1639
     18  C        -18.3250   19.1220  -10.0700 C.2    37  TYR37       0.2290
     19  O        -18.6550   18.7980   -8.9240 O.2    37  TYR37      -0.2864
     20  CB       -17.6330   17.4920  -11.7580 C.3    37  TYR37       0.0560
     21  CG       -16.5550   16.6370  -12.3890 C.ar   37  TYR37      -0.0198
     22  CD1      -16.0040   15.5650  -11.7030 C.ar   37  TYR37      -0.0009
     23  CD2      -16.0940   16.8900  -13.6800 C.ar   37  TYR37      -0.0009
     24  CE1      -15.0270   14.7800  -12.2710 C.ar   37  TYR37       0.0417
     25  CE2      -15.1100   16.1000  -14.2590 C.ar   37  TYR37       0.0417
     26  CZ       -14.5900   15.0510  -13.5490 C.ar   37  TYR37       0.1957
     27  OH       -13.6270   14.2510  -14.1020 O.3    37  TYR37      -0.2866
     28  N        -22.2520   18.4720   -6.3450 N.3    49  ALA49      -0.1245
     29  CA       -20.8250   18.3030   -6.4920 C.3    49  ALA49       0.1562
     30  C        -20.6050   16.8220   -6.7000 C.2    49  ALA49       0.2260
     31  O        -21.2680   16.0190   -6.0650 O.2    49  ALA49      -0.2867
     32  CB       -20.1010   18.7900   -5.2550 C.3    49  ALA49       0.0290
     33  N        -22.6840   18.4900    5.0060 N.3    76  VAL76      -0.1245
     34  CA       -23.0970   18.1030    3.6540 C.3    76  VAL76       0.1561
     35  C        -23.7170   16.7290    3.6530 C.2    76  VAL76       0.2260
     36  O        -23.2300   15.8320    4.3420 O.2    76  VAL76      -0.2867
     37  CB       -21.9850   17.9780    2.5930 C.3    76  VAL76       0.0252
     38  CG1      -21.9320   19.1820    1.6970 C.3    76  VAL76       0.0019
     39  CG2      -20.6440   17.6310    3.1960 C.3    76  VAL76       0.0019
     40  N        -22.3870   14.8810   -3.9620 N.3    95  LEU95      -0.1231
     41  CA       -22.5750   15.6670   -2.7560 C.3    95  LEU95       0.1693
     42  C        -23.4760   16.8670   -3.0410 C.2    95  LEU95       0.2592
     43  O        -23.5810   17.3740   -4.1840 O.2    95  LEU95      -0.2718
     44  CB       -21.2180   16.1880   -2.2580 C.3    95  LEU95       0.0284
     45  CG       -20.1330   15.1620   -1.8890 C.3    95  LEU95       0.0019
     46  CD1      -18.7460   15.6480   -2.2540 C.3    95  LEU95       0.0001
     47  CD2      -20.1920   14.8070   -0.4070 C.3    95  LEU95       0.0001
     48  N        -24.1080   17.3110   -1.9640 N.am   96  GLU96      -0.1966
     49  CA       -24.9450   18.4830   -1.9440 C.3    96  GLU96       0.1733
     50  C        -24.0590   19.6930   -2.2800 C.2    96  GLU96       0.2616
     51  O        -22.9090   19.7640   -1.8330 O.2    96  GLU96      -0.2715
     52  CB       -25.5560   18.5630   -0.5400 C.3    96  GLU96       0.0429
     53  CG       -26.4050   19.7830   -0.2240 C.3    96  GLU96       0.1163
     54  CD       -26.7400   19.9340    1.2670 C.2    96  GLU96       0.3649
     55  OE1      -26.1430   19.2250    2.1340 O.co2  96  GLU96      -0.2457
     56  OE2      -27.6140   20.7910    1.5770 O.co2  96  GLU96      -0.2457
     57  N        -24.5820   20.6040   -3.1040 N.am   97  TYR97      -0.1960
     58  CA       -23.8880   21.8440   -3.5260 C.3    97  TYR97       0.1771
     59  C        -24.4550   23.0890   -2.7910 C.2    97  TYR97       0.2619
     60  O        -25.6660   23.2760   -2.7010 O.2    97  TYR97      -0.2715
     61  CB       -23.9840   22.0180   -5.0560 C.3    97  TYR97       0.0574
     62  CG       -23.1730   23.1770   -5.6310 C.ar   97  TYR97      -0.0198
     63  CD1      -23.6760   24.4840   -5.6480 C.ar   97  TYR97      -0.0009
     64  CD2      -21.9000   22.9690   -6.1690 C.ar   97  TYR97      -0.0009
     65  CE1      -22.9330   25.5430   -6.1650 C.ar   97  TYR97       0.0417
     66  CE2      -21.1660   24.0190   -6.6970 C.ar   97  TYR97       0.0417
     67  CZ       -21.6930   25.3000   -6.6990 C.ar   97  TYR97       0.1957
     68  OH       -20.9490   26.3300   -7.2140 O.3    97  TYR97      -0.2866
     69  N        -23.5660   23.9180   -2.2570 N.am   98  VAL98      -0.1964
     70  CA       -23.8920   25.2350   -1.7150 C.3    98  VAL98       0.1712
     71  C        -22.9190   26.2420   -2.3490 C.2    98  VAL98       0.2458
     72  O        -21.7270   26.0410   -2.2630 O.2    98  VAL98      -0.2730
     73  CB       -23.6780   25.2710   -0.2070 C.3    98  VAL98       0.0289
     74  CG1      -24.0610   26.6230    0.3750 C.3    98  VAL98       0.0023
     75  CG2      -24.4800   24.1800    0.4560 C.3    98  VAL98       0.0023
     76  N        -23.4170   27.3340   -2.9630 N.am   99  PRO99      -0.2727
     77  CA       -22.5310   28.1690   -3.7570 C.3    99  PRO99       0.1402
     78  C        -21.4770   28.9920   -2.9860 C.2    99  PRO99       0.2269
     79  O        -20.4110   29.2720   -3.5550 O.2    99  PRO99      -0.2865
     80  CB       -23.5080   29.1110   -4.4800 C.3    99  PRO99       0.0296
     81  CG       -24.8700   28.5530   -4.2450 C.3    99  PRO99       0.0237
     82  CD       -24.7590   27.9320   -2.9060 C.3    99  PRO99       0.0939
     83  N        -19.0690   29.9240    0.6890 N.3   101  THR101     -0.1218
     84  CA       -18.4310   29.4150    1.8990 C.3   101  THR101      0.1862
     85  C        -18.1980   30.5430    2.8600 C.2   101  THR101      0.2287
     86  O        -18.3400   31.6980    2.4840 O.2   101  THR101     -0.2866
     87  CB       -17.0810   28.7950    1.6180 C.3   101  THR101      0.1770
     88  OG1      -16.1310   29.8240    1.3400 O.3   101  THR101     -0.2211
     89  CG2      -17.1810   27.8740    0.4530 C.3   101  THR101      0.0375
     90  N        -15.2100   32.8180    1.6860 N.3   104  ARG104     -0.1245
     91  CA       -15.6370   33.7470    0.6270 C.3   104  ARG104      0.1563
     92  C        -16.4150   34.9580    1.1330 C.2   104  ARG104      0.2260
     93  O        -16.1740   36.0670    0.6910 O.2   104  ARG104     -0.2867
     94  CB       -16.4700   33.0010   -0.4280 C.3   104  ARG104      0.0307
     95  CG       -15.6200   32.1320   -1.3480 C.3   104  ARG104      0.0489
     96  CD       -16.4500   31.1180   -2.1230 C.3   104  ARG104      0.2205
     97  NE       -17.4540   31.8150   -2.9070 N.pl3 104  ARG104     -0.0865
     98  CZ       -17.3550   32.1500   -4.1870 C.cat 104  ARG104      0.5346
     99  NH1      -16.3060   31.8090   -4.9180 N.pl3 104  ARG104      0.1354
    100  NH2      -18.3430   32.8340   -4.7510 N.pl3 104  ARG104      0.1354
    101  N        -12.6550   27.4820    4.3170 N.3   148  GLN148     -0.1231
    102  CA       -12.8830   27.0620    2.9120 C.3   148  GLN148      0.1698
    103  C        -13.7830   25.8050    2.8250 C.2   148  GLN148      0.2592
    104  O        -14.3370   25.4860    1.7590 O.2   148  GLN148     -0.2718
    105  CB       -11.5520   26.7420    2.1840 C.3   148  GLN148      0.0381
    106  CG       -10.5080   27.8480    2.0100 C.3   148  GLN148      0.0905
    107  CD        -9.9270   28.4060    3.3220 C.2   148  GLN148      0.2608
    108  OE1      -10.2710   27.9530    4.4240 O.2   148  GLN148     -0.2717
    109  NE2       -9.0610   29.4270    3.2100 N.am  148  GLN148     -0.0878
    110  N        -13.8630   25.0820    3.9420 N.am  149  ASN149     -0.1974
    111  CA       -14.6240   23.8480    4.0720 C.3   149  ASN149      0.1688
    112  C        -15.8750   24.0520    4.9400 C.2   149  ASN149      0.2292
    113  O        -16.4250   23.0840    5.4970 O.2   149  ASN149     -0.2864
    114  CB       -13.7340   22.7490    4.6920 C.3   149  ASN149      0.1181
    115  CG       -12.6430   22.2160    3.7360 C.2   149  ASN149      0.2629
    116  OD1      -12.6160   22.4790    2.5180 O.2   149  ASN149     -0.2716
    117  ND2      -11.7300   21.4240    4.3110 N.am  149  ASN149     -0.0877
    118  N        -19.3950   25.3430    4.0420 N.3   151  LEU151     -0.1245
    119  CA       -20.4760   25.7930    3.1940 C.3   151  LEU151      0.1561
    120  C        -21.3640   26.7410    3.9830 C.2   151  LEU151      0.2260
    121  O        -21.4520   26.6460    5.2150 O.2   151  LEU151     -0.2867
    122  CB       -21.2740   24.6090    2.6750 C.3   151  LEU151      0.0270
    123  CG       -20.4320   23.6420    1.8230 C.3   151  LEU151      0.0019
    124  CD1      -21.3220   22.6570    1.0890 C.3   151  LEU151      0.0001
    125  CD2      -19.5040   24.3390    0.8340 C.3   151  LEU151      0.0001
    126  N        -18.0650   20.5950    5.4890 N.3   162  CYS162     -0.1221
    127  CA       -17.8700   19.7130    4.3260 C.3   162  CYS162      0.1808
    128  C        -16.4010   19.2870    4.0630 C.2   162  CYS162      0.2601
    129  O        -15.5210   19.6590    4.8120 O.2   162  CYS162     -0.2717
    130  CB       -18.4830   20.3780    3.0970 C.3   162  CYS162      0.0970
    131  SG       -17.3450   21.5030    2.2810 S.3   162  CYS162     -0.0800
    132  N        -16.1700   18.5050    2.9990 N.am  163  ASP163     -0.1973
    133  CA       -14.8800   17.8380    2.6930 C.3   163  ASP163      0.1709
    134  C        -14.4150   16.9100    3.8180 C.2   163  ASP163      0.2293
    135  O        -13.6170   17.2950    4.6780 O.2   163  ASP163     -0.2864
    136  CB       -13.8070   18.8750    2.3430 C.3   163  ASP163      0.1436
    137  CG       -12.6290   18.3060    1.5410 C.2   163  ASP163      0.3671
    138  OD1      -12.5020   17.0720    1.3120 O.co2 163  ASP163     -0.2456
    139  OD2      -11.8250   19.1550    1.1090 O.co2 163  ASP163     -0.2456
@<TRIPOS>BOND
     1    25    23   ar
     2    25    26   ar
     3    27    26    1
     4    23    21   ar
     5    26    24   ar
     6    21    20    1
     7    21    22   ar
     8    24    22   ar
     9    20    17    1
    10     1     2    1
    11    17    18    1
    12    17    16    1
    13     2     3    1
    14     2     5    1
    15     6     5    1
    16     6     8    1
    17    18    19    2
    18    12    11    2
    19    16    11   am
    20     3     4    2
    21     5     7    1
    22    11    10    1
    23     9    10    1
    24    10    13    1
    25    68    67    1
    26    13    14    1
    27    13    15    1
    28    30    29    1
    29    30    31    2
    30    67    66   ar
    31    67    65   ar
    32    66    64   ar
    33    29    28    1
    34    29    32    1
    35    64    62   ar
    36    65    63   ar
    37    63    62   ar
    38    62    61    1
    39    61    58    1
    40    99    98    1
    41   100    98    1
    42    80    81    1
    43    80    77    1
    44    81    82    1
    45    98    97    2
    46    43    42    2
    47    40    41    1
    48    77    78    1
    49    77    76    1
    50    79    78    2
    51    58    57    1
    52    58    59    1
    53    57    50   am
    54    42    41    1
    55    42    48   am
    56    76    82    1
    57    76    71   am
    58    97    96    1
    59    59    60    2
    60    59    69   am
    61    41    44    1
    62    71    72    2
    63    71    70    1
    64    50    49    1
    65    50    51    2
    66    44    45    1
    67    69    70    1
    68    46    45    1
    69    96    95    1
    70    48    49    1
    71    49    52    1
    72    45    47    1
    73    70    73    1
    74    95    94    1
    75    52    53    1
    76    94    91    1
    77    53    54    1
    78    73    74    1
    79    73    75    1
    80    89    87    1
    81    91    92    1
    82    91    90    1
    83    83    84    1
    84    93    92    2
    85   125   123    1
    86   124   123    1
    87   139   137   ar
    88    54    56   ar
    89    54    55   ar
    90   138   137   ar
    91    88    87    1
    92   137   136    1
    93    87    84    1
    94    38    37    1
    95   104   103    2
    96   123   122    1
    97    84    85    1
    98   106   105    1
    99   106   107    1
   100   105   102    1
   101   131   130    1
   102   136   133    1
   103    86    85    2
   104   116   115    2
   105    37    39    1
   106    37    34    1
   107   122   119    1
   108   133   132    1
   109   133   134    1
   110   103   102    1
   111   103   110   am
   112   102   101    1
   113   132   128   am
   114   130   127    1
   115   119   120    1
   116   119   118    1
   117   109   107   am
   118   107   108    2
   119    35    34    1
   120    35    36    2
   121    34    33    1
   122   115   117   am
   123   115   114    1
   124   134   135    2
   125   110   111    1
   126   120   121    2
   127   128   127    1
   128   128   129    2
   129   111   114    1
   130   111   112    1
   131   127   126    1
   132   112   113    2
