@<TRIPOS>MOLECULE
tmp/5t35E00.pdb
 179 180 0 0 0
SMALL
GASTEIGER

@<TRIPOS>ATOM
      1  N         -8.4810   37.4000  -32.4590 N.3    26  TRP26      -0.1228
      2  CA        -7.7580   36.3340  -33.1870 C.3    26  TRP26       0.1722
      3  C         -7.5600   34.9800  -32.4690 C.2    26  TRP26       0.2437
      4  O         -7.5340   33.9500  -33.1370 O.2    26  TRP26      -0.2733
      5  CB        -6.4190   36.8370  -33.7650 C.3    26  TRP26       0.0563
      6  CG        -5.3620   37.2300  -32.7660 C.ar   26  TRP26       0.0003
      7  CD1       -5.0630   38.4990  -32.3390 C.ar   26  TRP26       0.0946
      8  CD2       -4.4420   36.3610  -32.0950 C.ar   26  TRP26       0.0152
      9  NE1       -4.0250   38.4660  -31.4410 N.ar   26  TRP26      -0.2442
     10  CE2       -3.6260   37.1670  -31.2740 C.ar   26  TRP26       0.0810
     11  CE3       -4.2320   34.9780  -32.0980 C.ar   26  TRP26       0.0012
     12  CZ2       -2.6170   36.6350  -30.4670 C.ar   26  TRP26       0.0191
     13  CZ3       -3.2200   34.4500  -31.2970 C.ar   26  TRP26       0.0001
     14  CH2       -2.4290   35.2800  -30.4940 C.ar   26  TRP26       0.0015
     15  N         -7.4370   34.9640  -31.1250 N.am   27  PRO27      -0.2718
     16  CA        -7.3040   33.6600  -30.4430 C.3    27  PRO27       0.1535
     17  C         -8.5460   32.7560  -30.4770 C.2    27  PRO27       0.2598
     18  O         -8.4350   31.5730  -30.1550 O.2    27  PRO27      -0.2715
     19  CB        -7.0110   34.0460  -28.9870 C.3    27  PRO27       0.0310
     20  CG        -6.5390   35.4490  -29.0450 C.3    27  PRO27       0.0237
     21  CD        -7.2910   36.0800  -30.1770 C.3    27  PRO27       0.0939
     22  N         -9.7030   33.3010  -30.8460 N.am   28  PHE28      -0.1974
     23  CA       -10.9670   32.5640  -30.7680 C.3    28  PHE28       0.1639
     24  C        -11.5060   32.1610  -32.1410 C.2    28  PHE28       0.2290
     25  O        -12.5850   31.5640  -32.2390 O.2    28  PHE28      -0.2864
     26  CB       -12.0160   33.4030  -30.0140 C.3    28  PHE28       0.0560
     27  CG       -11.5130   33.9780  -28.7160 C.ar   28  PHE28      -0.0200
     28  CD1      -11.5680   33.2390  -27.5450 C.ar   28  PHE28      -0.0042
     29  CD2      -10.9610   35.2470  -28.6740 C.ar   28  PHE28      -0.0042
     30  CE1      -11.0890   33.7610  -26.3540 C.ar   28  PHE28      -0.0003
     31  CE2      -10.4800   35.7740  -27.4890 C.ar   28  PHE28      -0.0003
     32  CZ       -10.5450   35.0300  -26.3270 C.ar   28  PHE28      -0.0000
     33  N        -10.3960   29.8400  -34.2090 N.3    30  LYS30      -0.1231
     34  CA       -10.3830   28.3790  -34.4040 C.3    30  LYS30       0.1678
     35  C        -10.3190   27.6350  -33.0780 C.2    30  LYS30       0.2434
     36  O        -10.0640   28.2440  -32.0400 O.2    30  LYS30      -0.2733
     37  CB        -9.1950   27.9850  -35.2850 C.3    30  LYS30       0.0284
     38  CG        -9.4030   28.3180  -36.7530 C.3    30  LYS30       0.0035
     39  CD        -8.1010   28.2280  -37.5300 C.3    30  LYS30       0.0206
     40  CE        -8.3260   28.4640  -39.0130 C.3    30  LYS30       0.1093
     41  NZ        -7.0480   28.4180  -39.7740 N.3    30  LYS30      -0.1314
     42  N        -10.5650   26.3140  -33.1000 N.am   31  PRO31      -0.2718
     43  CA       -10.4560   25.5230  -31.8630 C.3    31  PRO31       0.1535
     44  C         -9.0830   25.6420  -31.2020 C.2    31  PRO31       0.2598
     45  O         -8.0970   25.9760  -31.8610 O.2    31  PRO31      -0.2715
     46  CB       -10.6750   24.0860  -32.3420 C.3    31  PRO31       0.0310
     47  CG       -11.4740   24.2120  -33.5920 C.3    31  PRO31       0.0237
     48  CD       -11.0780   25.5140  -34.2290 C.3    31  PRO31       0.0939
     49  N         -9.0200   25.3560  -29.9100 N.am   32  VAL32      -0.1964
     50  CA        -7.7680   25.4700  -29.1830 C.3    32  VAL32       0.1727
     51  C         -6.8900   24.2880  -29.5330 C.2    32  VAL32       0.2616
     52  O         -7.3110   23.1510  -29.3860 O.2    32  VAL32      -0.2715
     53  CB        -7.9960   25.4920  -27.6620 C.3    32  VAL32       0.0290
     54  CG1       -6.6630   25.5100  -26.9210 C.3    32  VAL32       0.0023
     55  CG2       -8.8410   26.6940  -27.2630 C.3    32  VAL32       0.0023
     56  N         -5.6730   24.5630  -29.9960 N.am   33  ASP33      -0.1971
     57  CA        -4.7030   23.5150  -30.3530 C.3    33  ASP33       0.1709
     58  C         -3.8300   23.1830  -29.1430 C.2    33  ASP33       0.2293
     59  O         -2.8220   23.8480  -28.8790 O.2    33  ASP33      -0.2864
     60  CB        -3.8390   23.9920  -31.5340 C.3    33  ASP33       0.1436
     61  CG        -3.0000   22.8830  -32.1510 C.2    33  ASP33       0.3671
     62  OD1       -2.8060   21.8250  -31.5210 O.co2  33  ASP33      -0.2456
     63  OD2       -2.5240   23.0840  -33.2850 O.co2  33  ASP33      -0.2456
     64  N         -1.8540   20.6430  -28.5060 N.3    35  GLU35      -0.1231
     65  CA        -0.5090   20.1850  -28.8280 C.3    35  GLU35       0.1699
     66  C          0.4280   21.3770  -29.0260 C.2    35  GLU35       0.2592
     67  O          1.4470   21.4730  -28.3470 O.2    35  GLU35      -0.2718
     68  CB        -0.5120   19.2460  -30.0370 C.3    35  GLU35       0.0402
     69  CG        -1.1480   17.8950  -29.7570 C.3    35  GLU35       0.1161
     70  CD        -0.7250   17.3150  -28.4160 C.2    35  GLU35       0.3649
     71  OE1        0.1100   17.9250  -27.7200 O.co2  35  GLU35      -0.2457
     72  OE2       -1.2260   16.2400  -28.0560 O.co2  35  GLU35      -0.2457
     73  N          0.0660   22.2920  -29.9240 N.am   36  ALA36      -0.1966
     74  CA         0.9080   23.4510  -30.2390 C.3    36  ALA36       0.1728
     75  C          1.1460   24.3680  -29.0400 C.2    36  ALA36       0.2616
     76  O          2.2530   24.8760  -28.8410 O.2    36  ALA36      -0.2715
     77  CB         0.2980   24.2470  -31.3820 C.3    36  ALA36       0.0334
     78  N          0.1020   24.5960  -28.2550 N.am   37  LEU37      -0.1963
     79  CA         0.2120   25.4770  -27.0990 C.3    37  LEU37       0.1728
     80  C          0.8680   24.7770  -25.9150 C.2    37  LEU37       0.2617
     81  O          1.3080   25.4400  -24.9720 O.2    37  LEU37      -0.2715
     82  CB        -1.1620   26.0120  -26.7010 C.3    37  LEU37       0.0311
     83  CG        -1.8480   26.8430  -27.7880 C.3    37  LEU37       0.0022
     84  CD1       -3.3400   26.9600  -27.5210 C.3    37  LEU37       0.0001
     85  CD2       -1.1930   28.2140  -27.9070 C.3    37  LEU37       0.0001
     86  N          0.9220   23.4450  -25.9660 N.am   38  GLY38      -0.1940
     87  CA         1.5830   22.6480  -24.9360 C.3    38  GLY38       0.2014
     88  C          0.7930   22.5860  -23.6440 C.2    38  GLY38       0.2639
     89  O          1.3710   22.6250  -22.5600 O.2    38  GLY38      -0.2714
     90  N         -0.5260   22.4710  -23.7680 N.am   39  LEU39      -0.1963
     91  CA        -1.4270   22.4770  -22.6270 C.3    39  LEU39       0.1728
     92  C         -1.9140   21.0620  -22.3360 C.2    39  LEU39       0.2616
     93  O         -2.9420   20.6110  -22.8450 O.2    39  LEU39      -0.2715
     94  CB        -2.6090   23.4010  -22.9000 C.3    39  LEU39       0.0311
     95  CG        -2.2200   24.8030  -23.3790 C.3    39  LEU39       0.0022
     96  CD1       -3.4550   25.6000  -23.7680 C.3    39  LEU39       0.0001
     97  CD2       -1.4050   25.5370  -22.3190 C.3    39  LEU39       0.0001
     98  N         -1.1640   20.3640  -21.4990 N.am   40  HIS40      -0.1973
     99  CA        -1.4460   18.9630  -21.2060 C.3    40  HIS40       0.1656
    100  C         -2.7420   18.7610  -20.4170 C.2    40  HIS40       0.2291
    101  O         -3.3560   17.6980  -20.5030 O.2    40  HIS40      -0.2864
    102  CB        -0.2570   18.3670  -20.4590 C.3    40  HIS40       0.0771
    103  CG         1.0370   18.5280  -21.2050 C.ar   40  HIS40       0.0820
    104  ND1        1.1190   18.3870  -22.5750 N.ar   40  HIS40      -0.2267
    105  CD2        2.2850   18.8480  -20.7850 C.ar   40  HIS40       0.1154
    106  CE1        2.3630   18.6010  -22.9660 C.ar   40  HIS40       0.1986
    107  NE2        3.0910   18.8810  -21.8990 N.ar   40  HIS40      -0.2212
    108  N         -5.5890   20.8410  -20.5600 N.3    42  TYR42      -0.1241
    109  CA        -6.7210   21.6080  -21.0750 C.3    42  TYR42       0.1605
    110  C         -8.0010   20.7750  -21.2070 C.2    42  TYR42       0.2264
    111  O         -9.0730   21.2430  -20.8480 O.2    42  TYR42      -0.2867
    112  CB        -6.3850   22.2900  -22.4100 C.3    42  TYR42       0.0534
    113  CG        -7.4410   23.2860  -22.8540 C.ar   42  TYR42      -0.0201
    114  CD1       -7.4240   24.5980  -22.3950 C.ar   42  TYR42      -0.0009
    115  CD2       -8.4600   22.9130  -23.7230 C.ar   42  TYR42      -0.0009
    116  CE1       -8.3910   25.5120  -22.7840 C.ar   42  TYR42       0.0417
    117  CE2       -9.4320   23.8190  -24.1170 C.ar   42  TYR42       0.0417
    118  CZ        -9.3940   25.1170  -23.6420 C.ar   42  TYR42       0.1957
    119  OH       -10.3600   26.0160  -24.0310 O.3    42  TYR42      -0.2866
    120  N        -12.3860   30.1470  -21.4100 N.3    81  CYS81      -0.1235
    121  CA       -11.1650   30.9510  -21.3170 C.3    81  CYS81       0.1677
    122  C        -10.9230   31.4960  -19.9070 C.2    81  CYS81       0.2270
    123  O         -9.8030   31.4150  -19.3970 O.2    81  CYS81      -0.2867
    124  CB       -11.2300   32.1030  -22.3210 C.3    81  CYS81       0.0956
    125  SG        -9.7220   33.0820  -22.4520 S.3    81  CYS81      -0.0801
    126  N        -10.0020   28.3690  -17.4430 N.3    84  TYR84      -0.1227
    127  CA        -8.6780   27.7630  -17.5620 C.3    84  TYR84       0.1736
    128  C         -7.5480   28.6860  -17.1030 C.2    84  TYR84       0.2595
    129  O         -6.6330   28.2400  -16.4220 O.2    84  TYR84      -0.2718
    130  CB        -8.4190   27.2890  -19.0120 C.3    84  TYR84       0.0548
    131  CG        -7.0730   26.5960  -19.1830 C.ar   84  TYR84      -0.0200
    132  CD1       -6.8750   25.2960  -18.7340 C.ar   84  TYR84      -0.0009
    133  CD2       -5.9940   27.2550  -19.7650 C.ar   84  TYR84      -0.0009
    134  CE1       -5.6430   24.6780  -18.8550 C.ar   84  TYR84       0.0417
    135  CE2       -4.7630   26.6410  -19.8950 C.ar   84  TYR84       0.0417
    136  CZ        -4.5910   25.3560  -19.4360 C.ar   84  TYR84       0.1957
    137  OH        -3.3660   24.7450  -19.5630 O.3    84  TYR84      -0.2866
    138  N         -7.6210   29.9650  -17.4630 N.am   85  ASN85      -0.1974
    139  CA        -6.5050   30.9060  -17.2830 C.3    85  ASN85       0.1688
    140  C         -6.5770   31.7660  -16.0130 C.2    85  ASN85       0.2292
    141  O         -7.6640   31.9650  -15.4610 O.2    85  ASN85      -0.2864
    142  CB        -6.4350   31.8240  -18.4990 C.3    85  ASN85       0.1181
    143  CG        -6.1480   31.0660  -19.7790 C.2    85  ASN85       0.2629
    144  OD1       -5.0060   30.7300  -20.0600 O.2    85  ASN85      -0.2716
    145  ND2       -7.1820   30.8100  -20.5660 N.am   85  ASN85      -0.0877
    146  N         -4.1320   37.3300  -17.3360 N.3    89  HIS89      -0.1226
    147  CA        -3.4950   36.7530  -18.5120 C.3    89  HIS89       0.1752
    148  C         -3.9310   37.5290  -19.7550 C.2    89  HIS89       0.2596
    149  O         -5.0620   38.0130  -19.8350 O.2    89  HIS89      -0.2718
    150  CB        -3.9320   35.2930  -18.6260 C.3    89  HIS89       0.0759
    151  CG        -3.0780   34.4630  -19.5250 C.ar   89  HIS89       0.0818
    152  ND1       -3.2550   34.4180  -20.8890 N.ar   89  HIS89      -0.2268
    153  CD2       -2.0520   33.6250  -19.2510 C.ar   89  HIS89       0.1154
    154  CE1       -2.3670   33.6020  -21.4230 C.ar   89  HIS89       0.1986
    155  NE2       -1.6250   33.1060  -20.4490 N.ar   89  HIS89      -0.2212
    156  N         -3.0410   37.6430  -20.7300 N.am   90  GLU90      -0.1965
    157  CA        -3.3070   38.4520  -21.9230 C.3    90  GLU90       0.1733
    158  C         -4.5670   38.0170  -22.6830 C.2    90  GLU90       0.2616
    159  O         -5.2990   38.8580  -23.2130 O.2    90  GLU90      -0.2715
    160  CB        -2.1010   38.4180  -22.8680 C.3    90  GLU90       0.0429
    161  CG        -0.9160   39.2630  -22.4200 C.3    90  GLU90       0.1163
    162  CD         0.0930   38.5180  -21.5570 C.2    90  GLU90       0.3649
    163  OE1       -0.2920   37.5840  -20.8150 O.co2  90  GLU90      -0.2457
    164  OE2        1.2860   38.8860  -21.6080 O.co2  90  GLU90      -0.2457
    165  N         -4.7950   36.7060  -22.7420 N.am   91  VAL91      -0.1977
    166  CA        -5.9680   36.1160  -23.4080 C.3    91  VAL91       0.1596
    167  C         -7.2940   36.3970  -22.6820 C.2    91  VAL91       0.2287
    168  O         -8.3500   36.4600  -23.3170 O.2    91  VAL91      -0.2864
    169  CB        -5.7810   34.5890  -23.6400 C.3    91  VAL91       0.0276
    170  CG1       -5.9960   33.7810  -22.3650 C.3    91  VAL91       0.0022
    171  CG2       -6.7090   34.0940  -24.7330 C.3    91  VAL91       0.0022
    172  N         -8.1410   39.9590  -23.6720 N.3    94  MET94      -0.1245
    173  CA        -8.6440   39.9240  -25.0410 C.3    94  MET94       0.1570
    174  C        -10.0870   39.4040  -25.0920 C.2    94  MET94       0.2261
    175  O        -10.9310   39.9590  -25.7990 O.2    94  MET94      -0.2867
    176  CB        -7.7200   39.0730  -25.9250 C.3    94  MET94       0.0387
    177  CG        -6.3840   39.7440  -26.2150 C.3    94  MET94       0.0595
    178  SD        -5.1100   38.7030  -26.9670 S.3    94  MET94      -0.1393
    179  CE        -5.6610   38.5980  -28.6530 C.3    94  MET94       0.0692
@<TRIPOS>BOND
     1    41    40    1
     2    40    39    1
     3    39    38    1
     4    38    37    1
     5    37    34    1
     6    34    33    1
     7    34    35    1
     8    48    47    1
     9    48    42    1
    10     5     2    1
    11     5     6    1
    12    47    46    1
    13    63    61   ar
    14     2     3    1
    15     2     1    1
    16     4     3    2
    17    42    35   am
    18    42    43    1
    19    35    36    2
    20     6     7   ar
    21     6     8   ar
    22     3    15   am
    23    46    43    1
    24     7     9   ar
    25    25    24    2
    26    61    60    1
    27    61    62   ar
    28    24    23    1
    29    11     8   ar
    30    11    13   ar
    31     8    10   ar
    32    43    44    1
    33    45    44    2
    34    60    57    1
    35     9    10   ar
    36    77    74    1
    37    13    14   ar
    38    10    12   ar
    39    44    49   am
    40    15    16    1
    41    15    21    1
    42    22    23    1
    43    22    17   am
    44    23    26    1
    45    14    12   ar
    46    17    16    1
    47    17    18    2
    48    16    19    1
    49    57    56    1
    50    57    58    1
    51    74    73    1
    52    74    75    1
    53    21    20    1
    54    68    69    1
    55    68    65    1
    56    26    27    1
    57    56    51   am
    58    73    66   am
    59    49    50    1
    60    69    70    1
    61    51    52    2
    62    51    50    1
    63    50    53    1
    64    58    59    2
    65    20    19    1
    66    75    76    2
    67    75    78   am
    68    66    65    1
    69    66    67    2
    70    65    64    1
    71    27    29   ar
    72    27    28   ar
    73    29    31   ar
    74   179   178    1
    75    70    72   ar
    76    70    71   ar
    77    78    79    1
    78    85    83    1
    79    83    84    1
    80    83    82    1
    81    53    55    1
    82    53    54    1
    83    28    30   ar
    84    31    32   ar
    85    79    82    1
    86    79    80    1
    87   178   177    1
    88    30    32   ar
    89   177   176    1
    90    86    80   am
    91    86    87    1
    92   176   173    1
    93    80    81    2
    94   175   174    2
    95   174   173    1
    96   173   172    1
    97    87    88    1
    98   171   169    1
    99   117   115   ar
   100   117   118   ar
   101   119   118    1
   102    96    95    1
   103    90    88   am
   104    90    91    1
   105   115   113   ar
   106    88    89    2
   107   118   116   ar
   108   169   166    1
   109   169   170    1
   110   166   165    1
   111   166   167    1
   112    95    94    1
   113    95    97    1
   114   168   167    2
   115   159   158    2
   116   106   104   ar
   117   106   107   ar
   118    94    91    1
   119   160   161    1
   120   160   157    1
   121   113   112    1
   122   113   114   ar
   123    93    92    2
   124   116   114   ar
   125   165   158   am
   126   158   157    1
   127    91    92    1
   128   104   103   ar
   129   125   124    1
   130   161   162    1
   131   112   109    1
   132    92    98   am
   133   124   121    1
   134   157   156    1
   135   107   105   ar
   136   164   162   ar
   137   162   163   ar
   138    98    99    1
   139   154   152   ar
   140   154   155   ar
   141   120   121    1
   142   121   122    1
   143   110   109    1
   144   110   111    2
   145    99   102    1
   146    99   100    1
   147   103   105   ar
   148   103   102    1
   149   109   108    1
   150   152   151   ar
   151   156   148   am
   152   145   143   am
   153   101   100    2
   154   155   153   ar
   155   144   143    2
   156   122   123    2
   157   135   133   ar
   158   135   136   ar
   159   149   148    2
   160   143   142    1
   161   133   131   ar
   162   148   147    1
   163   137   136    1
   164   151   153   ar
   165   151   150    1
   166   136   134   ar
   167   131   130    1
   168   131   132   ar
   169   130   127    1
   170   134   132   ar
   171   150   147    1
   172   147   146    1
   173   142   139    1
   174   127   126    1
   175   127   128    1
   176   138   139    1
   177   138   128   am
   178   139   140    1
   179   128   129    2
   180   140   141    2
