@<TRIPOS>MOLECULE
tmp/5t35D00.pdb
 183 183 0 0 0
SMALL
GASTEIGER

@<TRIPOS>ATOM
      1  N         32.6860  -20.6510  -11.1480 N.3     7  ASN7       -0.1240
      2  CA        32.4610  -21.8720  -11.9030 C.3     7  ASN7        0.1653
      3  C         32.9660  -23.1050  -11.1400 C.2     7  ASN7        0.2266
      4  O         33.8990  -23.7790  -11.5740 O.2     7  ASN7       -0.2867
      5  CB        33.1250  -21.7520  -13.2710 C.3     7  ASN7        0.1155
      6  CG        32.6040  -22.7650  -14.2650 C.2     7  ASN7        0.2627
      7  OD1       31.7700  -23.6150  -13.9400 O.2     7  ASN7       -0.2716
      8  ND2       33.1020  -22.6830  -15.4890 N.am    7  ASN7       -0.0877
      9  N         31.2390  -26.0470  -10.1990 N.3     9  ARG9       -0.1245
     10  CA        30.7030  -27.3750  -10.5550 C.3     9  ARG9        0.1563
     11  C         30.4900  -28.2790   -9.3270 C.2     9  ARG9        0.2260
     12  O         30.5370  -29.5010   -9.4380 O.2     9  ARG9       -0.2867
     13  CB        31.6050  -28.0880  -11.5860 C.3     9  ARG9        0.0307
     14  CG        31.9330  -27.2740  -12.8320 C.3     9  ARG9        0.0489
     15  CD        33.2110  -27.7710  -13.4710 C.3     9  ARG9        0.2205
     16  NE        33.6570  -26.9350  -14.5780 N.pl3   9  ARG9       -0.0865
     17  CZ        33.3460  -27.1350  -15.8620 C.cat   9  ARG9        0.5346
     18  NH1       32.5270  -28.1130  -16.2510 N.pl3   9  ARG9        0.1354
     19  NH2       33.8430  -26.3130  -16.7740 N.pl3   9  ARG9        0.1354
     20  N         27.6990  -29.2750   -6.3910 N.3    11  PRO11      -0.2116
     21  CA        26.2450  -29.1830   -6.3230 C.3    11  PRO11       0.1372
     22  C         25.7070  -28.4950   -5.0790 C.2    11  PRO11       0.2244
     23  O         26.3410  -28.5290   -4.0190 O.2    11  PRO11      -0.2868
     24  CB        25.8010  -30.6460   -6.3180 C.3    11  PRO11       0.0268
     25  CG        26.9260  -31.3720   -5.6870 C.3    11  PRO11       0.0207
     26  CD        28.1790  -30.6310   -6.0700 C.3    11  PRO11       0.0892
     27  N         21.6000  -28.0510   -3.5440 N.3    13  GLN13      -0.1245
     28  CA        20.1330  -28.1240   -3.6340 C.3    13  GLN13       0.1566
     29  C         19.5150  -26.9670   -2.8790 C.2    13  GLN13       0.2260
     30  O         19.8420  -26.7320   -1.7110 O.2    13  GLN13      -0.2867
     31  CB        19.5810  -29.4350   -3.0660 C.3    13  GLN13       0.0367
     32  CG        19.5070  -30.5730   -4.0720 C.3    13  GLN13       0.0905
     33  CD        20.7840  -31.3760   -4.1210 C.2    13  GLN13       0.2608
     34  OE1       21.1390  -32.0430   -3.1530 O.2    13  GLN13      -0.2717
     35  NE2       21.4810  -31.3210   -5.2500 N.am   13  GLN13      -0.0878
     36  N         13.5210  -22.3120   -3.8190 N.3    16  PHE16      -0.1241
     37  CA        13.0430  -20.9510   -4.0590 C.3    16  PHE16       0.1605
     38  C         11.6040  -20.9300   -3.5960 C.2    16  PHE16       0.2264
     39  O         10.8200  -21.7750   -4.0130 O.2    16  PHE16      -0.2867
     40  CB        13.0830  -20.5570   -5.5510 C.3    16  PHE16       0.0534
     41  CG        14.4580  -20.2140   -6.0940 C.ar   16  PHE16      -0.0203
     42  CD1       15.5760  -20.1060   -5.2790 C.ar   16  PHE16      -0.0042
     43  CD2       14.6110  -19.9670   -7.4540 C.ar   16  PHE16      -0.0042
     44  CE1       16.8180  -19.7940   -5.8100 C.ar   16  PHE16      -0.0003
     45  CE2       15.8470  -19.6380   -7.9860 C.ar   16  PHE16      -0.0003
     46  CZ        16.9530  -19.5530   -7.1600 C.ar   16  PHE16      -0.0000
     47  N         13.5720  -14.8540  -11.0160 N.3    26  PRO26      -0.2116
     48  CA        14.9100  -15.0760  -10.5100 C.3    26  PRO26       0.1372
     49  C         15.9300  -14.6680  -11.5720 C.2    26  PRO26       0.2244
     50  O         15.6990  -14.9130  -12.7570 O.2    26  PRO26      -0.2868
     51  CB        14.9530  -16.5880  -10.2560 C.3    26  PRO26       0.0268
     52  CG        13.5860  -17.1120  -10.5380 C.3    26  PRO26       0.0207
     53  CD        12.9270  -16.1090  -11.4220 C.3    26  PRO26       0.0892
     54  N         20.0830  -14.9490  -12.5060 N.3    28  TRP28      -0.1241
     55  CA        21.3740  -15.5800  -12.2170 C.3    28  TRP28       0.1605
     56  C         22.5020  -14.7730  -12.8440 C.2    28  TRP28       0.2264
     57  O         22.4550  -14.4810  -14.0370 O.2    28  TRP28      -0.2867
     58  CB        21.4240  -17.0070  -12.7790 C.3    28  TRP28       0.0550
     59  CG        22.7650  -17.6820  -12.5610 C.ar   28  TRP28       0.0003
     60  CD1       23.3550  -17.9550  -11.3600 C.ar   28  TRP28       0.0946
     61  CD2       23.6670  -18.1670  -13.5660 C.ar   28  TRP28       0.0152
     62  NE1       24.5670  -18.5640  -11.5520 N.ar   28  TRP28      -0.2442
     63  CE2       24.7840  -18.7110  -12.8950 C.ar   28  TRP28       0.0810
     64  CE3       23.6410  -18.1900  -14.9670 C.ar   28  TRP28       0.0012
     65  CZ2       25.8630  -19.2710  -13.5700 C.ar   28  TRP28       0.0191
     66  CZ3       24.7210  -18.7480  -15.6430 C.ar   28  TRP28       0.0001
     67  CH2       25.8160  -19.2800  -14.9400 C.ar   28  TRP28       0.0015
     68  N         29.3190  -16.4050  -15.1130 N.3    31  PHE31      -0.1241
     69  CA        30.7480  -16.3600  -14.8100 C.3    31  PHE31       0.1605
     70  C         31.4120  -15.0680  -15.2970 C.2    31  PHE31       0.2264
     71  O         32.4560  -14.6780  -14.7680 O.2    31  PHE31      -0.2867
     72  CB        31.4470  -17.5910  -15.3850 C.3    31  PHE31       0.0534
     73  CG        30.7340  -18.8830  -15.0740 C.ar   31  PHE31      -0.0203
     74  CD1       30.4300  -19.2270  -13.7610 C.ar   31  PHE31      -0.0042
     75  CD2       30.3490  -19.7530  -16.0900 C.ar   31  PHE31      -0.0042
     76  CE1       29.7630  -20.4120  -13.4700 C.ar   31  PHE31      -0.0003
     77  CE2       29.6830  -20.9370  -15.8040 C.ar   31  PHE31      -0.0003
     78  CZ        29.3900  -21.2690  -14.4960 C.ar   31  PHE31      -0.0000
     79  N         15.6970  -16.4800  -15.3740 N.3    38  TYR38      -0.1228
     80  CA        15.2090  -17.8510  -15.2230 C.3    38  TYR38       0.1721
     81  C         13.6780  -17.8460  -15.2010 C.2    38  TYR38       0.2437
     82  O         13.0650  -16.7800  -15.1560 O.2    38  TYR38      -0.2733
     83  CB        15.8110  -18.4710  -13.9500 C.3    38  TYR38       0.0547
     84  CG        17.0740  -19.2660  -14.2410 C.ar   38  TYR38      -0.0200
     85  CD1       18.2600  -18.6240  -14.5990 C.ar   38  TYR38      -0.0009
     86  CD2       17.0680  -20.6620  -14.2000 C.ar   38  TYR38      -0.0009
     87  CE1       19.4030  -19.3470  -14.8990 C.ar   38  TYR38       0.0417
     88  CE2       18.2040  -21.3930  -14.4970 C.ar   38  TYR38       0.0417
     89  CZ        19.3700  -20.7360  -14.8500 C.ar   38  TYR38       0.1957
     90  OH        20.5020  -21.4700  -15.1400 O.3    38  TYR38      -0.2866
     91  N         13.0410  -19.0250  -15.2560 N.am   39  PRO39      -0.2718
     92  CA        11.5610  -19.0610  -15.2160 C.3    39  PRO39       0.1535
     93  C         10.9530  -18.4140  -13.9710 C.2    39  PRO39       0.2599
     94  O         11.5620  -18.4310  -12.9030 O.2    39  PRO39      -0.2715
     95  CB        11.2470  -20.5580  -15.2270 C.3    39  PRO39       0.0310
     96  CG        12.4290  -21.1770  -15.8930 C.3    39  PRO39       0.0237
     97  CD        13.6160  -20.3630  -15.4650 C.3    39  PRO39       0.0939
     98  N          9.7540  -17.8690  -14.1090 N.am   40  THR40      -0.1937
     99  CA         9.1430  -17.0960  -13.0430 C.3    40  THR40       0.2028
    100  C          8.3370  -17.9460  -12.0580 C.2    40  THR40       0.2642
    101  O          7.8800  -19.0340  -12.3930 O.2    40  THR40      -0.2714
    102  CB         8.2180  -16.0060  -13.6090 C.3    40  THR40       0.1808
    103  OG1        7.1690  -16.6140  -14.3690 O.3    40  THR40      -0.2208
    104  CG2        8.9970  -15.0570  -14.4960 C.3    40  THR40       0.0379
    105  N          8.1710  -17.4150  -10.8490 N.am   41  LEU41      -0.1977
    106  CA         7.4220  -18.0550   -9.7700 C.3    41  LEU41       0.1596
    107  C          6.1850  -17.2160   -9.4160 C.2    41  LEU41       0.2287
    108  O          6.3210  -16.0600   -9.0100 O.2    41  LEU41      -0.2864
    109  CB         8.2980  -18.1550   -8.5130 C.3    41  LEU41       0.0297
    110  CG         9.6790  -18.7860   -8.6590 C.3    41  LEU41       0.0022
    111  CD1       10.5140  -18.5200   -7.4190 C.3    41  LEU41       0.0001
    112  CD2        9.5510  -20.2750   -8.9060 C.3    41  LEU41       0.0001
    113  N          9.5310  -24.2700   -5.1910 N.3    47  ARG47      -0.1245
    114  CA        10.0240  -25.3720   -5.9990 C.3    47  ARG47       0.1563
    115  C         11.4860  -25.6680   -5.6780 C.2    47  ARG47       0.2260
    116  O         12.2480  -24.7980   -5.2500 O.2    47  ARG47      -0.2867
    117  CB         9.8520  -25.0310   -7.4930 C.3    47  ARG47       0.0307
    118  CG        11.0420  -24.3680   -8.1500 C.3    47  ARG47       0.0489
    119  CD        10.6700  -23.7840   -9.5110 C.3    47  ARG47       0.2205
    120  NE         9.8610  -24.6520  -10.3750 N.pl3  47  ARG47      -0.0865
    121  CZ        10.2950  -25.7270  -11.0410 C.cat  47  ARG47       0.5346
    122  NH1       11.5590  -26.1420  -10.9540 N.pl3  47  ARG47       0.1354
    123  NH2        9.4440  -26.4040  -11.8040 N.pl3  47  ARG47       0.1354
    124  N         15.3600  -26.4650   -6.5730 N.3    49  ILE49      -0.1231
    125  CA        16.2630  -25.8220   -7.5220 C.3    49  ILE49       0.1692
    126  C         17.6610  -26.3980   -7.4150 C.2    49  ILE49       0.2592
    127  O         18.2260  -26.4600   -6.3220 O.2    49  ILE49      -0.2718
    128  CB        16.3820  -24.3100   -7.2350 C.3    49  ILE49       0.0266
    129  CG1       15.0240  -23.6240   -7.3660 C.3    49  ILE49       0.0019
    130  CG2       17.4080  -23.6500   -8.1470 C.3    49  ILE49       0.0020
    131  CD1       14.4280  -23.6600   -8.7470 C.3    49  ILE49       0.0001
    132  N         18.2240  -26.7960   -8.5520 N.am   50  HIS50      -0.1962
    133  CA        19.6060  -27.2350   -8.5880 C.3    50  HIS50       0.1787
    134  C         20.5140  -26.0980   -9.0260 C.2    50  HIS50       0.2621
    135  O         20.4100  -25.6230  -10.1600 O.2    50  HIS50      -0.2715
    136  CB        19.7910  -28.4160   -9.5250 C.3    50  HIS50       0.0785
    137  CG        21.1370  -29.0480   -9.4050 C.ar   50  HIS50       0.0821
    138  ND1       21.3660  -30.1500   -8.6130 N.ar   50  HIS50      -0.2267
    139  CD2       22.3360  -28.7050   -9.9340 C.ar   50  HIS50       0.1154
    140  CE1       22.6440  -30.4760   -8.6810 C.ar   50  HIS50       0.1986
    141  NE2       23.2550  -29.6150   -9.4750 N.ar   50  HIS50      -0.2212
    142  N         21.3890  -25.6690   -8.1130 N.am   51  SER51      -0.1936
    143  CA        22.3900  -24.6330   -8.3740 C.3    51  SER51       0.2055
    144  C         23.7490  -25.1660   -7.9470 C.2    51  SER51       0.2643
    145  O         23.8890  -26.3770   -7.7390 O.2    51  SER51      -0.2714
    146  CB        22.0430  -23.3500   -7.6200 C.3    51  SER51       0.2130
    147  OG        22.8140  -22.2570   -8.0900 O.3    51  SER51      -0.2179
    148  N         24.7520  -24.2880   -7.8400 N.am   52  TYR52      -0.1973
    149  CA        26.1300  -24.7150   -7.5220 C.3    52  TYR52       0.1639
    150  C         26.7920  -23.7690   -6.5250 C.2    52  TYR52       0.2290
    151  O         26.3650  -22.6200   -6.3720 O.2    52  TYR52      -0.2864
    152  CB        26.9810  -24.8500   -8.8070 C.3    52  TYR52       0.0560
    153  CG        26.4110  -25.8670   -9.7800 C.ar   52  TYR52      -0.0198
    154  CD1       25.3660  -25.5290  -10.6420 C.ar   52  TYR52      -0.0009
    155  CD2       26.8800  -27.1690   -9.8100 C.ar   52  TYR52      -0.0009
    156  CE1       24.8120  -26.4620  -11.5110 C.ar   52  TYR52       0.0417
    157  CE2       26.3370  -28.1100  -10.6780 C.ar   52  TYR52       0.0417
    158  CZ        25.3020  -27.7540  -11.5220 C.ar   52  TYR52       0.1957
    159  OH        24.7630  -28.6850  -12.3800 O.3    52  TYR52      -0.2866
    160  N         27.5190  -19.4800   -6.5570 N.3    55  HIS55      -0.1241
    161  CA        26.7170  -18.8580   -7.6150 C.3    55  HIS55       0.1621
    162  C         25.8770  -17.7090   -7.0420 C.2    55  HIS55       0.2264
    163  O         25.2640  -17.8660   -5.9980 O.2    55  HIS55      -0.2867
    164  CB        25.8060  -19.9050   -8.2760 C.3    55  HIS55       0.0745
    165  CG        26.5020  -20.7800   -9.2790 C.ar   55  HIS55       0.0817
    166  ND1       25.8600  -21.3060  -10.3810 N.ar   55  HIS55      -0.2268
    167  CD2       27.7830  -21.2120   -9.3520 C.ar   55  HIS55       0.1154
    168  CE1       26.7130  -22.0300  -11.0840 C.ar   55  HIS55       0.1986
    169  NE2       27.8880  -21.9870  -10.4830 N.ar   55  HIS55      -0.2212
    170  N         22.7150  -15.0230   -7.0280 N.3    57  TRP57      -0.1241
    171  CA        21.3290  -14.8090   -7.4860 C.3    57  TRP57       0.1605
    172  C         20.7460  -13.5150   -6.9320 C.2    57  TRP57       0.2264
    173  O         21.1010  -13.0820   -5.8250 O.2    57  TRP57      -0.2867
    174  CB        20.4150  -15.9460   -7.0140 C.3    57  TRP57       0.0550
    175  CG        20.6720  -17.2850   -7.6120 C.ar   57  TRP57       0.0003
    176  CD1       21.5640  -18.2180   -7.1780 C.ar   57  TRP57       0.0946
    177  CD2       20.0010  -17.8640   -8.7280 C.ar   57  TRP57       0.0152
    178  NE1       21.4970  -19.3460   -7.9610 N.ar   57  TRP57      -0.2442
    179  CE2       20.5410  -19.1540   -8.9220 C.ar   57  TRP57       0.0810
    180  CE3       18.9870  -17.4240   -9.5850 C.ar   57  TRP57       0.0012
    181  CZ2       20.1080  -20.0030   -9.9460 C.ar   57  TRP57       0.0191
    182  CZ3       18.5570  -18.2720  -10.6020 C.ar   57  TRP57       0.0001
    183  CH2       19.1170  -19.5470  -10.7700 C.ar   57  TRP57       0.0015
@<TRIPOS>BOND
     1    19    17    1
     2    18    17    1
     3    75    77   ar
     4    75    73   ar
     5    96    97    1
     6    96    95    1
     7    17    16    2
     8    77    78   ar
     9    66    64   ar
    10    66    67   ar
    11     8     6   am
    12    97    91    1
    13    72    73    1
    14    72    69    1
    15    79    80    1
    16    70    69    1
    17    70    71    2
    18    91    92    1
    19    91    81   am
    20    95    92    1
    21    80    81    1
    22    80    83    1
    23    92    93    1
    24    81    82    2
    25    90    89    1
    26    68    69    1
    27    73    74   ar
    28    64    61   ar
    29    67    65   ar
    30    87    89   ar
    31    87    85   ar
    32    89    88   ar
    33    85    84   ar
    34    16    15    1
    35    88    86   ar
    36    78    76   ar
    37   104   102    1
    38   103   102    1
    39     6     7    2
    40     6     5    1
    41    84    86   ar
    42    84    83    1
    43    98    93   am
    44    98    99    1
    45    57    56    2
    46    93    94    2
    47    74    76   ar
    48   102    99    1
    49    65    63   ar
    50    61    63   ar
    51    61    59   ar
    52    15    14    1
    53     5     2    1
    54    99   100    1
    55    63    62   ar
    56    56    55    1
    57    14    13    1
    58    58    59    1
    59    58    55    1
    60    50    49    2
    61    59    60   ar
    62    54    55    1
    63   101   100    2
    64   159   158    1
    65   100   105   am
    66     2     1    1
    67     2     3    1
    68   123   121    1
    69    13    10    1
    70     4     3    2
    71    49    48    1
    72    62    60   ar
    73   158   156   ar
    74   158   157   ar
    75   156   154   ar
    76    53    47    1
    77    53    52    1
    78   168   169   ar
    79   168   166   ar
    80   121   122    1
    81   121   120    2
    82    47    48    1
    83   105   106    1
    84   183   182   ar
    85   183   181   ar
    86   157   155   ar
    87   154   153   ar
    88   182   180   ar
    89    10     9    1
    90    10    11    1
    91    52    51    1
    92    48    51    1
    93   169   167   ar
    94   166   165   ar
    95   120   119    1
    96   135   134    2
    97   181   179   ar
    98   139   141   ar
    99   139   137   ar
   100   155   153   ar
   101   153   152    1
   102   106   107    1
   103   106   109    1
   104   180   177   ar
   105   136   137    1
   106   136   133    1
   107   119   118    1
   108   141   140   ar
   109    12    11    2
   110   107   108    2
   111   137   138   ar
   112   167   165   ar
   113   165   164    1
   114   134   133    1
   115   134   142   am
   116   179   177   ar
   117   179   178   ar
   118   112   110    1
   119   152   149    1
   120   131   129    1
   121   177   175   ar
   122   140   138   ar
   123   110   109    1
   124   110   111    1
   125   133   132    1
   126   132   126   am
   127   143   142    1
   128   143   144    1
   129   143   146    1
   130   164   161    1
   131   118   117    1
   132   130   128    1
   133   147   146    1
   134    45    43   ar
   135    45    46   ar
   136   178   176   ar
   137   144   148   am
   138   144   145    2
   139   148   149    1
   140   161   162    1
   141   161   160    1
   142   175   176   ar
   143   175   174    1
   144   125   126    1
   145   125   128    1
   146   125   124    1
   147   149   150    1
   148   117   114    1
   149   171   170    1
   150   171   174    1
   151   171   172    1
   152    43    41   ar
   153   126   127    2
   154   129   128    1
   155    46    44   ar
   156   162   163    2
   157   172   173    2
   158   150   151    2
   159    20    21    1
   160    20    26    1
   161    21    24    1
   162    21    22    1
   163    24    25    1
   164    41    40    1
   165    41    42   ar
   166    26    25    1
   167   114   115    1
   168   114   113    1
   169    44    42   ar
   170   115   116    2
   171    40    37    1
   172    35    33   am
   173    22    23    2
   174    33    32    1
   175    33    34    2
   176    32    31    1
   177    37    36    1
   178    37    38    1
   179    39    38    2
   180    28    27    1
   181    28    31    1
   182    28    29    1
   183    29    30    2
