@<TRIPOS>MOLECULE
tmp/5t3nB00.pdb
 165 158 0 0 0
SMALL
GASTEIGER

@<TRIPOS>ATOM
      1  N         50.9670  100.4690   36.2340 N.3    47  ILE47      -0.1245
      2  CA        50.2940  101.6380   35.6800 C.3    47  ILE47       0.1561
      3  C         49.2940  101.1850   34.6230 C.2    47  ILE47       0.2260
      4  O         49.5930  100.2940   33.8360 O.2    47  ILE47      -0.2867
      5  CB        51.2890  102.6220   35.0660 C.3    47  ILE47       0.0252
      6  CG1       52.0560  103.3670   36.1590 C.3    47  ILE47       0.0019
      7  CG2       50.5740  103.6000   34.1590 C.3    47  ILE47       0.0019
      8  CD1       53.1590  104.2580   35.6240 C.3    47  ILE47       0.0001
      9  N         56.2140   97.6700   29.2950 N.3    66  ALA66      -0.1245
     10  CA        55.2040   98.6590   28.9270 C.3    66  ALA66       0.1562
     11  C         54.5290   98.2990   27.6110 C.2    66  ALA66       0.2260
     12  O         55.2080   97.9080   26.6440 O.2    66  ALA66      -0.2867
     13  CB        55.8320  100.0370   28.8030 C.3    66  ALA66       0.0290
     14  N         50.9940   99.3800   24.8560 N.3    68  LYS68      -0.1245
     15  CA        49.9120  100.2970   24.4780 C.3    68  LYS68       0.1561
     16  C         49.1450   99.6620   23.3070 C.2    68  LYS68       0.2260
     17  O         49.7710   99.2690   22.3190 O.2    68  LYS68      -0.2867
     18  CB        50.4570  101.6730   24.1050 C.3    68  LYS68       0.0271
     19  CG        49.3680  102.6260   23.6940 C.3    68  LYS68       0.0035
     20  CD        49.8880  104.0180   23.4110 C.3    68  LYS68       0.0206
     21  CE        48.7410  104.9030   23.0100 C.3    68  LYS68       0.1093
     22  NZ        47.8040  105.0440   24.1360 N.3    68  LYS68      -0.1314
     23  N         56.0320   98.2100   23.9880 N.3    73  ILE73      -0.1231
     24  CA        56.7780   99.4030   23.5840 C.3    73  ILE73       0.1692
     25  C         58.0690   99.5730   24.3760 C.2    73  ILE73       0.2591
     26  O         58.8760  100.4480   24.0230 O.2    73  ILE73      -0.2718
     27  CB        55.9300  100.6840   23.6930 C.3    73  ILE73       0.0266
     28  CG1       55.5780  100.9820   25.1570 C.3    73  ILE73       0.0019
     29  CG2       54.6770  100.5660   22.8180 C.3    73  ILE73       0.0020
     30  CD1       54.6650  102.1720   25.2990 C.3    73  ILE73       0.0001
     31  N         58.2170   98.8560   25.4960 N.am   74  LYS74      -0.1980
     32  CA        59.4740   98.9630   26.2300 C.3    74  LYS74       0.1596
     33  C         59.5540   97.8820   27.3050 C.2    74  LYS74       0.2287
     34  O         58.5460   97.5640   27.9170 O.2    74  LYS74      -0.2864
     35  CB        59.6570  100.3500   26.8360 C.3    74  LYS74       0.0298
     36  CG        60.8930  100.4350   27.6590 C.3    74  LYS74       0.0038
     37  CD        61.5830  101.6780   27.1470 C.3    74  LYS74       0.0206
     38  CE        62.8360  102.0410   27.8700 C.3    74  LYS74       0.1093
     39  NZ        63.7590  102.6110   26.8420 N.3    74  LYS74      -0.1314
     40  N         61.6820   96.7850   30.8920 N.3    76  TYR76      -0.1241
     41  CA        62.3930   97.4150   32.0150 C.3    76  TYR76       0.1605
     42  C         63.1580   96.4310   32.9230 C.2    76  TYR76       0.2264
     43  O         62.6190   95.3710   33.2680 O.2    76  TYR76      -0.2867
     44  CB        61.3460   98.1470   32.8820 C.3    76  TYR76       0.0534
     45  CG        60.7160   99.3790   32.2470 C.ar   76  TYR76      -0.0201
     46  CD1       61.4640  100.5090   31.9750 C.ar   76  TYR76      -0.0009
     47  CD2       59.3780   99.3700   31.8360 C.ar   76  TYR76      -0.0009
     48  CE1       60.8960  101.6110   31.3930 C.ar   76  TYR76       0.0417
     49  CE2       58.7920  100.4760   31.2250 C.ar   76  TYR76       0.0417
     50  CZ        59.5530  101.5950   31.0000 C.ar   76  TYR76       0.1957
     51  OH        59.0020  102.7210   30.4140 O.3    76  TYR76      -0.2866
     52  N         60.0750  105.0270   34.9360 N.3    82  PHE82      -0.1227
     53  CA        58.8810  105.1890   34.1080 C.3    82  PHE82       0.1736
     54  C         57.8170  105.9270   34.9050 C.2    82  PHE82       0.2596
     55  O         57.9760  106.1560   36.1120 O.2    82  PHE82      -0.2718
     56  CB        58.3300  103.8410   33.6340 C.3    82  PHE82       0.0547
     57  CG        58.1310  102.8340   34.7380 C.ar   82  PHE82      -0.0202
     58  CD1       58.9910  101.7570   34.8680 C.ar   82  PHE82      -0.0042
     59  CD2       57.0330  102.9170   35.5910 C.ar   82  PHE82      -0.0042
     60  CE1       58.8010  100.8100   35.8680 C.ar   82  PHE82      -0.0003
     61  CE2       56.8340  101.9650   36.6090 C.ar   82  PHE82      -0.0003
     62  CZ        57.7240  100.9160   36.7480 C.ar   82  PHE82      -0.0000
     63  N         56.7540  106.3470   34.2290 N.am   83  GLY83      -0.1942
     64  CA        55.6840  107.0550   34.9080 C.3    83  GLY83       0.2014
     65  C         55.8900  108.5420   34.9930 C.2    83  GLY83       0.2639
     66  O         55.1740  109.2290   35.7560 O.2    83  GLY83      -0.2714
     67  N         56.9150  109.0310   34.2810 N.am   84  GLU84      -0.1963
     68  CA        57.2110  110.4590   34.2730 C.3    84  GLU84       0.1733
     69  C         56.3970  111.3370   33.3370 C.2    84  GLU84       0.2616
     70  O         56.2140  112.5270   33.5840 O.2    84  GLU84      -0.2715
     71  CB        58.7000  110.6470   33.9600 C.3    84  GLU84       0.0429
     72  CG        59.0750  110.6750   32.4880 C.3    84  GLU84       0.1163
     73  CD        58.9230  109.3350   31.7630 C.2    84  GLU84       0.3649
     74  OE1       58.5300  108.3190   32.3640 O.co2  84  GLU84      -0.2457
     75  OE2       59.2170  109.2950   30.5640 O.co2  84  GLU84      -0.2457
     76  N         55.9030  110.7550   32.2570 N.am   85  LEU85      -0.1963
     77  CA        55.2820  111.5740   31.2300 C.3    85  LEU85       0.1728
     78  C         53.9810  112.2710   31.6670 C.2    85  LEU85       0.2616
     79  O         53.7460  113.4250   31.3190 O.2    85  LEU85      -0.2715
     80  CB        55.0540  110.7190   29.9960 C.3    85  LEU85       0.0311
     81  CG        54.7410  111.5140   28.7410 C.3    85  LEU85       0.0022
     82  CD1       55.9440  112.3920   28.4280 C.3    85  LEU85       0.0001
     83  CD2       54.4750  110.5630   27.6090 C.3    85  LEU85       0.0001
     84  N         53.1560  111.5640   32.4400 N.am   86  ALA86      -0.1977
     85  CA        51.8850  112.0920   32.9480 C.3    86  ALA86       0.1597
     86  C         52.0560  113.2630   33.9010 C.2    86  ALA86       0.2287
     87  O         51.1800  114.1220   34.0280 O.2    86  ALA86      -0.2864
     88  CB        51.0920  110.9840   33.6260 C.3    86  ALA86       0.0319
     89  N         46.5020  111.9270   31.2980 N.3    92  PRO92      -0.2102
     90  CA        46.3970  110.5250   31.7290 C.3    92  PRO92       0.1504
     91  C         47.6030  109.6480   31.3300 C.2    92  PRO92       0.2576
     92  O         48.3870  110.0530   30.4750 O.2    92  PRO92      -0.2718
     93  CB        45.1170  110.0430   31.0340 C.3    92  PRO92       0.0282
     94  CG        44.3340  111.2830   30.7870 C.3    92  PRO92       0.0208
     95  CD        45.3510  112.3280   30.4740 C.3    92  PRO92       0.0893
     96  N         47.7940  108.5210   32.0140 N.am   93  ARG93      -0.1966
     97  CA        48.8220  107.5630   31.6380 C.3    93  ARG93       0.1729
     98  C         48.7130  107.2060   30.1590 C.2    93  ARG93       0.2616
     99  O         47.6160  106.9310   29.6710 O.2    93  ARG93      -0.2715
    100  CB        48.6960  106.3030   32.4730 C.3    93  ARG93       0.0348
    101  CG        48.7830  106.5920   33.9250 C.3    93  ARG93       0.0492
    102  CD        50.1590  107.1330   34.2330 C.3    93  ARG93       0.2205
    103  NE        50.4540  107.0400   35.6540 N.pl3  93  ARG93      -0.0865
    104  CZ        51.5610  107.5080   36.2190 C.cat  93  ARG93       0.5346
    105  NH1       52.4970  108.0870   35.4640 N.pl3  93  ARG93       0.1354
    106  NH2       51.7260  107.3950   37.5430 N.pl3  93  ARG93       0.1354
    107  N         49.8250  107.2230   29.4380 N.am   94  ALA94      -0.1963
    108  CA        49.7630  107.0240   27.9780 C.3    94  ALA94       0.1728
    109  C         49.8870  105.5450   27.5880 C.2    94  ALA94       0.2616
    110  O         49.6860  105.1720   26.4370 O.2    94  ALA94      -0.2715
    111  CB        50.8370  107.8480   27.2740 C.3    94  ALA94       0.0334
    112  N         50.1960  104.7050   28.5640 N.am   95  ALA95      -0.1977
    113  CA        50.5060  103.3000   28.3250 C.3    95  ALA95       0.1597
    114  C         50.3050  102.4850   29.6190 C.2    95  ALA95       0.2287
    115  O         50.2240  103.0490   30.7250 O.2    95  ALA95      -0.2864
    116  CB        51.9330  103.1550   27.8180 C.3    95  ALA95       0.0319
    117  N         51.8170   99.6540   32.2240 N.3    97  ILE97      -0.1245
    118  CA        53.0360   98.9760   32.6480 C.3    97  ILE97       0.1561
    119  C         52.7410   97.8900   33.6660 C.2    97  ILE97       0.2260
    120  O         52.1810   98.1350   34.7300 O.2    97  ILE97      -0.2867
    121  CB        54.0590   99.9840   33.1820 C.3    97  ILE97       0.0252
    122  CG1       54.4970  100.8470   31.9960 C.3    97  ILE97       0.0019
    123  CG2       55.2730   99.2780   33.7150 C.3    97  ILE97       0.0019
    124  CD1       55.3700  101.9970   32.3160 C.3    97  ILE97       0.0001
    125  N         60.1550  107.8070   22.7480 N.3   131  TYR131     -0.1241
    126  CA        58.8080  107.2640   22.8550 C.3   131  TYR131      0.1605
    127  C         57.9300  107.5210   21.5930 C.2   131  TYR131      0.2264
    128  O         57.2880  106.6100   21.0610 O.2   131  TYR131     -0.2867
    129  CB        58.1150  107.9330   24.0410 C.3   131  TYR131      0.0534
    130  CG        58.7090  107.6560   25.4130 C.ar  131  TYR131     -0.0201
    131  CD1       59.5420  106.5670   25.6610 C.ar  131  TYR131     -0.0009
    132  CD2       58.5130  108.5690   26.4270 C.ar  131  TYR131     -0.0009
    133  CE1       60.0990  106.3700   26.9280 C.ar  131  TYR131      0.0417
    134  CE2       59.0480  108.3940   27.6730 C.ar  131  TYR131      0.0417
    135  CZ        59.8440  107.2990   27.9400 C.ar  131  TYR131      0.1957
    136  OH        60.3660  107.1770   29.2320 O.3   131  TYR131     -0.2866
    137  N         59.1270  105.2830   18.7930 N.3   134  VAL134     -0.1231
    138  CA        58.7000  103.8940   18.9550 C.3   134  VAL134      0.1692
    139  C         57.2320  103.8140   18.5720 C.2   134  VAL134      0.2591
    140  O         56.8110  102.9100   17.8530 O.2   134  VAL134     -0.2718
    141  CB        58.8720  103.3790   20.4160 C.3   134  VAL134      0.0266
    142  CG1       58.2510  102.0130   20.5700 C.3   134  VAL134      0.0020
    143  CG2       60.3280  103.3540   20.8090 C.3   134  VAL134      0.0020
    144  N         56.4560  104.7700   19.0790 N.am  135  LEU135     -0.1980
    145  CA        55.0280  104.8900   18.7910 C.3   135  LEU135      0.1596
    146  C         54.7940  105.0740   17.2940 C.2   135  LEU135      0.2287
    147  O         53.8180  104.5460   16.7450 O.2   135  LEU135     -0.2864
    148  CB        54.3900  106.0390   19.5650 C.3   135  LEU135      0.0297
    149  CG        54.3910  105.9190   21.0760 C.3   135  LEU135      0.0022
    150  CD1       53.7490  107.1650   21.6750 C.3   135  LEU135      0.0001
    151  CD2       53.6900  104.6470   21.5140 C.3   135  LEU135      0.0001
    152  N         49.3430  111.9190   23.0950 N.3   144  CYS144     -0.1221
    153  CA        49.8080  112.2100   24.4340 C.3   144  CYS144      0.1808
    154  C         51.1150  112.9770   24.6900 C.2   144  CYS144      0.2601
    155  O         51.3060  113.5580   25.7560 O.2   144  CYS144     -0.2717
    156  CB        49.9570  110.8610   25.0950 C.3   144  CYS144      0.0970
    157  SG        51.2660  109.9270   24.2270 S.3   144  CYS144     -0.0800
    158  N         52.0130  112.9660   23.7060 N.am  145  ILE145     -0.1979
    159  CA        53.2970  113.7150   23.7620 C.3   145  ILE145      0.1595
    160  C         53.3140  115.2080   23.3080 C.2   145  ILE145      0.2287
    161  O         54.1810  115.9590   23.7370 O.2   145  ILE145     -0.2864
    162  CB        54.4020  112.8280   23.1130 C.3   145  ILE145      0.0276
    163  CG1       54.5220  111.5140   23.9060 C.3   145  ILE145      0.0022
    164  CG2       55.7560  113.5180   23.1550 C.3   145  ILE145      0.0022
    165  CD1       55.6840  110.6200   23.5040 C.3   145  ILE145      0.0001
@<TRIPOS>BOND
     1   147   146    2
     2   146   145    1
     3   140   139    2
     4   139   138    1
     5   139   144   am
     6   145   144    1
     7   145   148    1
     8   137   138    1
     9   138   141    1
    10   148   149    1
    11   141   142    1
    12   141   143    1
    13   128   127    2
    14   149   151    1
    15   149   150    1
    16   127   126    1
    17    17    16    2
    18   125   126    1
    19    29    27    1
    20   126   129    1
    21    21    20    1
    22    21    22    1
    23   152   153    1
    24   162   164    1
    25   162   159    1
    26   162   163    1
    27    16    15    1
    28   160   161    2
    29   160   159    1
    30    20    19    1
    31   165   163    1
    32    24    27    1
    33    24    23    1
    34    24    25    1
    35    27    28    1
    36    19    18    1
    37   158   159    1
    38   158   154   am
    39    26    25    2
    40   129   130    1
    41    18    15    1
    42   157   156    1
    43    25    31   am
    44   153   154    1
    45   153   156    1
    46    15    14    1
    47   154   155    2
    48    28    30    1
    49   130   131   ar
    50   130   132   ar
    51    31    32    1
    52   131   133   ar
    53    32    35    1
    54    32    33    1
    55   132   134   ar
    56   110   109    2
    57    12    11    2
    58    35    36    1
    59    39    38    1
    60   133   135   ar
    61    37    36    1
    62    37    38    1
    63   111   108    1
    64    33    34    2
    65   109   108    1
    66   109   112   am
    67    83    81    1
    68    11    10    1
    69   134   135   ar
    70   116   113    1
    71   135   136    1
    72   108   107    1
    73   113   112    1
    74   113   114    1
    75    82    81    1
    76    81    80    1
    77    13    10    1
    78    10     9    1
    79   107    98   am
    80   114   115    2
    81    99    98    2
    82    80    77    1
    83    98    97    1
    84    51    50    1
    85    95    94    1
    86    95    89    1
    87    92    91    2
    88    75    73   ar
    89    94    93    1
    90    40    41    1
    91    50    49   ar
    92    50    48   ar
    93    93    90    1
    94    49    47   ar
    95    77    78    1
    96    77    76    1
    97    89    90    1
    98    79    78    2
    99    91    90    1
   100    91    96   am
   101    48    46   ar
   102    97    96    1
   103    97   100    1
   104    78    84   am
   105    73    74   ar
   106    73    72    1
   107    47    45   ar
   108    46    45   ar
   109   122   124    1
   110   122   121    1
   111    41    44    1
   112    41    42    1
   113   117   118    1
   114    45    44    1
   115    76    69   am
   116    84    85    1
   117   100   101    1
   118    72    71    1
   119   118   121    1
   120   118   119    1
   121    42    43    2
   122    85    88    1
   123    85    86    1
   124   121   123    1
   125    69    70    2
   126    69    68    1
   127    56    53    1
   128    56    57    1
   129   119   120    2
   130     4     3    2
   131    86    87    2
   132   101   102    1
   133    71    68    1
   134    53    54    1
   135    53    52    1
   136     7     5    1
   137    63    54   am
   138    63    64    1
   139   102   103    1
   140    68    67    1
   141    67    65   am
   142     3     2    1
   143    57    58   ar
   144    57    59   ar
   145    58    60   ar
   146    54    55    2
   147    64    65    1
   148    65    66    2
   149     5     2    1
   150     5     6    1
   151   105   104    1
   152    59    61   ar
   153     8     6    1
   154   103   104    2
   155     2     1    1
   156    60    62   ar
   157   104   106    1
   158    61    62   ar
