@<TRIPOS>MOLECULE
tmp/5t3oA00.pdb
 105 99 0 0 0
SMALL
GASTEIGER

@<TRIPOS>ATOM
      1  N        -10.1070    9.7650   -4.4890 N.3    91  SER91      -0.1202
      2  CA        -9.6860   10.6340   -3.3890 C.3    91  SER91       0.2020
      3  C         -9.2340    9.8710   -2.1510 C.2    91  SER91       0.2618
      4  O         -8.2240   10.2250   -1.5260 O.2    91  SER91      -0.2717
      5  CB       -10.8300   11.5940   -3.0450 C.3    91  SER91       0.2103
      6  OG       -11.9430   10.9180   -2.4670 O.3    91  SER91      -0.2182
      7  N         -9.9580    8.7970   -1.8140 N.am   92  TYR92      -0.1975
      8  CA        -9.5960    7.9560   -0.6610 C.3    92  TYR92       0.1639
      9  C         -8.3000    7.1810   -0.8250 C.2    92  TYR92       0.2290
     10  O         -7.8170    6.6000    0.1370 O.2    92  TYR92      -0.2864
     11  CB       -10.7330    7.0010   -0.2950 C.3    92  TYR92       0.0560
     12  CG       -11.8820    7.6850    0.4010 C.ar   92  TYR92      -0.0198
     13  CD1      -11.8300    7.9450    1.7630 C.ar   92  TYR92      -0.0009
     14  CD2      -13.0250    8.0590   -0.2960 C.ar   92  TYR92      -0.0009
     15  CE1      -12.8800    8.5620    2.4100 C.ar   92  TYR92       0.0417
     16  CE2      -14.0780    8.6720    0.3460 C.ar   92  TYR92       0.0417
     17  CZ       -13.9920    8.9200    1.6990 C.ar   92  TYR92       0.1957
     18  OH       -15.0340    9.5190    2.3500 O.3    92  TYR92      -0.2866
     19  N         -5.6890    8.6240   -0.6470 N.3    94  ARG94      -0.1231
     20  CA        -4.9530    9.2560    0.4700 C.3    94  ARG94       0.1694
     21  C         -5.1060    8.5650    1.8380 C.2    94  ARG94       0.2592
     22  O         -4.2710    8.7670    2.7210 O.2    94  ARG94      -0.2718
     23  CB        -5.3650   10.7250    0.6060 C.3    94  ARG94       0.0321
     24  CG        -5.0130   11.5820   -0.6000 C.3    94  ARG94       0.0489
     25  CD        -5.5490   12.9960   -0.4530 C.3    94  ARG94       0.2205
     26  NE        -4.9280   13.6920    0.6750 N.pl3  94  ARG94      -0.0865
     27  CZ        -5.1680   14.9570    1.0240 C.cat  94  ARG94       0.5346
     28  NH1       -6.0240   15.7080    0.3340 N.pl3  94  ARG94       0.1354
     29  NH2       -4.5460   15.4700    2.0840 N.pl3  94  ARG94       0.1354
     30  N         -6.1700    7.7810    2.0300 N.am   95  SER95      -0.1952
     31  CA        -6.3470    6.9850    3.2580 C.3    95  SER95       0.1924
     32  C         -5.7830    5.5780    3.0440 C.2    95  SER95       0.2314
     33  O         -6.5320    4.5910    2.9720 O.2    95  SER95      -0.2863
     34  CB        -7.8310    6.9250    3.6540 C.3    95  SER95       0.2116
     35  OG        -8.4120    8.2160    3.7260 O.3    95  SER95      -0.2180
     36  N         -2.7300    4.3590    4.8010 N.3    97  LYS97      -0.1245
     37  CA        -1.8410    3.9370    5.8810 C.3    97  LYS97       0.1561
     38  C         -2.6480    3.9530    7.1560 C.2    97  LYS97       0.2260
     39  O         -3.6370    4.6780    7.2680 O.2    97  LYS97      -0.2867
     40  CB        -0.6570    4.9080    6.0730 C.3    97  LYS97       0.0271
     41  CG        -0.0550    5.5130    4.8130 C.3    97  LYS97       0.0035
     42  CD         0.7920    6.7540    5.1160 C.3    97  LYS97       0.0206
     43  CE         0.8350    7.7170    3.9370 C.3    97  LYS97       0.1093
     44  NZ        -0.4350    8.4750    3.7330 N.3    97  LYS97      -0.1314
     45  N         -1.7110    5.4190    9.9910 N.3    99  ASP99      -0.1239
     46  CA        -0.8080    6.3760   10.6630 C.3    99  ASP99       0.1674
     47  C         -1.3080    6.8040   12.0580 C.2    99  ASP99       0.2266
     48  O         -0.5200    7.2890   12.8730 O.2    99  ASP99      -0.2867
     49  CB        -0.4790    7.6020    9.7710 C.3    99  ASP99       0.1410
     50  CG        -1.7170    8.3010    9.2020 C.2    99  ASP99       0.3668
     51  OD1       -2.8520    8.0050    9.6240 O.co2  99  ASP99      -0.2456
     52  OD2       -1.5500    9.1530    8.3050 O.co2  99  ASP99      -0.2456
     53  N         -2.6980    8.3270   -5.4200 N.3   128  HIS128     -0.1241
     54  CA        -1.8330    9.0130   -4.4450 C.3   128  HIS128      0.1621
     55  C         -0.5370    8.2690   -4.1060 C.2   128  HIS128      0.2264
     56  O          0.5090    8.8970   -3.9190 O.2   128  HIS128     -0.2867
     57  CB        -2.6250    9.2920   -3.1550 C.3   128  HIS128      0.0745
     58  CG        -1.8020    9.8790   -2.0500 C.ar  128  HIS128      0.0817
     59  ND1       -1.3880   11.1940   -2.0470 N.ar  128  HIS128     -0.2268
     60  CD2       -1.3020    9.3230   -0.9200 C.ar  128  HIS128      0.1154
     61  CE1       -0.6740   11.4240   -0.9590 C.ar  128  HIS128      0.1986
     62  NE2       -0.6070   10.3050   -0.2590 N.ar  128  HIS128     -0.2212
     63  N          6.3630   17.0820   -2.5720 N.3   168  ASP168     -0.1239
     64  CA         6.3740   15.9510   -1.6390 C.3   168  ASP168      0.1674
     65  C          7.3970   14.8790   -2.0550 C.2   168  ASP168      0.2266
     66  O          7.4980   14.5370   -3.2370 O.2   168  ASP168     -0.2867
     67  CB         4.9570   15.3530   -1.5940 C.3   168  ASP168      0.1410
     68  CG         4.8340   14.1520   -0.6640 C.2   168  ASP168      0.3668
     69  OD1        5.4820   14.1370    0.4050 O.co2 168  ASP168     -0.2456
     70  OD2        4.0640   13.2250   -1.0020 O.co2 168  ASP168     -0.2456
     71  N          7.4110   17.7180    4.3100 N.3   191  LYS191     -0.1231
     72  CA         7.0170   17.9530    5.7160 C.3   191  LYS191      0.1693
     73  C          5.5020   17.7620    5.9680 C.2   191  LYS191      0.2592
     74  O          4.7410   17.4880    5.0370 O.2   191  LYS191     -0.2718
     75  CB         7.4700   19.3590    6.1760 C.3   191  LYS191      0.0285
     76  CG         8.7050   19.4040    7.0800 C.3   191  LYS191      0.0035
     77  CD         9.9000   20.1150    6.4520 C.3   191  LYS191      0.0206
     78  CE        10.9540   20.4640    7.4930 C.3   191  LYS191      0.1093
     79  NZ        10.6330   21.7140    8.2370 N.3   191  LYS191     -0.1314
     80  N          5.0950   17.9080    7.2340 N.am  192  GLU192     -0.1966
     81  CA         3.6860   17.8160    7.6880 C.3   192  GLU192      0.1733
     82  C          3.3330   19.1110    8.4630 C.2   192  GLU192      0.2616
     83  O          4.2560   19.8250    8.8570 O.2   192  GLU192     -0.2715
     84  CB         3.4620   16.5290    8.5190 C.3   192  GLU192      0.0429
     85  CG         4.5400   16.1290    9.5300 C.3   192  GLU192      0.1163
     86  CD         4.5570   16.9780   10.7910 C.2   192  GLU192      0.3649
     87  OE1        3.4860   17.1710   11.4040 O.co2 192  GLU192     -0.2457
     88  OE2        5.6520   17.4310   11.1880 O.co2 192  GLU192     -0.2457
     89  N          2.0590   19.4600    8.7070 N.am  193  ARG193     -0.1977
     90  CA         0.8500   18.6450    8.5140 C.3   193  ARG193      0.1597
     91  C         -0.2790   19.5220    7.9290 C.2   193  ARG193      0.2287
     92  O         -0.6450   20.5320    8.5360 O.2   193  ARG193     -0.2864
     93  CB         0.4280   18.0890    9.8860 C.3   193  ARG193      0.0334
     94  CG        -0.7450   17.1150    9.9340 C.3   193  ARG193      0.0492
     95  CD        -0.5020   15.8060    9.1940 C.3   193  ARG193      0.2205
     96  NE        -1.2140   15.7710    7.9100 N.pl3 193  ARG193     -0.0865
     97  CZ        -0.6650   15.7370    6.6910 C.cat 193  ARG193      0.5346
     98  NH1        0.6540   15.7010    6.5040 N.pl3 193  ARG193      0.1354
     99  NH2       -1.4630   15.7250    5.6240 N.pl3 193  ARG193      0.1354
    100  N         -3.4380   19.0180    7.8450 N.3   195  SER195     -0.1217
    101  CA        -4.5250   19.0710    8.8260 C.3   195  SER195      0.1889
    102  C         -4.0750   19.6290   10.1950 C.2   195  SER195      0.2288
    103  O         -4.5010   19.1160   11.2350 O.2   195  SER195     -0.2866
    104  CB        -5.1180   17.6640    8.9920 C.3   195  SER195      0.2089
    105  OG        -6.3170   17.6890    9.7440 O.3   195  SER195     -0.2183
@<TRIPOS>BOND
     1    53    54    1
     2     1     2    1
     3    54    55    1
     4    54    57    1
     5    55    56    2
     6     2     5    1
     7     2     3    1
     8    66    65    2
     9    57    58    1
    10     5     6    1
    11    63    64    1
    12     3     7   am
    13     3     4    2
    14    65    64    1
    15    58    59   ar
    16    58    60   ar
    17    59    61   ar
    18     7     8    1
    19    64    67    1
    20    67    68    1
    21    70    68   ar
    22    61    62   ar
    23    60    62   ar
    24     9     8    1
    25     9    10    2
    26    68    69   ar
    27     8    11    1
    28    19    20    1
    29    24    25    1
    30    24    23    1
    31    25    26    1
    32    14    16   ar
    33    14    12   ar
    34    11    12    1
    35    28    27    1
    36    16    17   ar
    37    12    13   ar
    38    20    23    1
    39    20    21    1
    40    26    27    2
    41    27    29    1
    42    17    18    1
    43    17    15   ar
    44    13    15   ar
    45    21    30   am
    46    21    22    2
    47    30    31    1
    48    33    32    2
    49    32    31    1
    50    31    34    1
    51    34    35    1
    52    44    43    1
    53    43    42    1
    54    71    72    1
    55    36    37    1
    56    41    42    1
    57    41    40    1
    58    74    73    2
    59    99    97    1
    60    72    73    1
    61    72    75    1
    62    37    40    1
    63    37    38    1
    64    73    80   am
    65    75    76    1
    66    77    76    1
    67    77    78    1
    68    98    97    1
    69    97    96    2
    70    38    39    2
    71    80    81    1
    72    78    79    1
    73    81    82    1
    74    81    84    1
    75   100   101    1
    76    96    95    1
    77    91    90    1
    78    91    92    2
    79    52    50   ar
    80    82    89   am
    81    82    83    2
    82    90    89    1
    83    90    93    1
    84    84    85    1
    85   101   104    1
    86   101   102    1
    87   104   105    1
    88    95    94    1
    89    50    51   ar
    90    50    49    1
    91    85    86    1
    92    49    46    1
    93    93    94    1
    94    45    46    1
    95   102   103    2
    96    46    47    1
    97    86    88   ar
    98    86    87   ar
    99    47    48    2
