@<TRIPOS>MOLECULE
tmp/5t3qA00.pdb
 221 208 0 0 0
SMALL
GASTEIGER

@<TRIPOS>ATOM
      1  N         20.3890  -13.2080   23.1450 N.3    35  ILE35      -0.1231
      2  CA        20.0240  -11.9320   23.7450 C.3    35  ILE35       0.1692
      3  C         18.6540  -11.6040   23.1500 C.2    35  ILE35       0.2592
      4  O         18.5510  -11.2210   21.9810 O.2    35  ILE35      -0.2718
      5  CB        21.0550  -10.8350   23.3850 C.3    35  ILE35       0.0266
      6  CG1       22.4060  -11.1360   24.0470 C.3    35  ILE35       0.0019
      7  CG2       20.5460   -9.4640   23.7930 C.3    35  ILE35       0.0020
      8  CD1       23.5200  -10.1950   23.6580 C.3    35  ILE35       0.0001
      9  N         17.6000  -11.7980   23.9420 N.am   36  GLY36      -0.1957
     10  CA        16.2210  -11.6970   23.4470 C.3    36  GLY36       0.1869
     11  C         15.7340  -10.2680   23.3200 C.2    36  GLY36       0.2309
     12  O         14.6560  -10.0220   22.7800 O.2    36  GLY36      -0.2863
     13  N         15.6970   -7.3010   18.3840 N.3    38  PHE38      -0.1241
     14  CA        16.7690   -6.7230   17.5420 C.3    38  PHE38       0.1605
     15  C         17.3220   -7.7410   16.5270 C.2    38  PHE38       0.2264
     16  O         18.4790   -7.6430   16.1020 O.2    38  PHE38      -0.2867
     17  CB        17.9270   -6.2080   18.4200 C.3    38  PHE38       0.0534
     18  CG        17.7850   -4.7740   18.8450 C.ar   38  PHE38      -0.0203
     19  CD1       18.0050   -3.7410   17.9360 C.ar   38  PHE38      -0.0042
     20  CD2       17.4470   -4.4540   20.1590 C.ar   38  PHE38      -0.0042
     21  CE1       17.8740   -2.4190   18.3290 C.ar   38  PHE38      -0.0003
     22  CE2       17.3180   -3.1310   20.5540 C.ar   38  PHE38      -0.0003
     23  CZ        17.5350   -2.1130   19.6360 C.ar   38  PHE38      -0.0000
     24  N         20.3400  -12.3060   17.9110 N.3    41  VAL41      -0.1245
     25  CA        21.5230  -11.7740   18.6060 C.3    41  VAL41       0.1561
     26  C         21.9990  -12.7670   19.6670 C.2    41  VAL41       0.2260
     27  O         21.2150  -13.2630   20.4770 O.2    41  VAL41      -0.2867
     28  CB        21.2790  -10.3990   19.2520 C.3    41  VAL41       0.0252
     29  CG1       22.5970   -9.7930   19.7420 C.3    41  VAL41       0.0019
     30  CG2       20.5860   -9.4330   18.2730 C.3    41  VAL41       0.0019
     31  N         27.5080   -8.3920   22.0950 N.3    57  ALA57      -0.1245
     32  CA        26.3250   -8.8990   21.4250 C.3    57  ALA57       0.1562
     33  C         26.7300   -9.1360   19.9750 C.2    57  ALA57       0.2260
     34  O         27.4010   -8.3070   19.3650 O.2    57  ALA57      -0.2867
     35  CB        25.1830   -7.8860   21.5070 C.3    57  ALA57       0.0290
     36  N         25.1100  -10.0250   16.4150 N.3    59  LYS59      -0.1245
     37  CA        23.8830  -10.0980   15.6010 C.3    59  LYS59       0.1561
     38  C         24.1410  -10.7930   14.2750 C.2    59  LYS59       0.2260
     39  O         25.0640  -10.4290   13.5400 O.2    59  LYS59      -0.2867
     40  CB        23.3110   -8.7020   15.3320 C.3    59  LYS59       0.0271
     41  CG        22.1570   -8.7090   14.3360 C.3    59  LYS59       0.0035
     42  CD        21.3280   -7.4370   14.3560 C.3    59  LYS59       0.0206
     43  CE        20.1700   -7.5580   13.3740 C.3    59  LYS59       0.1093
     44  NZ        19.4230   -6.2830   13.2170 N.3    59  LYS59      -0.1314
     45  N         23.0710  -11.4280   10.6060 N.3    61  LEU61      -0.1245
     46  CA        22.3090  -10.8210    9.5010 C.3    61  LEU61       0.1561
     47  C         21.8190  -11.8990    8.5330 C.2    61  LEU61       0.2260
     48  O         22.3940  -12.1070    7.4620 O.2    61  LEU61      -0.2867
     49  CB        23.1760   -9.7860    8.7710 C.3    61  LEU61       0.0270
     50  CG        23.7600   -8.6890    9.6760 C.3    61  LEU61       0.0019
     51  CD1       24.4440   -7.6090    8.8520 C.3    61  LEU61       0.0001
     52  CD2       22.6920   -8.0740   10.5570 C.3    61  LEU61       0.0001
     53  N         26.9070   -4.5040    3.1290 N.3    73  PHE73      -0.1241
     54  CA        27.1740   -4.8160    4.5390 C.3    73  PHE73       0.1605
     55  C         28.5790   -4.3900    4.9460 C.2    73  PHE73       0.2264
     56  O         28.7770   -3.8140    6.0150 O.2    73  PHE73      -0.2867
     57  CB        26.9210   -6.3090    4.7990 C.3    73  PHE73       0.0534
     58  CG        27.6380   -6.8660    6.0020 C.ar   73  PHE73      -0.0203
     59  CD1       27.1210   -6.6950    7.2780 C.ar   73  PHE73      -0.0042
     60  CD2       28.8180   -7.5930    5.8510 C.ar   73  PHE73      -0.0042
     61  CE1       27.7720   -7.2230    8.3830 C.ar   73  PHE73      -0.0003
     62  CE2       29.4770   -8.1220    6.9540 C.ar   73  PHE73      -0.0003
     63  CZ        28.9440   -7.9360    8.2180 C.ar   73  PHE73      -0.0000
     64  N         28.6710   -0.4790    5.2170 N.3    76  GLU76      -0.1231
     65  CA        28.0760   -0.0530    6.4820 C.3    76  GLU76       0.1699
     66  C         29.0640   -0.2640    7.6420 C.2    76  GLU76       0.2592
     67  O         29.1700    0.5800    8.5390 O.2    76  GLU76      -0.2718
     68  CB        26.7650   -0.7930    6.7270 C.3    76  GLU76       0.0402
     69  CG        25.6610   -0.3880    5.7590 C.3    76  GLU76       0.1161
     70  CD        24.4710   -1.3300    5.7810 C.2    76  GLU76       0.3649
     71  OE1       24.6140   -2.4880    6.2310 O.co2  76  GLU76      -0.2457
     72  OE2       23.3820   -0.9080    5.3430 O.co2  76  GLU76      -0.2457
     73  N         29.8200   -1.3610    7.5810 N.am   77  GLY77      -0.1957
     74  CA        30.8440   -1.6650    8.5810 C.3    77  GLY77       0.1869
     75  C         31.9490   -0.6290    8.6100 C.2    77  GLY77       0.2309
     76  O         32.3250   -0.1250    9.6750 O.2    77  GLY77      -0.2863
     77  N         31.8170    2.4690    7.5530 N.3    79  ILE79      -0.1231
     78  CA        31.2570    3.7540    8.0170 C.3    79  ILE79       0.1692
     79  C         31.1140    3.7830    9.5380 C.2    79  ILE79       0.2591
     80  O         31.6400    4.6780   10.2150 O.2    79  ILE79      -0.2718
     81  CB        29.8770    4.0110    7.3740 C.3    79  ILE79       0.0266
     82  CG1       30.0440    4.3370    5.8850 C.3    79  ILE79       0.0019
     83  CG2       29.1400    5.1450    8.0720 C.3    79  ILE79       0.0020
     84  CD1       28.7330    4.3190    5.1180 C.3    79  ILE79       0.0001
     85  N         30.4060    2.7920   10.0700 N.am   80  MET80      -0.1979
     86  CA        30.1250    2.7310   11.5060 C.3    80  MET80       0.1605
     87  C         31.4050    2.6390   12.3510 C.2    80  MET80       0.2287
     88  O         31.5070    3.2800   13.3990 O.2    80  MET80      -0.2864
     89  CB        29.1850    1.5660   11.8200 C.3    80  MET80       0.0413
     90  CG        28.6960    1.5660   13.2610 C.3    80  MET80       0.0598
     91  SD        27.4900    0.2770   13.5840 S.3    80  MET80      -0.1393
     92  CE        27.0200    0.6850   15.2660 C.3    80  MET80       0.0692
     93  N         26.5010    4.0050   19.7810 N.3    89  LEU89      -0.1245
     94  CA        26.9410    2.6120   19.9620 C.3    89  LEU89       0.1561
     95  C         28.1320    2.3180   19.0520 C.2    89  LEU89       0.2260
     96  O         28.0930    2.6250   17.8640 O.2    89  LEU89      -0.2867
     97  CB        25.7910    1.6510   19.6390 C.3    89  LEU89       0.0270
     98  CG        25.9850    0.1610   19.9810 C.3    89  LEU89       0.0019
     99  CD1       26.1720   -0.0720   21.4720 C.3    89  LEU89       0.0001
    100  CD2       24.8030   -0.6390   19.4560 C.3    89  LEU89       0.0001
    101  N         30.9360    0.0200   16.9230 N.3    91  LEU91      -0.1245
    102  CA        31.0560   -1.2460   16.2180 C.3    91  LEU91       0.1561
    103  C         32.3890   -1.8730   16.6100 C.2    91  LEU91       0.2260
    104  O         33.4550   -1.3140   16.3510 O.2    91  LEU91      -0.2867
    105  CB        30.9570   -1.0590   14.7110 C.3    91  LEU91       0.0270
    106  CG        31.1210   -2.3170   13.8470 C.3    91  LEU91       0.0019
    107  CD1       29.9960   -3.3290   14.0720 C.3    91  LEU91       0.0001
    108  CD2       31.2070   -1.9050   12.3870 C.3    91  LEU91       0.0001
    109  N         33.0520   -6.7950   12.4440 N.3    94  ILE94      -0.1245
    110  CA        32.1300   -7.6220   11.6950 C.3    94  ILE94       0.1561
    111  C         32.8240   -8.9370   11.3390 C.2    94  ILE94       0.2260
    112  O         34.0590   -9.0010   11.2920 O.2    94  ILE94      -0.2867
    113  CB        31.6310   -6.9270   10.4010 C.3    94  ILE94       0.0252
    114  CG1       32.8010   -6.5540    9.4820 C.3    94  ILE94       0.0019
    115  CG2       30.8070   -5.6840   10.7310 C.3    94  ILE94       0.0019
    116  CD1       32.3350   -6.0380    8.1360 C.3    94  ILE94       0.0001
    117  N         27.5400   -8.9930   13.0520 N.3   104  VAL104     -0.1245
    118  CA        27.9070   -7.6800   13.5490 C.3   104  VAL104      0.1561
    119  C         28.1470   -7.7880   15.0490 C.2   104  VAL104      0.2260
    120  O         27.3320   -8.3640   15.7630 O.2   104  VAL104     -0.2867
    121  CB        26.8000   -6.6370   13.2960 C.3   104  VAL104      0.0252
    122  CG1       27.3090   -5.2660   13.7030 C.3   104  VAL104      0.0019
    123  CG2       26.3850   -6.6370   11.8320 C.3   104  VAL104      0.0019
    124  N         28.8120   -5.8940   18.6610 N.3   106  LEU106     -0.1231
    125  CA        28.5520   -4.6810   19.4270 C.3   106  LEU106      0.1678
    126  C         28.8790   -4.9070   20.8970 C.2   106  LEU106      0.2434
    127  O         28.8080   -6.0440   21.3660 O.2   106  LEU106     -0.2733
    128  CB        27.0690   -4.3280   19.2710 C.3   106  LEU106      0.0284
    129  CG        26.7390   -4.2980   17.7630 C.3   106  LEU106      0.0019
    130  CD1       25.5160   -5.1330   17.4100 C.3   106  LEU106      0.0001
    131  CD2       26.6610   -2.8750   17.2270 C.3   106  LEU106      0.0001
    132  N         29.2720   -3.8440   21.6260 N.am  107  PRO107     -0.2718
    133  CA        29.5070   -3.9970   23.0520 C.3   107  PRO107      0.1535
    134  C         28.1960   -4.3060   23.7480 C.2   107  PRO107      0.2599
    135  O         27.1500   -3.8170   23.3190 O.2   107  PRO107     -0.2715
    136  CB        30.0520   -2.6220   23.4970 C.3   107  PRO107      0.0310
    137  CG        30.3000   -1.8440   22.2520 C.3   107  PRO107      0.0237
    138  CD        29.4590   -2.4520   21.1740 C.3   107  PRO107      0.0939
    139  N         28.2520   -5.1440   24.7780 N.am  108  TYR108     -0.1960
    140  CA        27.0470   -5.5810   25.4830 C.3   108  TYR108      0.1771
    141  C         26.4820   -4.3740   26.2180 C.2   108  TYR108      0.2619
    142  O         27.2260   -3.6080   26.8450 O.2   108  TYR108     -0.2715
    143  CB        27.3790   -6.6960   26.4760 C.3   108  TYR108      0.0574
    144  CG        26.1740   -7.2620   27.1900 C.ar  108  TYR108     -0.0198
    145  CD1       25.2480   -8.0160   26.5030 C.ar  108  TYR108     -0.0009
    146  CD2       25.9590   -7.0330   28.5400 C.ar  108  TYR108     -0.0009
    147  CE1       24.1470   -8.5460   27.1370 C.ar  108  TYR108      0.0417
    148  CE2       24.8490   -7.5630   29.1910 C.ar  108  TYR108      0.0417
    149  CZ        23.9500   -8.3130   28.4750 C.ar  108  TYR108      0.1957
    150  OH        22.8430   -8.8550   29.0730 O.3   108  TYR108     -0.2866
    151  N         25.1770   -4.1830   26.1240 N.am  109  MET109     -0.1963
    152  CA        24.5430   -3.0530   26.7870 C.3   109  MET109      0.1736
    153  C         23.6960   -3.5980   27.9260 C.2   109  MET109      0.2616
    154  O         22.6090   -4.0970   27.6820 O.2   109  MET109     -0.2715
    155  CB        23.6790   -2.3180   25.7790 C.3   109  MET109      0.0427
    156  CG        24.4790   -1.6400   24.6800 C.3   109  MET109      0.0599
    157  SD        25.2860   -0.1590   25.2920 S.3   109  MET109     -0.1393
    158  CE        27.0170   -0.5950   25.0840 C.3   109  MET109      0.0692
    159  N         24.1810   -3.4950   29.1650 N.am  110  LYS110     -0.1977
    160  CA        23.5370   -4.1930   30.3020 C.3   110  LYS110      0.1596
    161  C         22.0420   -3.9250   30.4470 C.2   110  LYS110      0.2287
    162  O         21.2770   -4.8350   30.7630 O.2   110  LYS110     -0.2864
    163  CB        24.2400   -3.8990   31.6420 C.3   110  LYS110      0.0298
    164  CG        23.4750   -4.4070   32.8730 C.3   110  LYS110      0.0038
    165  CD        24.3370   -5.1780   33.8600 C.3   110  LYS110      0.0206
    166  CE        24.5750   -6.6260   33.4190 C.3   110  LYS110      0.1093
    167  NZ        23.5610   -7.5900   33.9530 N.3   110  LYS110     -0.1314
    168  N         19.8120   -2.8740   28.1740 N.3   112  GLY112     -0.1210
    169  CA        18.9650   -3.0520   26.9980 C.3   112  GLY112      0.1956
    170  C         18.6210   -1.7310   26.3280 C.2   112  GLY112      0.2611
    171  O         19.4300   -0.7920   26.3250 O.2   112  GLY112     -0.2717
    172  N         17.4330   -1.6640   25.7390 N.am  113  ASP113     -0.1973
    173  CA        17.0080   -0.4490   25.0530 C.3   113  ASP113      0.1709
    174  C         16.2920    0.5080   26.0050 C.2   113  ASP113      0.2293
    175  O         15.6910    0.0940   26.9910 O.2   113  ASP113     -0.2864
    176  CB        16.1520   -0.7730   23.8320 C.3   113  ASP113      0.1436
    177  CG        14.7760   -1.2560   24.1990 C.2   113  ASP113      0.3671
    178  OD1       13.8820   -0.4070   24.4260 O.co2 113  ASP113     -0.2456
    179  OD2       14.5980   -2.4860   24.2710 O.co2 113  ASP113     -0.2456
    180  N         25.8060   11.9350    8.8050 N.3   149  PHE149     -0.1241
    181  CA        25.0590   10.6830    8.8700 C.3   149  PHE149      0.1605
    182  C         23.5990   10.9440    9.2350 C.2   149  PHE149      0.2264
    183  O         23.3140   11.5500   10.2630 O.2   149  PHE149     -0.2867
    184  CB        25.6980    9.7360    9.8990 C.3   149  PHE149      0.0534
    185  CG        24.9770    8.4210   10.0460 C.ar  149  PHE149     -0.0203
    186  CD1       25.2390    7.3670    9.1740 C.ar  149  PHE149     -0.0042
    187  CD2       24.0380    8.2340   11.0540 C.ar  149  PHE149     -0.0042
    188  CE1       24.5700    6.1550    9.3000 C.ar  149  PHE149     -0.0003
    189  CE2       23.3670    7.0210   11.1880 C.ar  149  PHE149     -0.0003
    190  CZ        23.6290    5.9850   10.3070 C.ar  149  PHE149     -0.0000
    191  N         20.1190    9.4410   10.4590 N.3   151  HIS151     -0.1241
    192  CA        19.7060    8.2590   11.2130 C.3   151  HIS151      0.1621
    193  C         18.5520    7.5290   10.6060 C.2   151  HIS151      0.2264
    194  O         18.6600    6.3320   10.3720 O.2   151  HIS151     -0.2867
    195  CB        19.3820    8.6140   12.6550 C.3   151  HIS151      0.0745
    196  CG        19.2430    7.4140   13.5550 C.ar  151  HIS151      0.0817
    197  ND1       18.2980    6.4720   13.3710 N.ar  151  HIS151     -0.2268
    198  CD2       19.9680    7.0280   14.6700 C.ar  151  HIS151      0.1154
    199  CE1       18.4090    5.5370   14.3230 C.ar  151  HIS151      0.1986
    200  NE2       19.4340    5.8760   15.1190 N.ar  151  HIS151     -0.2212
    201  N         20.3160    2.5030   23.2590 N.3   160  MET160     -0.1245
    202  CA        20.7340    1.4930   24.2360 C.3   160  MET160      0.1570
    203  C         21.2160    2.1570   25.5120 C.2   160  MET160      0.2261
    204  O         21.5060    3.3560   25.5270 O.2   160  MET160     -0.2867
    205  CB        21.8460    0.6050   23.6470 C.3   160  MET160      0.0387
    206  CG        21.5120   -0.0130   22.2930 C.3   160  MET160      0.0595
    207  SD        19.9760   -0.9500   22.3240 S.3   160  MET160     -0.1393
    208  CE        20.4600   -2.3840   23.2880 C.3   160  MET160      0.0692
    209  N         21.6850    3.9340   18.5230 N.3   170  ALA170     -0.1231
    210  CA        21.9340    2.7330   17.7320 C.3   170  ALA170      0.1694
    211  C         20.8780    2.6230   16.6250 C.2   170  ALA170      0.2592
    212  O         19.9580    3.4440   16.5460 O.2   170  ALA170     -0.2718
    213  CB        21.9180    1.4930   18.6210 C.3   170  ALA170      0.0304
    214  N         21.0380    1.6180   15.7660 N.am  171  ASP171     -0.1974
    215  CA        20.2130    1.4280   14.5640 C.3   171  ASP171      0.1709
    216  C         19.9460    2.6570   13.6980 C.2   171  ASP171      0.2293
    217  O         19.3400    2.5400   12.6200 O.2   171  ASP171     -0.2864
    218  CB        18.9050    0.7520   14.9410 C.3   171  ASP171      0.1436
    219  CG        19.0650   -0.7380   15.0930 C.2   171  ASP171      0.3671
    220  OD1       20.1640   -1.2380   14.7950 O.co2 171  ASP171     -0.2456
    221  OD2       18.0940   -1.4090   15.4750 O.co2 171  ASP171     -0.2456
@<TRIPOS>BOND
     1    53    54    1
     2    54    57    1
     3    54    55    1
     4    57    58    1
     5    55    56    2
     6    84    82    1
     7    64    65    1
     8    72    70   ar
     9    69    70    1
    10    69    68    1
    11    70    71   ar
    12    60    58   ar
    13    60    62   ar
    14    82    81    1
    15    58    59   ar
    16    65    68    1
    17    65    66    1
    18    62    63   ar
    19    59    61   ar
    20    81    78    1
    21    81    83    1
    22    48    47    2
    23    77    78    1
    24    73    66   am
    25    73    74    1
    26    66    67    2
    27    78    79    1
    28   116   114    1
    29    63    61   ar
    30    47    46    1
    31    74    75    1
    32    75    76    2
    33    49    46    1
    34    49    50    1
    35   180   181    1
    36    51    50    1
    37   181   182    1
    38   181   184    1
    39   186   188   ar
    40   186   185   ar
    41   182   183    2
    42   188   190   ar
    43   114   113    1
    44    46    45    1
    45    79    85   am
    46    79    80    2
    47    50    52    1
    48   184   185    1
    49   185   187   ar
    50    85    86    1
    51   190   189   ar
    52   194   193    2
    53   113   115    1
    54   113   110    1
    55   191   192    1
    56   193   192    1
    57   187   189   ar
    58   192   195    1
    59   112   111    2
    60   111   110    1
    61    86    89    1
    62    86    87    1
    63   110   109    1
    64    89    90    1
    65   123   121    1
    66    87    88    2
    67   108   106    1
    68   217   216    2
    69   195   196    1
    70   117   118    1
    71    44    43    1
    72    90    91    1
    73   121   118    1
    74   121   122    1
    75   197   196   ar
    76   197   199   ar
    77    43    42    1
    78    39    38    2
    79   118   119    1
    80   196   198   ar
    81    91    92    1
    82   216   215    1
    83   106   107    1
    84   106   105    1
    85    38    37    1
    86   199   200   ar
    87    41    42    1
    88    41    40    1
    89   215   218    1
    90   215   214    1
    91   198   200   ar
    92   105   102    1
    93   220   219   ar
    94   218   219    1
    95   119   120    2
    96   219   221   ar
    97    40    37    1
    98    37    36    1
    99   214   211   am
   100    16    15    2
   101   102   103    1
   102   102   101    1
   103   104   103    2
   104    15    14    1
   105   212   211    2
   106   211   210    1
   107   131   129    1
   108   130   129    1
   109    14    13    1
   110    14    17    1
   111   210   209    1
   112   210   213    1
   113   129   128    1
   114    96    95    2
   115    24    25    1
   116    19    21   ar
   117    19    18   ar
   118    30    28    1
   119    21    23   ar
   120    17    18    1
   121    25    28    1
   122    25    26    1
   123   124   125    1
   124    18    20   ar
   125    95    94    1
   126    28    29    1
   127   128   125    1
   128    34    33    2
   129   125   126    1
   130   100    98    1
   131    23    22   ar
   132    97    94    1
   133    97    98    1
   134    26    27    2
   135    93    94    1
   136    33    32    1
   137    98    99    1
   138    20    22   ar
   139   126   127    2
   140   126   132   am
   141   138   132    1
   142   138   137    1
   143    32    35    1
   144    32    31    1
   145   132   133    1
   146     4     3    2
   147   137   136    1
   148   206   207    1
   149   206   205    1
   150   207   208    1
   151    12    11    2
   152   133   136    1
   153   133   134    1
   154     1     2    1
   155     3     2    1
   156     3     9   am
   157   201   202    1
   158   135   134    2
   159    11    10    1
   160     5     2    1
   161     5     7    1
   162     5     6    1
   163    10     9    1
   164   205   202    1
   165     8     6    1
   166   134   139   am
   167   176   177    1
   168   176   173    1
   169   177   179   ar
   170   177   178   ar
   171   202   203    1
   172   156   157    1
   173   156   155    1
   174   139   140    1
   175   173   172    1
   176   173   174    1
   177   158   157    1
   178   140   141    1
   179   140   143    1
   180   203   204    2
   181   172   170   am
   182   155   152    1
   183   174   175    2
   184   151   141   am
   185   151   152    1
   186   141   142    2
   187   171   170    2
   188   170   169    1
   189   143   144    1
   190   145   147   ar
   191   145   144   ar
   192   152   153    1
   193   169   168    1
   194   147   149   ar
   195   144   146   ar
   196   154   153    2
   197   153   159   am
   198   149   150    1
   199   149   148   ar
   200   146   148   ar
   201   159   160    1
   202   160   161    1
   203   160   163    1
   204   161   162    2
   205   163   164    1
   206   164   165    1
   207   166   165    1
   208   166   167    1
