@<TRIPOS>MOLECULE
tmp/5t45A00.pdb
 194 183 0 0 0
SMALL
GASTEIGER

@<TRIPOS>ATOM
      1  N        -41.0560   11.7930  -11.3280 N.3    56  ASP56      -0.1225
      2  CA       -41.9690   12.9230  -11.4530 C.3    56  ASP56       0.1805
      3  C        -42.6620   13.0700  -10.1080 C.2    56  ASP56       0.2598
      4  O        -43.4350   12.1950   -9.7210 O.2    56  ASP56      -0.2718
      5  CB       -42.9960   12.6970  -12.5760 C.3    56  ASP56       0.1424
      6  CG       -43.8000   13.9240  -12.9960 C.2    56  ASP56       0.3668
      7  OD1      -43.6280   15.0030  -12.3700 O.co2  56  ASP56      -0.2456
      8  OD2      -44.6080   13.8050  -13.9490 O.co2  56  ASP56      -0.2456
      9  N        -42.3690   14.1790   -9.3990 N.am   57  MET57      -0.1965
     10  CA       -42.9040   14.4910   -8.0780 C.3    57  MET57       0.1736
     11  C        -44.3990   14.8260   -8.0580 C.2    57  MET57       0.2616
     12  O        -44.9860   14.9010   -6.9690 O.2    57  MET57      -0.2715
     13  CB       -42.0870   15.5850   -7.4090 C.3    57  MET57       0.0427
     14  CG       -40.6910   15.1440   -7.0960 C.3    57  MET57       0.0599
     15  SD       -39.8460   16.3790   -6.1300 S.3    57  MET57      -0.1393
     16  CE       -39.2960   17.5250   -7.4430 C.3    57  MET57       0.0692
     17  N        -45.0320   14.9640   -9.2480 N.am   58  ALA58      -0.1977
     18  CA       -46.4820   15.1740   -9.3740 C.3    58  ALA58       0.1597
     19  C        -47.2170   13.8690   -8.9680 C.2    58  ALA58       0.2287
     20  O        -48.4090   13.9050   -8.6180 O.2    58  ALA58      -0.2864
     21  CB       -46.8340   15.5570  -10.8050 C.3    58  ALA58       0.0319
     22  N        -48.1750   15.8130   -1.1220 N.3    63  LEU63      -0.1245
     23  CA       -47.3430   16.8700   -1.6750 C.3    63  LEU63       0.1561
     24  C        -47.0020   17.9000   -0.5850 C.2    63  LEU63       0.2260
     25  O        -47.8720   18.6700   -0.1460 O.2    63  LEU63      -0.2867
     26  CB       -48.0920   17.5240   -2.8460 C.3    63  LEU63       0.0270
     27  CG       -47.4490   18.7350   -3.5010 C.3    63  LEU63       0.0019
     28  CD1      -46.1480   18.3660   -4.2040 C.3    63  LEU63       0.0001
     29  CD2      -48.4090   19.3980   -4.4410 C.3    63  LEU63       0.0001
     30  N        -40.9150   16.6430   -1.0470 N.3    68  VAL68      -0.1245
     31  CA       -40.2040   17.1020   -2.2510 C.3    68  VAL68       0.1561
     32  C        -38.7070   17.1510   -1.9820 C.2    68  VAL68       0.2260
     33  O        -37.9580   16.4800   -2.6850 O.2    68  VAL68      -0.2867
     34  CB       -40.7590   18.4310   -2.8260 C.3    68  VAL68       0.0252
     35  CG1      -39.7670   19.0990   -3.7660 C.3    68  VAL68       0.0019
     36  CG2      -42.0900   18.2090   -3.5240 C.3    68  VAL68       0.0019
     37  N        -40.8960   17.9650  -11.7610 N.3    85  SER85      -0.1202
     38  CA       -41.7320   18.4790  -10.6830 C.3    85  SER85       0.2020
     39  C        -43.1090   18.8710  -11.2490 C.2    85  SER85       0.2619
     40  O        -43.5520   20.0200  -11.1040 O.2    85  SER85      -0.2717
     41  CB       -41.0350   19.6580  -10.0150 C.3    85  SER85       0.2103
     42  OG       -41.7830   20.1710   -8.9290 O.3    85  SER85      -0.2182
     43  N        -43.7510   17.9060  -11.9190 N.am   86  GLY86      -0.1942
     44  CA       -45.0550   18.0840  -12.5470 C.3    86  GLY86       0.2014
     45  C        -45.0170   18.7780  -13.8910 C.2    86  GLY86       0.2639
     46  O        -44.9850   18.1120  -14.9290 O.2    86  GLY86      -0.2714
     47  N        -45.0670   20.1240  -13.8800 N.am   87  LEU87      -0.1963
     48  CA       -45.0750   20.9640  -15.0940 C.3    87  LEU87       0.1728
     49  C        -43.7020   21.5860  -15.4150 C.2    87  LEU87       0.2616
     50  O        -43.5640   22.2620  -16.4350 O.2    87  LEU87      -0.2715
     51  CB       -46.1470   22.0830  -15.0130 C.3    87  LEU87       0.0311
     52  CG       -47.6130   21.7230  -14.7360 C.3    87  LEU87       0.0022
     53  CD1      -48.4430   22.9730  -14.6370 C.3    87  LEU87       0.0001
     54  CD2      -48.2050   20.8040  -15.8090 C.3    87  LEU87       0.0001
     55  N        -42.7090   21.3900  -14.5340 N.am   88  PHE88      -0.1974
     56  CA       -41.3720   21.9220  -14.7270 C.3    88  PHE88       0.1639
     57  C        -40.2930   20.9360  -14.2610 C.2    88  PHE88       0.2290
     58  O        -40.6260   19.8930  -13.7030 O.2    88  PHE88      -0.2864
     59  CB       -41.2300   23.3170  -14.0950 C.3    88  PHE88       0.0560
     60  CG       -41.3900   23.3790  -12.6010 C.ar   88  PHE88      -0.0200
     61  CD1      -40.3460   23.0140  -11.7560 C.ar   88  PHE88      -0.0042
     62  CD2      -42.5470   23.8800  -12.0350 C.ar   88  PHE88      -0.0042
     63  CE1      -40.4790   23.1010  -10.3720 C.ar   88  PHE88      -0.0003
     64  CE2      -42.6710   23.9890  -10.6480 C.ar   88  PHE88      -0.0003
     65  CZ       -41.6440   23.5800   -9.8240 C.ar   88  PHE88      -0.0000
     66  N        -43.2580   32.4550  -15.5770 N.3   446  PHE446     -0.1227
     67  CA       -43.4300   31.1220  -15.0290 C.3   446  PHE446      0.1736
     68  C        -44.7850   31.0220  -14.2890 C.2   446  PHE446      0.2595
     69  O        -45.6350   30.2150  -14.6860 O.2   446  PHE446     -0.2718
     70  CB       -42.2510   30.7630  -14.1220 C.3   446  PHE446      0.0547
     71  CG       -42.5690   29.6360  -13.1790 C.ar  446  PHE446     -0.0202
     72  CD1      -42.5570   28.3190  -13.6180 C.ar  446  PHE446     -0.0042
     73  CD2      -42.9430   29.8920  -11.8650 C.ar  446  PHE446     -0.0042
     74  CE1      -42.9070   27.2770  -12.7550 C.ar  446  PHE446     -0.0003
     75  CE2      -43.3270   28.8590  -11.0190 C.ar  446  PHE446     -0.0003
     76  CZ       -43.2950   27.5560  -11.4630 C.ar  446  PHE446     -0.0000
     77  N        -45.0090   31.8870  -13.2710 N.am  447  ASN447     -0.1974
     78  CA       -46.2400   31.9240  -12.4710 C.3   447  ASN447      0.1688
     79  C        -47.4970   31.9290  -13.3490 C.2   447  ASN447      0.2292
     80  O        -48.3910   31.1110  -13.1340 O.2   447  ASN447     -0.2864
     81  CB       -46.2480   33.1370  -11.5230 C.3   447  ASN447      0.1181
     82  CG       -45.5080   32.9840  -10.2270 C.2   447  ASN447      0.2629
     83  OD1      -44.5650   32.1860  -10.0930 O.2   447  ASN447     -0.2716
     84  ND2      -45.8930   33.7980   -9.2480 N.am  447  ASN447     -0.0877
     85  N        -47.9210   28.4740  -15.4890 N.3   450  MET450     -0.1245
     86  CA       -48.5460   27.4260  -14.6610 C.3   450  MET450      0.1570
     87  C        -50.0440   27.7050  -14.5160 C.2   450  MET450      0.2261
     88  O        -50.8340   26.7760  -14.5920 O.2   450  MET450     -0.2867
     89  CB       -47.9150   27.3630  -13.2600 C.3   450  MET450      0.0387
     90  CG       -46.4240   27.1940  -13.2600 C.3   450  MET450      0.0595
     91  SD       -45.8580   25.4950  -13.5130 S.3   450  MET450     -0.1393
     92  CE       -45.2060   25.6260  -15.1530 C.3   450  MET450      0.0692
     93  N        -53.0410   25.1610  -15.9080 N.3   454  GLU454     -0.1245
     94  CA       -54.0640   24.7310  -14.9570 C.3   454  GLU454      0.1567
     95  C        -55.4500   25.1840  -15.3420 C.2   454  GLU454      0.2260
     96  O        -56.3610   24.3620  -15.3250 O.2   454  GLU454     -0.2867
     97  CB       -53.7200   25.1520  -13.5230 C.3   454  GLU454      0.0388
     98  CG       -52.6210   24.3180  -12.8900 C.3   454  GLU454      0.1160
     99  CD       -52.8990   22.8290  -12.8280 C.2   454  GLU454      0.3649
    100  OE1      -53.3050   22.3570  -11.7420 O.co2 454  GLU454     -0.2457
    101  OE2      -52.6800   22.1310  -13.8480 O.co2 454  GLU454     -0.2457
    102  N        -56.4630   22.9620  -18.0890 N.3   457  GLU457     -0.1245
    103  CA       -56.6970   21.5960  -17.5860 C.3   457  GLU457      0.1567
    104  C        -58.0390   21.4830  -16.8410 C.2   457  GLU457      0.2260
    105  O        -58.8100   20.5480  -17.0950 O.2   457  GLU457     -0.2867
    106  CB       -55.5010   21.1000  -16.7290 C.3   457  GLU457      0.0388
    107  CG       -55.6700   19.7330  -16.0610 C.3   457  GLU457      0.1160
    108  CD       -55.6920   18.4720  -16.9120 C.2   457  GLU457      0.3649
    109  OE1      -55.5440   18.5650  -18.1520 O.co2 457  GLU457     -0.2457
    110  OE2      -55.8390   17.3760  -16.3240 O.co2 457  GLU457     -0.2457
    111  N        -51.6590   34.1420  -11.4600 N.3   470  PHE470     -0.1241
    112  CA       -50.5950   33.9680  -10.4580 C.3   470  PHE470      0.1605
    113  C        -49.4500   34.9260  -10.7160 C.2   470  PHE470      0.2264
    114  O        -48.6830   35.2270   -9.8010 O.2   470  PHE470     -0.2867
    115  CB       -50.0730   32.5230  -10.4140 C.3   470  PHE470      0.0534
    116  CG       -51.0620   31.4310  -10.0750 C.ar  470  PHE470     -0.0203
    117  CD1      -52.1710   31.6930   -9.2800 C.ar  470  PHE470     -0.0042
    118  CD2      -50.8590   30.1290  -10.5140 C.ar  470  PHE470     -0.0042
    119  CE1      -53.0830   30.6850   -8.9790 C.ar  470  PHE470     -0.0003
    120  CE2      -51.7740   29.1200  -10.2060 C.ar  470  PHE470     -0.0003
    121  CZ       -52.8790   29.4050   -9.4460 C.ar  470  PHE470     -0.0000
    122  N        -40.1130   29.5490   -6.8520 N.3   630  GLY630     -0.1210
    123  CA       -41.5630   29.4930   -6.9330 C.3   630  GLY630      0.1956
    124  C        -42.0880   28.1210   -6.5750 C.2   630  GLY630      0.2611
    125  O        -43.2840   27.9800   -6.3440 O.2   630  GLY630     -0.2717
    126  N        -41.1830   27.1080   -6.4980 N.am  631  VAL631     -0.1979
    127  CA       -41.4560   25.7030   -6.1480 C.3   631  VAL631      0.1595
    128  C        -42.2700   25.5950   -4.8550 C.2   631  VAL631      0.2287
    129  O        -43.2640   24.8580   -4.8340 O.2   631  VAL631     -0.2864
    130  CB       -40.1560   24.8570   -6.0550 C.3   631  VAL631      0.0276
    131  CG1      -40.4280   23.4370   -5.5500 C.3   631  VAL631      0.0022
    132  CG2      -39.4080   24.8360   -7.3760 C.3   631  VAL631      0.0022
    133  N        -44.0970   28.0260   -3.3420 N.3   633  GLU633     -0.1231
    134  CA       -45.4110   28.6670   -3.5510 C.3   633  GLU633      0.1699
    135  C        -46.3190   27.6630   -4.3200 C.2   633  GLU633      0.2593
    136  O        -47.4940   27.5130   -3.9830 O.2   633  GLU633     -0.2718
    137  CB       -45.2780   29.9750   -4.3400 C.3   633  GLU633      0.0402
    138  CG       -46.5550   30.7960   -4.3650 C.3   633  GLU633      0.1161
    139  CD       -46.8520   31.5930   -5.6220 C.2   633  GLU633      0.3649
    140  OE1      -45.9160   31.8140   -6.4250 O.co2 633  GLU633     -0.2457
    141  OE2      -48.0230   32.0060   -5.8010 O.co2 633  GLU633     -0.2457
    142  N        -45.7370   26.9570   -5.2950 N.am  634  GLY634     -0.1942
    143  CA       -46.4010   25.9180   -6.0640 C.3   634  GLY634      0.2014
    144  C        -46.9070   24.7940   -5.1980 C.2   634  GLY634      0.2638
    145  O        -48.0800   24.4330   -5.2920 O.2   634  GLY634     -0.2714
    146  N        -46.0330   24.2490   -4.3310 N.am  635  ILE635     -0.1977
    147  CA       -46.3990   23.1830   -3.3900 C.3   635  ILE635      0.1596
    148  C        -47.6460   23.6290   -2.5910 C.2   635  ILE635      0.2287
    149  O        -48.6270   22.8820   -2.5500 O.2   635  ILE635     -0.2864
    150  CB       -45.2080   22.7720   -2.4820 C.3   635  ILE635      0.0276
    151  CG1      -44.1360   22.0190   -3.2910 C.3   635  ILE635      0.0022
    152  CG2      -45.6890   21.9310   -1.2900 C.3   635  ILE635      0.0022
    153  CD1      -42.7240   21.9770   -2.6170 C.3   635  ILE635      0.0001
    154  N        -50.0140   26.1920   -3.3500 N.3   637  ILE637     -0.1231
    155  CA       -51.1810   26.3310   -4.2480 C.3   637  ILE637      0.1692
    156  C        -51.8150   24.9560   -4.5840 C.2   637  ILE637      0.2592
    157  O        -53.0380   24.8250   -4.4880 O.2   637  ILE637     -0.2718
    158  CB       -50.8890   27.1880   -5.5370 C.3   637  ILE637      0.0266
    159  CG1      -50.3150   28.5890   -5.2120 C.3   637  ILE637      0.0019
    160  CG2      -52.1190   27.3160   -6.4600 C.3   637  ILE637      0.0020
    161  CD1      -51.3000   29.6530   -4.5410 C.3   637  ILE637      0.0001
    162  N        -50.9930   23.9410   -4.9480 N.am  638  CYS638     -0.1970
    163  CA       -51.4930   22.5930   -5.2730 C.3   638  CYS638      0.1712
    164  C        -51.9990   21.8300   -4.0340 C.2   638  CYS638      0.2296
    165  O        -52.7920   20.8970   -4.1810 O.2   638  CYS638     -0.2864
    166  CB       -50.4800   21.7670   -6.0660 C.3   638  CYS638      0.0983
    167  SG       -49.7650   22.6070   -7.5020 S.3   638  CYS638     -0.0798
    168  N        -54.1870   18.1550   -5.9460 N.3   643  PRO643     -0.2116
    169  CA       -52.8780   17.7780   -6.5140 C.3   643  PRO643      0.1372
    170  C        -52.8320   16.4670   -7.2980 C.2   643  PRO643      0.2244
    171  O        -52.0480   16.3560   -8.2490 O.2   643  PRO643     -0.2868
    172  CB       -51.9540   17.7450   -5.2990 C.3   643  PRO643      0.0268
    173  CG       -52.8470   17.4720   -4.1580 C.3   643  PRO643      0.0207
    174  CD       -54.2100   17.9970   -4.4760 C.3   643  PRO643      0.0892
    175  N        -54.5790   13.7090   -9.7540 N.3   645  ARG645     -0.1245
    176  CA       -55.5750   13.4850  -10.8000 C.3   645  ARG645      0.1563
    177  C        -55.2740   12.1490  -11.5040 C.2   645  ARG645      0.2260
    178  O        -54.2010   11.9970  -12.0900 O.2   645  ARG645     -0.2867
    179  CB       -55.5910   14.6720  -11.7900 C.3   645  ARG645      0.0307
    180  CG       -55.8510   16.0120  -11.1120 C.3   645  ARG645      0.0489
    181  CD       -54.9530   17.0990  -11.6430 C.3   645  ARG645      0.2205
    182  NE       -54.9380   18.2520  -10.7430 N.pl3 645  ARG645     -0.0865
    183  CZ       -54.4330   19.4450  -11.0490 C.cat 645  ARG645      0.5346
    184  NH1      -53.9100   19.6640  -12.2500 N.pl3 645  ARG645      0.1354
    185  NH2      -54.4600   20.4300  -10.1610 N.pl3 645  ARG645      0.1354
    186  N        -60.2770   12.2190  -15.9440 N.3   694  LYS694     -0.1245
    187  CA       -59.5050   12.0010  -14.7170 C.3   694  LYS694      0.1561
    188  C        -60.3340   12.4230  -13.5040 C.2   694  LYS694      0.2260
    189  O        -61.1480   13.3410  -13.6170 O.2   694  LYS694     -0.2867
    190  CB       -58.2180   12.8470  -14.7350 C.3   694  LYS694      0.0271
    191  CG       -57.3940   12.7870  -16.0130 C.3   694  LYS694      0.0035
    192  CD       -56.5050   14.0200  -16.1670 C.3   694  LYS694      0.0206
    193  CE       -55.4190   13.8250  -17.2010 C.3   694  LYS694      0.1093
    194  NZ       -54.5420   15.0190  -17.3250 N.3   694  LYS694     -0.1314
@<TRIPOS>BOND
     1   109   108   ar
     2   102   103    1
     3   103   104    1
     4   103   106    1
     5   194   193    1
     6   193   192    1
     7   105   104    2
     8   108   110   ar
     9   108   107    1
    10   106   107    1
    11    50    49    2
    12   192   191    1
    13   191   190    1
    14   186   187    1
    15    93    94    1
    16    54    52    1
    17    66    67    1
    18    85    86    1
    19    49    48    1
    20    49    55   am
    21    95    96    2
    22    95    94    1
    23    92    91    1
    24    48    51    1
    25    48    47    1
    26    67    68    1
    27    67    70    1
    28    51    52    1
    29    94    97    1
    30    46    45    2
    31    52    53    1
    32   190   187    1
    33    56    55    1
    34    56    57    1
    35    56    59    1
    36   187   188    1
    37    69    68    2
    38    86    87    1
    39    86    89    1
    40    88    87    2
    41    68    77   am
    42    57    58    2
    43    70    71    1
    44    59    60    1
    45     8     6   ar
    46    45    47   am
    47    45    44    1
    48   101    99   ar
    49    72    71   ar
    50    72    74   ar
    51   189   188    2
    52    97    98    1
    53    91    90    1
    54    79    80    2
    55    79    78    1
    56    77    78    1
    57    89    90    1
    58    71    73   ar
    59     6     5    1
    60     6     7   ar
    61    98    99    1
    62    99   100   ar
    63    74    76   ar
    64    60    62   ar
    65    60    61   ar
    66     5     2    1
    67    44    43    1
    68    78    81    1
    69   184   183    1
    70   178   177    2
    71    62    64   ar
    72    43    39   am
    73    73    75   ar
    74   179   180    1
    75   179   176    1
    76    37    38    1
    77    61    63   ar
    78   181   180    1
    79   181   182    1
    80    81    82    1
    81   177   176    1
    82    76    75   ar
    83   111   112    1
    84     2     1    1
    85     2     3    1
    86    39    40    2
    87    39    38    1
    88   183   182    2
    89   183   185    1
    90    21    18    1
    91   176   175    1
    92   113   112    1
    93   113   114    2
    94    38    41    1
    95    64    65   ar
    96   118   120   ar
    97   118   116   ar
    98   112   115    1
    99   115   116    1
   100    63    65   ar
   101    82    83    2
   102    82    84   am
   103   120   121   ar
   104     3     4    2
   105     3     9   am
   106   116   117   ar
   107    41    42    1
   108   121   119   ar
   109     9    10    1
   110    18    17    1
   111    18    19    1
   112   117   119   ar
   113    17    11   am
   114    19    20    2
   115   171   170    2
   116    10    11    1
   117    10    13    1
   118    11    12    2
   119   167   166    1
   120    16    15    1
   121    13    14    1
   122   132   130    1
   123   170   169    1
   124    14    15    1
   125   123   122    1
   126   123   124    1
   127   124   126   am
   128   124   125    2
   129   169   168    1
   130   169   172    1
   131   126   127    1
   132   160   158    1
   133   140   139   ar
   134   127   130    1
   135   127   128    1
   136   166   163    1
   137   143   142    1
   138   143   144    1
   139   130   131    1
   140   168   174    1
   141   141   139   ar
   142   139   138    1
   143   158   159    1
   144   158   155    1
   145   172   173    1
   146   142   135   am
   147   145   144    2
   148   163   162    1
   149   163   164    1
   150   159   161    1
   151   144   146   am
   152   162   156   am
   153   128   129    2
   154   156   157    2
   155   156   155    1
   156   174   173    1
   157    29    27    1
   158   138   137    1
   159   137   134    1
   160   146   147    1
   161   135   136    2
   162   135   134    1
   163   155   154    1
   164    28    27    1
   165   165   164    2
   166    35    34    1
   167   134   133    1
   168    36    34    1
   169    27    26    1
   170   147   148    1
   171   147   150    1
   172   151   153    1
   173   151   150    1
   174    26    23    1
   175    34    31    1
   176    33    32    2
   177   148   149    2
   178   150   152    1
   179    31    32    1
   180    31    30    1
   181    23    22    1
   182    23    24    1
   183    24    25    2
