@<TRIPOS>MOLECULE
tmp/5t48A00.pdb
 140 138 0 0 0
SMALL
GASTEIGER

@<TRIPOS>ATOM
      1  N          6.4770   -6.3480   11.7340 N.3    24  TRP24      -0.1227
      2  CA         5.2330   -6.5330   12.4730 C.3    24  TRP24       0.1737
      3  C          5.1950   -7.8940   13.1550 C.2    24  TRP24       0.2595
      4  O          4.8020   -8.0010   14.3230 O.2    24  TRP24      -0.2718
      5  CB         4.0340   -6.3700   11.5410 C.3    24  TRP24       0.0564
      6  CG         2.7250   -6.5360   12.2480 C.ar   24  TRP24       0.0003
      7  CD1        2.0100   -5.5680   12.8870 C.ar   24  TRP24       0.0946
      8  CD2        1.9790   -7.7480   12.3930 C.ar   24  TRP24       0.0152
      9  NE1        0.8610   -6.1000   13.4170 N.ar   24  TRP24      -0.2442
     10  CE2        0.8180   -7.4390   13.1280 C.ar   24  TRP24       0.0810
     11  CE3        2.1780   -9.0650   11.9690 C.ar   24  TRP24       0.0012
     12  CZ2       -0.1380   -8.3980   13.4510 C.ar   24  TRP24       0.0191
     13  CZ3        1.2300  -10.0150   12.2900 C.ar   24  TRP24       0.0001
     14  CH2        0.0850   -9.6780   13.0230 C.ar   24  TRP24       0.0015
     15  N          5.6030   -8.9470   12.4430 N.am   25  GLU25      -0.1979
     16  CA         5.6380  -10.2770   13.0420 C.3    25  GLU25       0.1602
     17  C          6.4800  -10.2860   14.3110 C.2    25  GLU25       0.2287
     18  O          6.0790  -10.8670   15.3270 O.2    25  GLU25      -0.2864
     19  CB         6.1820  -11.2920   12.0360 C.3    25  GLU25       0.0415
     20  CG         6.4370  -12.6750   12.6250 C.3    25  GLU25       0.1163
     21  CD         6.9130  -13.6750   11.5900 C.2    25  GLU25       0.3649
     22  OE1        7.2330  -13.2550   10.4560 O.co2  25  GLU25      -0.2457
     23  OE2        6.9660  -14.8800   11.9160 O.co2  25  GLU25      -0.2457
     24  N         -1.4630   -4.8560   20.9630 N.3    58  ASP58      -0.1239
     25  CA        -2.5520   -5.8080   20.8140 C.3    58  ASP58       0.1674
     26  C         -2.4520   -6.8870   21.8830 C.2    58  ASP58       0.2266
     27  O         -1.3630   -7.2180   22.3580 O.2    58  ASP58      -0.2867
     28  CB        -2.5370   -6.5030   19.4500 C.3    58  ASP58       0.1410
     29  CG        -2.5010   -5.5380   18.2910 C.2    58  ASP58       0.3668
     30  OD1       -2.9090   -4.3670   18.4490 O.co2  58  ASP58      -0.2456
     31  OD2       -2.0660   -5.9710   17.2080 O.co2  58  ASP58      -0.2456
     32  N         -1.3120  -15.2690   15.2860 N.3    68  PRO68      -0.2102
     33  CA        -2.3380  -14.2240   15.1150 C.3    68  PRO68       0.1504
     34  C         -2.0650  -13.3220   13.9140 C.2    68  PRO68       0.2576
     35  O         -1.9400  -12.1000   14.0340 O.2    68  PRO68      -0.2718
     36  CB        -2.2510  -13.4710   16.4470 C.3    68  PRO68       0.0282
     37  CG        -0.8110  -13.5690   16.8160 C.3    68  PRO68       0.0208
     38  CD        -0.3600  -14.9310   16.3590 C.3    68  PRO68       0.0893
     39  N         -1.9820  -13.9260   12.7290 N.am   69  MET69      -0.1966
     40  CA        -1.6130  -13.1730   11.5400 C.3    69  MET69       0.1736
     41  C         -2.2610  -13.7850   10.3080 C.2    69  MET69       0.2616
     42  O         -2.6510  -14.9560   10.2940 O.2    69  MET69      -0.2715
     43  CB        -0.0920  -13.1160   11.3700 C.3    69  MET69       0.0427
     44  CG         0.5910  -14.4750   11.3630 C.3    69  MET69       0.0599
     45  SD         2.3890  -14.3400   11.4390 S.3    69  MET69      -0.1393
     46  CE         2.6090  -13.5980   13.0580 C.3    69  MET69       0.0692
     47  N         -2.3640  -12.9610    9.2630 N.am   70  TRP70      -0.1960
     48  CA        -2.9700  -13.4040    8.0130 C.3    70  TRP70       0.1771
     49  C         -2.1990  -14.5700    7.4080 C.2    70  TRP70       0.2619
     50  O         -2.7980  -15.4950    6.8480 O.2    70  TRP70      -0.2715
     51  CB        -3.0230  -12.2430    7.0170 C.3    70  TRP70       0.0590
     52  CG        -3.6530  -10.9950    7.5530 C.ar   70  TRP70       0.0006
     53  CD1       -4.7720  -10.9060    8.3280 C.ar   70  TRP70       0.0946
     54  CD2       -3.1910   -9.6530    7.3600 C.ar   70  TRP70       0.0152
     55  NE1       -5.0390   -9.5900    8.6260 N.ar   70  TRP70      -0.2442
     56  CE2       -4.0820   -8.8020    8.0430 C.ar   70  TRP70       0.0810
     57  CE3       -2.1110   -9.0890    6.6740 C.ar   70  TRP70       0.0012
     58  CZ2       -3.9270   -7.4170    8.0590 C.ar   70  TRP70       0.0191
     59  CZ3       -1.9590   -7.7130    6.6920 C.ar   70  TRP70       0.0001
     60  CH2       -2.8620   -6.8940    7.3790 C.ar   70  TRP70       0.0015
     61  N         -0.8670  -14.5460    7.5150 N.am   71  GLU71      -0.1977
     62  CA        -0.0450  -15.5120    6.7940 C.3    71  GLU71       0.1602
     63  C         -0.3030  -16.9400    7.2540 C.2    71  GLU71       0.2287
     64  O         -0.1330  -17.8800    6.4690 O.2    71  GLU71      -0.2864
     65  CB         1.4390  -15.1760    6.9570 C.3    71  GLU71       0.0415
     66  CG         1.8600  -13.8520    6.3350 C.3    71  GLU71       0.1163
     67  CD         1.5500  -12.6660    7.2250 C.2    71  GLU71       0.3649
     68  OE1        0.7670  -12.8320    8.1820 O.co2  71  GLU71      -0.2457
     69  OE2        2.0880  -11.5700    6.9700 O.co2  71  GLU71      -0.2457
     70  N        -12.5560  -11.9330    9.8670 N.3    80  ARG80      -0.1245
     71  CA       -12.6730  -11.5210   11.2590 C.3    80  ARG80       0.1563
     72  C        -13.9590  -10.7400   11.4750 C.2    80  ARG80       0.2260
     73  O        -14.3380   -9.9110   10.6450 O.2    80  ARG80      -0.2867
     74  CB       -11.4730  -10.6660   11.6910 C.3    80  ARG80       0.0307
     75  CG       -11.2600   -9.4170   10.8470 C.3    80  ARG80       0.0489
     76  CD       -10.1990   -8.5130   11.4570 C.3    80  ARG80       0.2205
     77  NE       -10.0180   -7.2830   10.6910 N.pl3  80  ARG80      -0.0865
     78  CZ        -9.2160   -6.2850   11.0510 C.cat  80  ARG80       0.5346
     79  NH1       -8.5150   -6.3590   12.1740 N.pl3  80  ARG80       0.1354
     80  NH2       -9.1160   -5.2070   10.2860 N.pl3  80  ARG80       0.1354
     81  N         -7.2690   -4.4250   19.5340 N.3   121  ASN121     -0.1240
     82  CA        -6.3210   -3.3750   19.1870 C.3   121  ASN121      0.1653
     83  C         -6.5840   -2.1680   20.0760 C.2   121  ASN121      0.2266
     84  O         -7.6750   -1.5910   20.0370 O.2   121  ASN121     -0.2867
     85  CB        -6.4500   -2.9730   17.7170 C.3   121  ASN121      0.1155
     86  CG        -6.4050   -4.1580   16.7750 C.2   121  ASN121      0.2627
     87  OD1       -7.3600   -4.4180   16.0440 O.2   121  ASN121     -0.2716
     88  ND2       -5.2900   -4.8770   16.7800 N.am  121  ASN121     -0.0877
     89  N         -5.7670    1.5280   20.4880 N.3   123  ARG123     -0.1245
     90  CA        -5.2900    2.6160   19.6500 C.3   123  ARG123      0.1563
     91  C         -5.7770    3.9460   20.2080 C.2   123  ARG123      0.2260
     92  O         -6.6010    3.9980   21.1280 O.2   123  ARG123     -0.2867
     93  CB        -5.7650    2.4510   18.2020 C.3   123  ARG123      0.0307
     94  CG        -5.3270    1.1550   17.5360 C.3   123  ARG123      0.0489
     95  CD        -3.8270    1.1320   17.2810 C.3   123  ARG123      0.2205
     96  NE        -3.4220   -0.0530   16.5270 N.pl3 123  ARG123     -0.0865
     97  CZ        -3.1390   -1.2360   17.0680 C.cat 123  ARG123      0.5346
     98  NH1       -2.7840   -2.2490   16.2910 N.pl3 123  ARG123      0.1354
     99  NH2       -3.2140   -1.4150   18.3810 N.pl3 123  ARG123      0.1354
    100  N        -10.5720   -1.6720   19.0570 N.3   128  LYS128     -0.1245
    101  CA       -11.1170   -2.6260   18.1020 C.3   128  LYS128      0.1561
    102  C        -10.9560   -4.0290   18.6600 C.2   128  LYS128      0.2260
    103  O         -9.8710   -4.3880   19.1260 O.2   128  LYS128     -0.2867
    104  CB       -10.4000   -2.4890   16.7540 C.3   128  LYS128      0.0271
    105  CG       -11.0250   -3.2370   15.5970 C.3   128  LYS128      0.0035
    106  CD       -10.6110   -2.6130   14.2630 C.3   128  LYS128      0.0206
    107  CE        -9.0920   -2.4770   14.1310 C.3   128  LYS128      0.1093
    108  NZ        -8.6880   -1.8080   12.8670 N.3   128  LYS128     -0.1314
    109  N        -11.3010  -13.8920   14.8610 N.3   132  TRP132     -0.1241
    110  CA       -10.8490  -14.4760   13.6080 C.3   132  TRP132      0.1605
    111  C        -11.4600  -15.8590   13.4360 C.2   132  TRP132      0.2264
    112  O        -11.3900  -16.6930   14.3470 O.2   132  TRP132     -0.2867
    113  CB        -9.3230  -14.5670   13.5800 C.3   132  TRP132      0.0550
    114  CG        -8.6340  -13.2420   13.5020 C.ar  132  TRP132      0.0003
    115  CD1       -9.0640  -12.0550   14.0250 C.ar  132  TRP132      0.0946
    116  CD2       -7.3910  -12.9660   12.8530 C.ar  132  TRP132      0.0152
    117  NE1       -8.1610  -11.0580   13.7450 N.ar  132  TRP132     -0.2442
    118  CE2       -7.1240  -11.5920   13.0250 C.ar  132  TRP132      0.0810
    119  CE3       -6.4750  -13.7470   12.1420 C.ar  132  TRP132      0.0012
    120  CZ2       -5.9810  -10.9850   12.5140 C.ar  132  TRP132      0.0191
    121  CZ3       -5.3420  -13.1430   11.6350 C.ar  132  TRP132      0.0001
    122  CH2       -5.1040  -11.7750   11.8240 C.ar  132  TRP132      0.0015
    123  N         -5.4560   -4.1150    1.2810 N.3   172  LYS172     -0.1231
    124  CA        -5.6540   -2.6890    1.5310 C.3   172  LYS172      0.1693
    125  C         -4.9530   -2.3270    2.8340 C.2   172  LYS172      0.2591
    126  O         -5.4580   -2.6020    3.9250 O.2   172  LYS172     -0.2718
    127  CB        -7.1410   -2.3590    1.5770 C.3   172  LYS172      0.0285
    128  CG        -7.9230   -2.8750    0.3740 C.3   172  LYS172      0.0035
    129  CD        -7.3850   -2.3080   -0.9340 C.3   172  LYS172      0.0206
    130  CE        -8.0900   -2.9100   -2.1360 C.3   172  LYS172      0.1093
    131  NZ        -7.4360   -2.5140   -3.4140 N.3   172  LYS172     -0.1314
    132  N         -3.7850   -1.7040    2.7170 N.am  173  GLN173     -0.1979
    133  CA        -2.9960   -1.3190    3.8800 C.3   173  GLN173      0.1601
    134  C         -3.4020    0.0660    4.3700 C.2   173  GLN173      0.2287
    135  O         -2.6940    0.6850    5.1640 O.2   173  GLN173     -0.2864
    136  CB        -1.5040   -1.3420    3.5430 C.3   173  GLN173      0.0394
    137  CG        -1.0180   -2.6630    2.9660 C.3   173  GLN173      0.0908
    138  CD        -1.1310   -3.8090    3.9520 C.2   173  GLN173      0.2608
    139  OE1       -1.2570   -3.5960    5.1580 O.2   173  GLN173     -0.2717
    140  NE2       -1.0890   -5.0340    3.4410 N.am  173  GLN173     -0.0878
@<TRIPOS>BOND
     1   131   130    1
     2   130   129    1
     3   129   128    1
     4   128   127    1
     5   123   124    1
     6   124   127    1
     7   124   125    1
     8   132   125   am
     9   132   133    1
    10   125   126    2
    11   137   136    1
    12   137   138    1
    13   140   138   am
    14   136   133    1
    15   133   134    1
    16   138   139    2
    17   134   135    2
    18    66    65    1
    19    66    67    1
    20    64    63    2
    21    57    59   ar
    22    57    54   ar
    23    59    60   ar
    24    62    65    1
    25    62    63    1
    26    62    61    1
    27    50    49    2
    28    69    67   ar
    29    51    52    1
    30    51    48    1
    31    67    68   ar
    32    54    52   ar
    33    54    56   ar
    34    60    58   ar
    35    49    61   am
    36    49    48    1
    37    52    53   ar
    38    48    47    1
    39    56    58   ar
    40    56    55   ar
    41    53    55   ar
    42    47    41   am
    43    70    71    1
    44    80    78    1
    45    42    41    2
    46    41    40    1
    47    22    21   ar
    48    73    72    2
    49    77    78    2
    50    77    76    1
    51    75    76    1
    52    75    74    1
    53    78    79    1
    54    71    72    1
    55    71    74    1
    56    44    43    1
    57    44    45    1
    58    43    40    1
    59    45    46    1
    60    40    39    1
    61     5     6    1
    62     5     2    1
    63    21    23   ar
    64    21    20    1
    65   121   122   ar
    66   121   119   ar
    67     1     2    1
    68   122   120   ar
    69    11    13   ar
    70    11     8   ar
    71    19    20    1
    72    19    16    1
    73   119   116   ar
    74     6     8   ar
    75     6     7   ar
    76    13    14   ar
    77     8    10   ar
    78    15    16    1
    79    15     3   am
    80     2     3    1
    81   120   118   ar
    82    39    34   am
    83   116   118   ar
    84   116   114   ar
    85   108   107    1
    86     7     9   ar
    87    14    12   ar
    88   118   117   ar
    89    16    17    1
    90    10     9   ar
    91    10    12   ar
    92     3     4    2
    93   111   110    1
    94   111   112    2
    95   114   113    1
    96   114   115   ar
    97   113   110    1
    98   110   109    1
    99   117   115   ar
   100    34    35    2
   101    34    33    1
   102   107   106    1
   103   106   105    1
   104    17    18    2
   105    33    32    1
   106    33    36    1
   107    32    38    1
   108   105   104    1
   109    87    86    2
   110    98    97    1
   111    38    37    1
   112    36    37    1
   113    96    97    2
   114    96    95    1
   115   104   101    1
   116    86    88   am
   117    86    85    1
   118    97    99    1
   119    31    29   ar
   120    95    94    1
   121    94    93    1
   122    85    82    1
   123   101   102    1
   124   101   100    1
   125    93    90    1
   126    29    30   ar
   127    29    28    1
   128   102   103    2
   129    82    81    1
   130    82    83    1
   131    28    25    1
   132    90    91    1
   133    90    89    1
   134    84    83    2
   135    91    92    2
   136    25    24    1
   137    25    26    1
   138    26    27    2
