@<TRIPOS>MOLECULE
tmp/5t4bA07.pdb
 221 218 0 0 0
SMALL
GASTEIGER

@<TRIPOS>ATOM
      1  N         37.3180   61.3620   36.4260 N.3    87  ARG87      -0.1245
      2  CA        38.1820   60.9410   37.5220 C.3    87  ARG87       0.1563
      3  C         39.3620   61.8710   37.7680 C.2    87  ARG87       0.2260
      4  O         39.7090   62.1430   38.9240 O.2    87  ARG87      -0.2867
      5  CB        38.6270   59.4980   37.3450 C.3    87  ARG87       0.0307
      6  CG        39.4440   58.9440   38.5260 C.3    87  ARG87       0.0489
      7  CD        40.1030   57.6290   38.1420 C.3    87  ARG87       0.2205
      8  NE        39.1230   56.5930   37.7730 N.pl3  87  ARG87      -0.0865
      9  CZ        38.6610   55.6700   38.6130 C.cat  87  ARG87       0.5346
     10  NH1       39.0280   55.6830   39.8890 N.pl3  87  ARG87       0.1354
     11  NH2       37.8220   54.7330   38.1840 N.pl3  87  ARG87       0.1354
     12  N         40.3740   57.8310   31.4210 N.3   167  GLU167     -0.1231
     13  CA        40.0200   56.7820   32.3560 C.3   167  GLU167      0.1699
     14  C         40.8800   55.5340   32.2690 C.2   167  GLU167      0.2592
     15  O         41.2910   55.0030   33.3070 O.2   167  GLU167     -0.2718
     16  CB        38.5280   56.4220   32.2040 C.3   167  GLU167      0.0402
     17  CG        38.0800   55.3120   33.1660 C.3   167  GLU167      0.1161
     18  CD        38.1080   55.5790   34.6610 C.2   167  GLU167      0.3649
     19  OE1       38.3390   56.7360   35.0810 O.co2 167  GLU167     -0.2457
     20  OE2       37.8180   54.6250   35.4210 O.co2 167  GLU167     -0.2457
     21  N         41.1440   55.0740   31.0430 N.am  168  GLU168     -0.1979
     22  CA        41.7190   53.7630   30.8060 C.3   168  GLU168      0.1602
     23  C         43.1410   53.6850   30.2790 C.2   168  GLU168      0.2287
     24  O         43.6850   52.5780   30.2420 O.2   168  GLU168     -0.2864
     25  CB        40.7950   52.9900   29.8330 C.3   168  GLU168      0.0415
     26  CG        39.3280   52.8950   30.2420 C.3   168  GLU168      0.1163
     27  CD        39.0510   52.0590   31.4790 C.2   168  GLU168      0.3649
     28  OE1       40.0110   51.5610   32.1100 O.co2 168  GLU168     -0.2457
     29  OE2       37.8650   51.9740   31.8640 O.co2 168  GLU168     -0.2457
     30  N         45.3560   57.5620   32.7490 N.3   171  SER171     -0.1217
     31  CA        44.9750   57.8430   34.1470 C.3   171  SER171      0.1889
     32  C         45.2540   59.3340   34.4220 C.2   171  SER171      0.2288
     33  O         45.8060   59.6960   35.4730 O.2   171  SER171     -0.2866
     34  CB        45.7610   56.9680   35.1300 C.3   171  SER171      0.2089
     35  OG        45.5670   55.5980   34.8200 O.3   171  SER171     -0.2183
     36  N         47.9540   46.7710   33.0460 N.3   319  PHE319     -0.1241
     37  CA        46.7960   47.4730   32.4890 C.3   319  PHE319      0.1605
     38  C         47.1730   48.1200   31.1690 C.2   319  PHE319      0.2264
     39  O         46.2980   48.5540   30.4420 O.2   319  PHE319     -0.2867
     40  CB        46.2630   48.5330   33.4520 C.3   319  PHE319      0.0534
     41  CG        45.6460   47.9220   34.6860 C.ar  319  PHE319     -0.0203
     42  CD1       44.3050   47.5650   34.7040 C.ar  319  PHE319     -0.0042
     43  CD2       46.4210   47.6630   35.8180 C.ar  319  PHE319     -0.0042
     44  CE1       43.7260   47.0200   35.8540 C.ar  319  PHE319     -0.0003
     45  CE2       45.8510   47.1060   36.9540 C.ar  319  PHE319     -0.0003
     46  CZ        44.5050   46.7870   36.9660 C.ar  319  PHE319     -0.0000
     47  N         34.5480   41.9170   47.7290 N.3   508  VAL508     -0.1231
     48  CA        35.0610   41.5170   46.4250 C.3   508  VAL508      0.1692
     49  C         35.4250   42.6450   45.4790 C.2   508  VAL508      0.2592
     50  O         34.6740   43.6020   45.3610 O.2   508  VAL508     -0.2718
     51  CB        33.9580   40.6380   45.7380 C.3   508  VAL508      0.0266
     52  CG1       34.4610   40.0410   44.4210 C.3   508  VAL508      0.0020
     53  CG2       33.4750   39.5340   46.6840 C.3   508  VAL508      0.0020
     54  N         36.5400   42.4670   44.7510 N.am  509  TYR509     -0.1976
     55  CA        36.9120   43.2990   43.5990 C.3   509  TYR509      0.1639
     56  C         37.0230   42.2110   42.5170 C.2   509  TYR509      0.2290
     57  O         36.0950   42.0830   41.7240 O.2   509  TYR509     -0.2864
     58  CB        38.2170   44.0730   43.8550 C.3   509  TYR509      0.0560
     59  CG        38.8560   44.7470   42.6520 C.ar  509  TYR509     -0.0198
     60  CD1       40.0510   45.4530   42.7820 C.ar  509  TYR509     -0.0009
     61  CD2       38.2590   44.6960   41.3880 C.ar  509  TYR509     -0.0009
     62  CE1       40.6760   46.0390   41.6760 C.ar  509  TYR509      0.0417
     63  CE2       38.8850   45.2550   40.2680 C.ar  509  TYR509      0.0417
     64  CZ        40.1010   45.9150   40.4190 C.ar  509  TYR509      0.1957
     65  OH        40.7170   46.4750   39.3320 O.3   509  TYR509     -0.2866
     66  N         43.1780   42.0960   46.6820 N.3   516  LYS516     -0.1245
     67  CA        42.3630   42.4260   47.8580 C.3   516  LYS516      0.1561
     68  C         42.8930   41.8080   49.1600 C.2   516  LYS516      0.2260
     69  O         42.3770   42.0960   50.2430 O.2   516  LYS516     -0.2867
     70  CB        40.9120   41.9990   47.6110 C.3   516  LYS516      0.0271
     71  CG        40.2080   42.9510   46.6640 C.3   516  LYS516      0.0035
     72  CD        39.7840   44.2760   47.3080 C.3   516  LYS516      0.0206
     73  CE        38.4580   44.0930   48.0290 C.3   516  LYS516      0.1093
     74  NZ        38.0120   45.3250   48.6980 N.3   516  LYS516     -0.1314
     75  N         29.6790   41.3200   48.9050 N.3   589  TRP589     -0.1241
     76  CA        29.4490   42.6660   48.3740 C.3   589  TRP589      0.1605
     77  C         30.6390   43.1640   47.5590 C.2   589  TRP589      0.2264
     78  O         31.7790   42.7580   47.7670 O.2   589  TRP589     -0.2867
     79  CB        29.0630   43.6600   49.4790 C.3   589  TRP589      0.0550
     80  CG        30.1890   44.4670   50.0330 C.ar  589  TRP589      0.0003
     81  CD1       31.1280   44.0610   50.9430 C.ar  589  TRP589      0.0946
     82  CD2       30.4900   45.8350   49.7240 C.ar  589  TRP589      0.0152
     83  NE1       31.9730   45.1100   51.2480 N.ar  589  TRP589     -0.2442
     84  CE2       31.6170   46.2030   50.4980 C.ar  589  TRP589      0.0810
     85  CE3       29.8990   46.7960   48.8810 C.ar  589  TRP589      0.0012
     86  CZ2       32.1610   47.4970   50.4650 C.ar  589  TRP589      0.0191
     87  CZ3       30.4320   48.0770   48.8520 C.ar  589  TRP589      0.0001
     88  CH2       31.5720   48.4080   49.6060 C.ar  589  TRP589      0.0015
     89  N         31.8710   46.6490   44.6080 N.3   591  TRP591     -0.1227
     90  CA        31.5470   47.8540   43.8730 C.3   591  TRP591      0.1737
     91  C         32.2480   47.7630   42.5310 C.2   591  TRP591      0.2596
     92  O         33.3570   47.2040   42.4530 O.2   591  TRP591     -0.2718
     93  CB        32.1250   49.0330   44.6850 C.3   591  TRP591      0.0564
     94  CG        31.5890   50.4130   44.4070 C.ar  591  TRP591      0.0003
     95  CD1       31.6180   51.0960   43.2230 C.ar  591  TRP591      0.0946
     96  CD2       31.1760   51.3590   45.4050 C.ar  591  TRP591      0.0152
     97  NE1       31.1390   52.3830   43.4060 N.ar  591  TRP591     -0.2442
     98  CE2       30.8750   52.5740   44.7390 C.ar  591  TRP591      0.0810
     99  CE3       30.9900   51.2810   46.8010 C.ar  591  TRP591      0.0012
    100  CZ2       30.3940   53.7040   45.4200 C.ar  591  TRP591      0.0191
    101  CZ3       30.5410   52.4080   47.4900 C.ar  591  TRP591      0.0001
    102  CH2       30.2390   53.6030   46.7990 C.ar  591  TRP591      0.0015
    103  N         31.5890   48.2740   41.4640 N.am  592  SER592     -0.1938
    104  CA        32.2010   48.3390   40.1190 C.3   592  SER592      0.2055
    105  C         32.4560   46.9060   39.5930 C.2   592  SER592      0.2643
    106  O         31.4950   46.1340   39.5100 O.2   592  SER592     -0.2714
    107  CB        33.4800   49.1870   40.1720 C.3   592  SER592      0.2130
    108  OG        33.8790   49.6010   38.8780 O.3   592  SER592     -0.2179
    109  N         33.7160   46.5290   39.2730 N.am  593  TYR593     -0.1959
    110  CA        33.9800   45.1400   38.8680 C.3   593  TYR593      0.1771
    111  C         33.5330   44.2110   40.0300 C.2   593  TYR593      0.2620
    112  O         32.9600   43.1540   39.7760 O.2   593  TYR593     -0.2715
    113  CB        35.4710   44.9180   38.5340 C.3   593  TYR593      0.0574
    114  CG        35.6840   43.6680   37.7050 C.ar  593  TYR593     -0.0198
    115  CD1       35.5690   42.3980   38.2740 C.ar  593  TYR593     -0.0009
    116  CD2       36.0190   43.7530   36.3570 C.ar  593  TYR593     -0.0009
    117  CE1       35.7340   41.2410   37.5020 C.ar  593  TYR593      0.0417
    118  CE2       36.2000   42.6060   35.5800 C.ar  593  TYR593      0.0417
    119  CZ        36.0220   41.3560   36.1480 C.ar  593  TYR593      0.1957
    120  OH        36.2390   40.2460   35.3650 O.3   593  TYR593     -0.2866
    121  N         33.7300   44.6440   41.2780 N.am  594  GLY594     -0.1954
    122  CA        33.2740   43.8710   42.4400 C.3   594  GLY594      0.1869
    123  C         31.7590   43.7100   42.5030 C.2   594  GLY594      0.2309
    124  O         31.2640   42.6920   42.9910 O.2   594  GLY594     -0.2863
    125  N         28.9870   46.4260   36.7000 N.3   618  VAL618     -0.1245
    126  CA        28.8950   46.1320   35.2990 C.3   618  VAL618      0.1561
    127  C         27.8820   44.9660   35.2500 C.2   618  VAL618      0.2260
    128  O         27.8550   44.1210   36.1560 O.2   618  VAL618     -0.2867
    129  CB        30.2530   45.7110   34.7070 C.3   618  VAL618      0.0252
    130  CG1       30.0790   44.9070   33.4010 C.3   618  VAL618      0.0019
    131  CG2       31.1460   46.9330   34.4910 C.3   618  VAL618      0.0019
    132  N         29.1790   43.0980   29.3330 N.3   621  TRP621     -0.1241
    133  CA        30.4230   43.7110   28.8300 C.3   621  TRP621      0.1605
    134  C         30.2800   44.6470   27.6550 C.2   621  TRP621      0.2264
    135  O         31.0460   45.6030   27.5500 O.2   621  TRP621     -0.2867
    136  CB        31.5690   42.7030   28.6940 C.3   621  TRP621      0.0550
    137  CG        32.0470   42.2540   30.0490 C.ar  621  TRP621      0.0003
    138  CD1       31.8190   41.0460   30.6370 C.ar  621  TRP621      0.0946
    139  CD2       32.6920   43.0720   31.0400 C.ar  621  TRP621      0.0152
    140  NE1       32.3620   41.0280   31.9030 N.ar  621  TRP621     -0.2442
    141  CE2       32.8500   42.2800   32.1970 C.ar  621  TRP621      0.0810
    142  CE3       33.1420   44.4170   31.0600 C.ar  621  TRP621      0.0012
    143  CZ2       33.4460   42.7730   33.3690 C.ar  621  TRP621      0.0191
    144  CZ3       33.7170   44.9140   32.2280 C.ar  621  TRP621      0.0001
    145  CH2       33.8750   44.0990   33.3630 C.ar  621  TRP621      0.0015
    146  N         30.2290   48.2930   28.7740 N.3   624  TYR624     -0.1241
    147  CA        31.4110   48.9390   29.3460 C.3   624  TYR624      0.1605
    148  C         32.3580   49.4870   28.2470 C.2   624  TYR624      0.2264
    149  O         32.1650   49.1670   27.0680 O.2   624  TYR624     -0.2867
    150  CB        32.1300   48.0450   30.3870 C.3   624  TYR624      0.0534
    151  CG        32.9500   48.8820   31.3490 C.ar  624  TYR624     -0.0201
    152  CD1       32.3770   49.9590   32.0340 C.ar  624  TYR624     -0.0009
    153  CD2       34.3170   48.6610   31.5050 C.ar  624  TYR624     -0.0009
    154  CE1       33.1520   50.7940   32.8470 C.ar  624  TYR624      0.0417
    155  CE2       35.1000   49.4940   32.3090 C.ar  624  TYR624      0.0417
    156  CZ        34.5030   50.5350   33.0070 C.ar  624  TYR624      0.1957
    157  OH        35.2940   51.3140   33.8140 O.3   624  TYR624     -0.2866
    158  N         39.1100   49.1790   28.3790 N.3   628  TYR628     -0.1241
    159  CA        39.1950   48.1890   29.4560 C.3   628  TYR628      0.1605
    160  C         38.6110   46.8500   29.0020 C.2   628  TYR628      0.2264
    161  O         39.2700   45.8260   29.1370 O.2   628  TYR628     -0.2867
    162  CB        38.4220   48.6810   30.6910 C.3   628  TYR628      0.0534
    163  CG        38.5110   47.7160   31.8540 C.ar  628  TYR628     -0.0201
    164  CD1       37.5370   46.7300   32.0470 C.ar  628  TYR628     -0.0009
    165  CD2       39.5720   47.7810   32.7640 C.ar  628  TYR628     -0.0009
    166  CE1       37.6150   45.8360   33.1100 C.ar  628  TYR628      0.0417
    167  CE2       39.6590   46.8850   33.8320 C.ar  628  TYR628      0.0417
    168  CZ        38.6530   45.9480   34.0260 C.ar  628  TYR628      0.1957
    169  OH        38.7320   45.0660   35.0720 O.3   628  TYR628     -0.2866
    170  N         40.4900   44.7430   26.2700 N.3   631  ARG631     -0.1245
    171  CA        41.7990   44.3020   26.6980 C.3   631  ARG631      0.1563
    172  C         41.7180   42.8140   27.1380 C.2   631  ARG631      0.2260
    173  O         42.5910   42.0170   26.8120 O.2   631  ARG631     -0.2867
    174  CB        42.2770   45.1650   27.8680 C.3   631  ARG631      0.0307
    175  CG        43.6420   44.7530   28.3900 C.3   631  ARG631      0.0489
    176  CD        44.0660   45.6460   29.5450 C.3   631  ARG631      0.2205
    177  NE        43.9620   47.0750   29.2040 N.pl3 631  ARG631     -0.0865
    178  CZ        43.4360   48.0110   29.9920 C.cat 631  ARG631      0.5346
    179  NH1       42.9610   47.6900   31.1960 N.pl3 631  ARG631      0.1354
    180  NH2       43.4360   49.2860   29.6090 N.pl3 631  ARG631      0.1354
    181  N         30.8830   56.3780   34.1530 N.3   672  ASN672     -0.1225
    182  CA        31.8370   55.2840   33.9990 C.3   672  ASN672      0.1785
    183  C         31.1200   53.9480   33.7570 C.2   672  ASN672      0.2597
    184  O         31.1700   53.3980   32.6500 O.2   672  ASN672     -0.2718
    185  CB        32.7410   55.2790   35.2460 C.3   672  ASN672      0.1169
    186  CG        33.8940   54.3270   35.1910 C.2   672  ASN672      0.2627
    187  OD1       33.9640   53.4330   34.3500 O.2   672  ASN672     -0.2716
    188  ND2       34.8920   54.5810   36.0210 N.am  672  ASN672     -0.0877
    189  N         30.4460   53.4380   34.7880 N.am  673  VAL673     -0.1980
    190  CA        29.6090   52.2540   34.6570 C.3   673  VAL673      0.1595
    191  C         28.2120   52.8850   34.5910 C.2   673  VAL673      0.2287
    192  O         27.6740   53.3760   35.5970 O.2   673  VAL673     -0.2864
    193  CB        29.7660   51.2870   35.8620 C.3   673  VAL673      0.0276
    194  CG1       28.7750   50.1140   35.7080 C.3   673  VAL673      0.0022
    195  CG2       31.2100   50.7910   35.9770 C.3   673  VAL673      0.0022
    196  N         30.3030   57.4790   39.7290 N.3   702  HIS702     -0.1226
    197  CA        30.8360   56.1570   40.0830 C.3   702  HIS702      0.1752
    198  C         31.3130   56.0330   41.5480 C.2   702  HIS702      0.2596
    199  O         31.2660   54.9470   42.1350 O.2   702  HIS702     -0.2718
    200  CB        31.9670   55.7650   39.1100 C.3   702  HIS702      0.0759
    201  CG        32.2040   54.2850   39.0840 C.ar  702  HIS702      0.0818
    202  ND1       31.1690   53.3920   38.8580 N.ar  702  HIS702     -0.2268
    203  CD2       33.3430   53.5890   39.3290 C.ar  702  HIS702      0.1154
    204  CE1       31.7110   52.1870   38.9400 C.ar  702  HIS702      0.1986
    205  NE2       33.0190   52.2540   39.1820 N.ar  702  HIS702     -0.2212
    206  N         31.7730   57.1500   42.1090 N.am  703  GLY703     -0.1957
    207  CA        32.3090   57.1860   43.4570 C.3   703  GLY703      0.1869
    208  C         31.2690   57.2660   44.5620 C.2   703  GLY703      0.2309
    209  O         31.5940   56.9100   45.6970 O.2   703  GLY703     -0.2863
    210  N         26.4860   54.0020   53.0000 N.3   714  TYR714     -0.1241
    211  CA        27.0330   53.0910   54.0210 C.3   714  TYR714      0.1605
    212  C         26.0300   52.8300   55.1240 C.2   714  TYR714      0.2264
    213  O         25.9620   51.7090   55.6250 O.2   714  TYR714     -0.2867
    214  CB        28.4110   53.5820   54.5260 C.3   714  TYR714      0.0534
    215  CG        29.4990   53.1820   53.5500 C.ar  714  TYR714     -0.0201
    216  CD1       29.9740   51.8710   53.5050 C.ar  714  TYR714     -0.0009
    217  CD2       29.9520   54.0730   52.5750 C.ar  714  TYR714     -0.0009
    218  CE1       30.9190   51.4730   52.5630 C.ar  714  TYR714      0.0417
    219  CE2       30.9310   53.6940   51.6480 C.ar  714  TYR714      0.0417
    220  CZ        31.4020   52.3890   51.6430 C.ar  714  TYR714      0.1957
    221  OH        32.3520   51.9700   50.7430 O.3   714  TYR714     -0.2866
@<TRIPOS>BOND
     1   170   171    1
     2   171   172    1
     3   171   174    1
     4   173   172    2
     5   149   148    2
     6   135   134    2
     7   134   133    1
     8   174   175    1
     9   148   147    1
    10   158   159    1
    11   175   176    1
    12   136   133    1
    13   136   137    1
    14   146   147    1
    15   133   132    1
    16   160   161    2
    17   160   159    1
    18   177   176    1
    19   177   178    2
    20   147   150    1
    21   159   162    1
    22   180   178    1
    23    25    26    1
    24    25    22    1
    25   178   179    1
    26   137   138   ar
    27   137   139   ar
    28    24    23    2
    29    26    27    1
    30    23    22    1
    31   150   151    1
    32    39    38    2
    33   138   140   ar
    34   162   163    1
    35    22    21    1
    36   139   142   ar
    37   139   141   ar
    38    21    14   am
    39   142   144   ar
    40    38    37    1
    41   151   153   ar
    42   151   152   ar
    43    12    13    1
    44    27    29   ar
    45    27    28   ar
    46   153   155   ar
    47   163   164   ar
    48   163   165   ar
    49   140   141   ar
    50   152   154   ar
    51   164   166   ar
    52   141   143   ar
    53    16    13    1
    54    16    17    1
    55   144   145   ar
    56    14    13    1
    57    14    15    2
    58   155   156   ar
    59    37    36    1
    60    37    40    1
    61   184   183    2
    62    30    31    1
    63   165   167   ar
    64   154   156   ar
    65   156   157    1
    66   166   168   ar
    67    17    18    1
    68   145   143   ar
    69   130   129    1
    70    40    41    1
    71   183   182    1
    72   183   189   am
    73   167   168   ar
    74   182   181    1
    75   182   185    1
    76   168   169    1
    77    31    32    1
    78    31    34    1
    79   187   186    2
    80    32    33    2
    81   131   129    1
    82   191   190    1
    83   191   192    2
    84   190   189    1
    85   190   193    1
    86    18    19   ar
    87    18    20   ar
    88    41    42   ar
    89    41    43   ar
    90    42    44   ar
    91   129   126    1
    92    35    34    1
    93   186   185    1
    94   186   188   am
    95   127   126    1
    96   127   128    2
    97   126   125    1
    98   120   119    1
    99   118   119   ar
   100   118   116   ar
   101   194   193    1
   102    43    45   ar
   103    44    46   ar
   104   193   195    1
   105   119   117   ar
   106   116   114   ar
   107     1     2    1
   108    45    46   ar
   109     5     2    1
   110     5     6    1
   111   117   115   ar
   112     2     3    1
   113   114   115   ar
   114   114   113    1
   115     3     4    2
   116     8     7    1
   117     8     9    2
   118     7     6    1
   119    11     9    1
   120   113   110    1
   121     9    10    1
   122   202   204   ar
   123   202   201   ar
   124   110   109    1
   125   110   111    1
   126   108   107    1
   127   204   205   ar
   128   201   200    1
   129   201   203   ar
   130   200   197    1
   131   205   203   ar
   132   109   105   am
   133    65    64    1
   134   106   105    2
   135   105   104    1
   136   196   197    1
   137   112   111    2
   138   111   121   am
   139   197   198    1
   140   104   107    1
   141   104   103    1
   142    63    64   ar
   143    63    61   ar
   144    64    62   ar
   145   121   122    1
   146    61    59   ar
   147   103    91   am
   148   198   206   am
   149   198   199    2
   150    62    60   ar
   151    57    56    2
   152   206   207    1
   153   122   123    1
   154    92    91    2
   155   123   124    2
   156    56    55    1
   157    91    90    1
   158    59    60   ar
   159    59    58    1
   160    95    97   ar
   161    95    94   ar
   162    97    98   ar
   163   207   208    1
   164    55    58    1
   165    55    54    1
   166    90    89    1
   167    90    93    1
   168    94    93    1
   169    94    96   ar
   170    52    51    1
   171   208   209    2
   172    98    96   ar
   173    98   100   ar
   174    54    49   am
   175    50    49    2
   176    96    99   ar
   177   100   102   ar
   178    49    48    1
   179    51    48    1
   180    51    53    1
   181    48    47    1
   182    71    72    1
   183    71    70    1
   184    66    67    1
   185   102   101   ar
   186    99   101   ar
   187    72    73    1
   188    77    78    2
   189    77    76    1
   190    70    67    1
   191    67    68    1
   192    73    74    1
   193    76    75    1
   194    76    79    1
   195    87    85   ar
   196    87    88   ar
   197    85    82   ar
   198    68    69    2
   199    79    80    1
   200    88    86   ar
   201    82    80   ar
   202    82    84   ar
   203    80    81   ar
   204    86    84   ar
   205    84    83   ar
   206   221   220    1
   207    81    83   ar
   208   220   219   ar
   209   220   218   ar
   210   219   217   ar
   211   218   216   ar
   212   217   215   ar
   213   210   211    1
   214   216   215   ar
   215   215   214    1
   216   211   214    1
   217   211   212    1
   218   212   213    2
