@<TRIPOS>MOLECULE
tmp/5t4eB07.pdb
 217 214 0 0 0
SMALL
GASTEIGER

@<TRIPOS>ATOM
      1  N         -0.9630   58.2410   27.1310 N.3    87  ARG87      -0.1245
      2  CA        -2.1580   57.6370   27.7260 C.3    87  ARG87       0.1563
      3  C         -3.1860   57.1710   26.6810 C.2    87  ARG87       0.2260
      4  O         -3.7950   56.0990   26.8450 O.2    87  ARG87      -0.2867
      5  CB        -2.7940   58.5740   28.7490 C.3    87  ARG87       0.0307
      6  CG        -3.9080   57.9130   29.5760 C.3    87  ARG87       0.0489
      7  CD        -4.6980   58.9360   30.3740 C.3    87  ARG87       0.2205
      8  NE        -3.8630   59.6500   31.3550 N.pl3  87  ARG87      -0.0865
      9  CZ        -3.6600   59.2580   32.6120 C.cat  87  ARG87       0.5346
     10  NH1       -4.2040   58.1300   33.0620 N.pl3  87  ARG87       0.1354
     11  NH2       -2.9150   59.9900   33.4280 N.pl3  87  ARG87       0.1354
     12  N         -3.1040   64.7780   27.1420 N.3   167  GLU167     -0.1231
     13  CA        -3.2520   64.4110   28.5440 C.3   167  GLU167      0.1699
     14  C         -4.2480   65.2440   29.3320 C.2   167  GLU167      0.2592
     15  O         -4.9970   64.6760   30.1480 O.2   167  GLU167     -0.2718
     16  CB        -1.8570   64.4390   29.2310 C.3   167  GLU167      0.0402
     17  CG        -1.8840   64.1350   30.7330 C.3   167  GLU167      0.1161
     18  CD        -2.2770   62.7180   31.1280 C.2   167  GLU167      0.3649
     19  OE1       -2.4630   61.8550   30.2350 O.co2 167  GLU167     -0.2457
     20  OE2       -2.4080   62.4730   32.3510 O.co2 167  GLU167     -0.2457
     21  N         -4.2160   66.5880   29.1430 N.am  168  GLU168     -0.1979
     22  CA        -4.9260   67.5310   30.0140 C.3   168  GLU168      0.1602
     23  C         -6.1350   68.2580   29.4550 C.2   168  GLU168      0.2287
     24  O         -6.8560   68.8980   30.2170 O.2   168  GLU168     -0.2864
     25  CB        -3.9300   68.5730   30.5910 C.3   168  GLU168      0.0415
     26  CG        -2.6800   67.9910   31.2570 C.3   168  GLU168      0.1163
     27  CD        -2.9160   67.2020   32.5350 C.2   168  GLU168      0.3649
     28  OE1       -4.0920   67.0160   32.9310 O.co2 168  GLU168     -0.2457
     29  OE2       -1.9120   66.8160   33.1760 O.co2 168  GLU168     -0.2457
     30  N         -8.1660   64.5790   26.4600 N.3   171  SER171     -0.1217
     31  CA        -8.1490   63.1670   26.9280 C.3   171  SER171      0.1889
     32  C         -8.2460   62.2320   25.6960 C.2   171  SER171      0.2288
     33  O         -8.9350   61.2030   25.7170 O.2   171  SER171     -0.2866
     34  CB        -9.3050   62.8820   27.8890 C.3   171  SER171      0.2089
     35  OG        -9.2460   63.6680   29.0660 O.3   171  SER171     -0.2183
     36  N        -12.7560   69.7810   35.2010 N.3   319  PHE319     -0.1241
     37  CA       -11.3750   69.7210   34.6980 C.3   319  PHE319      0.1605
     38  C        -11.2540   70.6250   33.4770 C.2   319  PHE319      0.2264
     39  O        -10.1400   70.9310   33.0600 O.2   319  PHE319     -0.2867
     40  CB       -10.9560   68.2840   34.3550 C.3   319  PHE319      0.0534
     41  CG       -10.7660   67.4360   35.5950 C.ar  319  PHE319     -0.0203
     42  CD1       -9.5440   67.4090   36.2540 C.ar  319  PHE319     -0.0042
     43  CD2      -11.8160   66.6870   36.1130 C.ar  319  PHE319     -0.0042
     44  CE1       -9.3630   66.6170   37.4010 C.ar  319  PHE319     -0.0003
     45  CE2      -11.6400   65.9110   37.2780 C.ar  319  PHE319     -0.0003
     46  CZ       -10.4180   65.9000   37.9180 C.ar  319  PHE319     -0.0000
     47  N         -4.8900   57.2690   49.3920 N.3   508  VAL508     -0.1231
     48  CA        -5.1180   58.6750   49.0570 C.3   508  VAL508      0.1692
     49  C         -5.0200   59.0180   47.5860 C.2   508  VAL508      0.2592
     50  O         -4.0950   58.5790   46.9090 O.2   508  VAL508     -0.2718
     51  CB        -4.1060   59.5610   49.8700 C.3   508  VAL508      0.0266
     52  CG1       -4.3430   61.0580   49.6770 C.3   508  VAL508      0.0020
     53  CG2       -4.1130   59.2080   51.3610 C.3   508  VAL508      0.0020
     54  N         -5.9200   59.8960   47.1280 N.am  509  TYR509     -0.1976
     55  CA        -5.8040   60.5770   45.8230 C.3   509  TYR509      0.1639
     56  C         -5.8170   62.0470   46.2540 C.2   509  TYR509      0.2290
     57  O         -4.7490   62.6580   46.3490 O.2   509  TYR509     -0.2864
     58  CB        -6.9090   60.1520   44.8140 C.3   509  TYR509      0.0560
     59  CG        -7.0890   60.9840   43.5520 C.ar  509  TYR509     -0.0198
     60  CD1       -6.2500   62.0660   43.2710 C.ar  509  TYR509     -0.0009
     61  CD2       -8.1160   60.7040   42.6500 C.ar  509  TYR509     -0.0009
     62  CE1       -6.4390   62.8610   42.1300 C.ar  509  TYR509      0.0417
     63  CE2       -8.3350   61.5060   41.5200 C.ar  509  TYR509      0.0417
     64  CZ        -7.4820   62.5700   41.2520 C.ar  509  TYR509      0.1957
     65  OH        -7.6730   63.3420   40.1120 O.3   509  TYR509     -0.2866
     66  N        -12.7320   59.4910   46.2400 N.3   516  LYS516     -0.1245
     67  CA       -12.2550   58.1800   46.6740 C.3   516  LYS516      0.1561
     68  C        -13.2600   57.4230   47.5690 C.2   516  LYS516      0.2260
     69  O        -13.0350   56.2530   47.8830 O.2   516  LYS516     -0.2867
     70  CB       -10.8910   58.3030   47.3550 C.3   516  LYS516      0.0271
     71  CG        -9.7840   58.5880   46.3340 C.3   516  LYS516      0.0035
     72  CD        -9.3410   57.3240   45.5680 C.3   516  LYS516      0.0206
     73  CE        -8.2450   56.6210   46.3360 C.3   516  LYS516      0.1093
     74  NZ        -7.8840   55.3100   45.7380 N.3   516  LYS516     -0.1314
     75  N         -0.7130   55.7720   51.7060 N.3   589  TRP589     -0.1241
     76  CA        -0.0880   55.5340   50.4030 C.3   589  TRP589      0.1605
     77  C         -0.8920   56.1920   49.3020 C.2   589  TRP589      0.2264
     78  O         -2.0720   56.4910   49.4780 O.2   589  TRP589     -0.2867
     79  CB         0.1580   54.0330   50.1200 C.3   589  TRP589      0.0550
     80  CG        -0.9100   53.3510   49.3200 C.ar  589  TRP589      0.0003
     81  CD1       -2.1300   52.9300   49.7670 C.ar  589  TRP589      0.0946
     82  CD2       -0.8390   52.9890   47.9320 C.ar  589  TRP589      0.0152
     83  NE1       -2.8270   52.3290   48.7410 N.ar  589  TRP589     -0.2442
     84  CE2       -2.0570   52.3520   47.6020 C.ar  589  TRP589      0.0810
     85  CE3        0.1300   53.1720   46.9200 C.ar  589  TRP589      0.0012
     86  CZ2       -2.3270   51.8700   46.3150 C.ar  589  TRP589      0.0191
     87  CZ3       -0.1400   52.7000   45.6430 C.ar  589  TRP589      0.0001
     88  CH2       -1.3510   52.0450   45.3520 C.ar  589  TRP589      0.0015
     89  N         -0.6190   57.1550   44.6850 N.3   591  TRP591     -0.1227
     90  CA         0.0520   57.1920   43.3920 C.3   591  TRP591      0.1737
     91  C         -0.2480   58.5530   42.7700 C.2   591  TRP591      0.2596
     92  O         -1.3580   59.0420   42.9130 O.2   591  TRP591     -0.2718
     93  CB        -0.5650   56.0790   42.5210 C.3   591  TRP591      0.0564
     94  CG         0.2630   55.5870   41.3680 C.ar  591  TRP591      0.0003
     95  CD1        0.6930   56.3090   40.2820 C.ar  591  TRP591      0.0946
     96  CD2        0.5980   54.2180   41.1020 C.ar  591  TRP591      0.0152
     97  NE1        1.3470   55.4750   39.3960 N.ar  591  TRP591     -0.2442
     98  CE2        1.2950   54.1860   39.8730 C.ar  591  TRP591      0.0810
     99  CE3        0.4280   53.0100   41.8190 C.ar  591  TRP591      0.0012
    100  CZ2        1.7970   52.9880   39.3250 C.ar  591  TRP591      0.0191
    101  CZ3        0.8970   51.8210   41.2610 C.ar  591  TRP591      0.0001
    102  CH2        1.5750   51.8160   40.0300 C.ar  591  TRP591      0.0015
    103  N          0.7310   59.1800   42.0840 N.am  592  SER592     -0.1938
    104  CA         0.4900   60.4430   41.3490 C.3   592  SER592      0.2055
    105  C          0.1480   61.5890   42.3140 C.2   592  SER592      0.2643
    106  O          0.9320   61.8190   43.2270 O.2   592  SER592     -0.2714
    107  CB        -0.5600   60.2380   40.2460 C.3   592  SER592      0.2130
    108  OG        -0.4940   61.3030   39.3140 O.3   592  SER592     -0.2179
    109  N         -1.0320   62.2380   42.1990 N.am  593  TYR593     -0.1973
    110  CA        -1.3880   63.3020   43.1620 C.3   593  TYR593      0.1639
    111  C         -1.4220   62.7170   44.5840 C.2   593  TYR593      0.2290
    112  O         -0.9790   63.3750   45.5250 O.2   593  TYR593     -0.2864
    113  CB        -2.7630   63.9210   42.8210 C.3   593  TYR593      0.0560
    114  CG        -2.9610   65.2760   43.4680 C.ar  593  TYR593     -0.0198
    115  CD1       -3.2310   65.3910   44.8340 C.ar  593  TYR593     -0.0009
    116  CD2       -2.8840   66.4460   42.7190 C.ar  593  TYR593     -0.0009
    117  CE1       -3.3930   66.6410   45.4370 C.ar  593  TYR593      0.0417
    118  CE2       -3.0850   67.6960   43.3020 C.ar  593  TYR593      0.0417
    119  CZ        -3.2980   67.7920   44.6680 C.ar  593  TYR593      0.1957
    120  OH        -3.4640   69.0200   45.2510 O.3   593  TYR593     -0.2866
    121  N          4.1710   63.7580   42.4660 N.3   618  VAL618     -0.1245
    122  CA         4.6060   65.1240   42.1740 C.3   618  VAL618      0.1561
    123  C          5.3550   65.5360   43.4690 C.2   618  VAL618      0.2260
    124  O          4.9490   65.1370   44.5730 O.2   618  VAL618     -0.2867
    125  CB         3.3930   66.0640   41.9030 C.3   618  VAL618      0.0252
    126  CG1        3.7840   67.5510   42.0430 C.3   618  VAL618      0.0019
    127  CG2        2.8290   65.7950   40.5070 C.3   618  VAL618      0.0019
    128  N          5.3960   71.7470   42.2380 N.3   621  TRP621     -0.1241
    129  CA         4.4700   72.1260   41.1620 C.3   621  TRP621      0.1605
    130  C          5.0900   72.6930   39.8970 C.2   621  TRP621      0.2264
    131  O          4.5660   72.4530   38.8090 O.2   621  TRP621     -0.2867
    132  CB         3.2580   72.9110   41.6810 C.3   621  TRP621      0.0550
    133  CG         2.3680   72.0200   42.5060 C.ar  621  TRP621      0.0003
    134  CD1        2.1950   72.0610   43.8590 C.ar  621  TRP621      0.0946
    135  CD2        1.5950   70.8960   42.0340 C.ar  621  TRP621      0.0152
    136  NE1        1.3420   71.0630   44.2590 N.ar  621  TRP621     -0.2442
    137  CE2        0.9910   70.3030   43.1660 C.ar  621  TRP621      0.0810
    138  CE3        1.3990   70.3020   40.7650 C.ar  621  TRP621      0.0012
    139  CZ2        0.2050   69.1390   43.0780 C.ar  621  TRP621      0.0191
    140  CZ3        0.5920   69.1690   40.6640 C.ar  621  TRP621      0.0001
    141  CH2       -0.0090   68.6050   41.8060 C.ar  621  TRP621      0.0015
    142  N          5.4700   69.9660   37.2130 N.3   624  TYR624     -0.1241
    143  CA         4.3260   69.3640   36.5470 C.3   624  TYR624      0.1605
    144  C          3.8460   70.1990   35.3470 C.2   624  TYR624      0.2264
    145  O          4.3070   71.3280   35.1680 O.2   624  TYR624     -0.2867
    146  CB         3.2090   69.0000   37.5490 C.3   624  TYR624      0.0534
    147  CG         2.3060   67.9170   36.9980 C.ar  624  TYR624     -0.0201
    148  CD1        2.8350   66.7150   36.5280 C.ar  624  TYR624     -0.0009
    149  CD2        0.9390   68.1360   36.8430 C.ar  624  TYR624     -0.0009
    150  CE1        2.0210   65.7340   35.9660 C.ar  624  TYR624      0.0417
    151  CE2        0.1100   67.1590   36.2800 C.ar  624  TYR624      0.0417
    152  CZ         0.6550   65.9530   35.8640 C.ar  624  TYR624      0.1957
    153  OH        -0.1460   64.9960   35.3160 O.3   624  TYR624     -0.2866
    154  N         -2.6520   71.3860   33.7730 N.3   628  TYR628     -0.1241
    155  CA        -3.1950   70.9100   35.0480 C.3   628  TYR628      0.1605
    156  C         -2.7650   71.8430   36.1810 C.2   628  TYR628      0.2264
    157  O         -3.6070   72.3050   36.9650 O.2   628  TYR628     -0.2867
    158  CB        -2.7030   69.4730   35.3370 C.3   628  TYR628      0.0534
    159  CG        -3.2460   68.8950   36.6340 C.ar  628  TYR628     -0.0201
    160  CD1       -2.5850   69.0990   37.8430 C.ar  628  TYR628     -0.0009
    161  CD2       -4.4600   68.2030   36.6580 C.ar  628  TYR628     -0.0009
    162  CE1       -3.0950   68.5890   39.0420 C.ar  628  TYR628      0.0417
    163  CE2       -4.9800   67.6900   37.8490 C.ar  628  TYR628      0.0417
    164  CZ        -4.2860   67.8770   39.0350 C.ar  628  TYR628      0.1957
    165  OH        -4.7840   67.3650   40.2050 O.3   628  TYR628     -0.2866
    166  N         -4.1990   75.4610   36.3680 N.3   631  ARG631     -0.1245
    167  CA        -5.6500   75.4960   36.5590 C.3   631  ARG631      0.1563
    168  C         -5.9870   75.8450   38.0130 C.2   631  ARG631      0.2260
    169  O         -6.9140   76.6230   38.2680 O.2   631  ARG631     -0.2867
    170  CB        -6.2490   74.1320   36.2020 C.3   631  ARG631      0.0307
    171  CG        -7.7600   74.1360   36.1250 C.3   631  ARG631      0.0489
    172  CD        -8.2580   72.7350   35.7760 C.3   631  ARG631      0.2205
    173  NE        -7.8020   72.3170   34.4440 N.pl3 631  ARG631     -0.0865
    174  CZ        -7.3680   71.0960   34.1400 C.cat 631  ARG631      0.5346
    175  NH1       -7.2970   70.1530   35.0790 N.pl3 631  ARG631      0.1354
    176  NH2       -7.0150   70.8020   32.8890 N.pl3 631  ARG631      0.1354
    177  N          4.8230   61.5970   32.2190 N.3   672  ASN672     -0.1225
    178  CA         3.7750   62.4060   32.8320 C.3   672  ASN672      0.1785
    179  C          4.2950   63.1130   34.1010 C.2   672  ASN672      0.2597
    180  O          4.4870   64.3300   34.0950 O.2   672  ASN672     -0.2718
    181  CB         2.5730   61.4790   33.0920 C.3   672  ASN672      0.1169
    182  CG         1.3550   62.1470   33.6310 C.2   672  ASN672      0.2627
    183  OD1        1.3420   63.3320   33.9530 O.2   672  ASN672     -0.2716
    184  ND2        0.2850   61.3820   33.7210 N.am  672  ASN672     -0.0877
    185  N          4.5220   62.3460   35.1630 N.am  673  VAL673     -0.1980
    186  CA         5.1590   62.8340   36.3850 C.3   673  VAL673      0.1595
    187  C          6.6130   62.3770   36.1840 C.2   673  VAL673      0.2287
    188  O          6.9440   61.1970   36.3480 O.2   673  VAL673     -0.2864
    189  CB         4.5510   62.2780   37.6950 C.3   673  VAL673      0.0276
    190  CG1        5.3470   62.8040   38.8960 C.3   673  VAL673      0.0022
    191  CG2        3.0680   62.6530   37.8260 C.3   673  VAL673      0.0022
    192  N          4.0930   56.1560   33.7570 N.3   702  HIS702     -0.1226
    193  CA         3.2450   56.5240   34.8820 C.3   702  HIS702      0.1752
    194  C          2.3560   55.3920   35.3940 C.2   702  HIS702      0.2596
    195  O          2.0150   55.3720   36.5770 O.2   702  HIS702     -0.2718
    196  CB         2.4000   57.7650   34.5550 C.3   702  HIS702      0.0759
    197  CG         1.9040   58.4440   35.7860 C.ar  702  HIS702      0.0818
    198  ND1        2.7760   58.9400   36.7360 N.ar  702  HIS702     -0.2268
    199  CD2        0.6340   58.6470   36.2010 C.ar  702  HIS702      0.1154
    200  CE1        2.0090   59.4340   37.6910 C.ar  702  HIS702      0.1986
    201  NE2        0.7150   59.2850   37.4020 N.ar  702  HIS702     -0.2212
    202  N          2.0160   54.4530   34.5170 N.am  703  GLY703     -0.1957
    203  CA         1.1560   53.3480   34.9300 C.3   703  GLY703      0.1869
    204  C          1.8520   52.1880   35.6290 C.2   703  GLY703      0.2309
    205  O          1.1590   51.3870   36.2700 O.2   703  GLY703     -0.2863
    206  N          3.5160   45.6190   43.3980 N.3   714  TYR714     -0.1241
    207  CA         2.5940   45.2610   44.4690 C.3   714  TYR714      0.1605
    208  C          3.2150   44.2650   45.4410 C.2   714  TYR714      0.2264
    209  O          2.9300   44.3510   46.6320 O.2   714  TYR714     -0.2867
    210  CB         1.2560   44.8070   43.8840 C.3   714  TYR714      0.0534
    211  CG         0.4110   46.0040   43.4970 C.ar  714  TYR714     -0.0201
    212  CD1       -0.2240   46.7780   44.4680 C.ar  714  TYR714     -0.0009
    213  CD2        0.3200   46.4190   42.1690 C.ar  714  TYR714     -0.0009
    214  CE1       -0.9680   47.9090   44.1230 C.ar  714  TYR714      0.0417
    215  CE2       -0.4190   47.5530   41.8130 C.ar  714  TYR714      0.0417
    216  CZ        -1.0590   48.2940   42.7930 C.ar  714  TYR714      0.1957
    217  OH        -1.7920   49.4050   42.4480 O.3   714  TYR714     -0.2866
@<TRIPOS>BOND
     1    32    33    2
     2    32    31    1
     3    30    31    1
     4     3     4    2
     5     3     2    1
     6    31    34    1
     7     1     2    1
     8    12    13    1
     9     2     5    1
    10    34    35    1
    11    13    16    1
    12    13    14    1
    13     5     6    1
    14    21    14   am
    15    21    22    1
    16    16    17    1
    17    14    15    2
    18    23    22    1
    19    23    24    2
    20     6     7    1
    21    22    25    1
    22    19    18   ar
    23     7     8    1
    24    25    26    1
    25    17    18    1
    26    18    20   ar
    27    26    27    1
    28     8     9    2
    29   177   178    1
    30    27    28   ar
    31    27    29   ar
    32     9    10    1
    33     9    11    1
    34   178   181    1
    35   178   179    1
    36   176   174    1
    37    39    38    2
    38   181   182    1
    39    38    37    1
    40   182   184   am
    41   182   183    2
    42   192   193    1
    43   154   155    1
    44   180   179    2
    45   179   185   am
    46   174   173    2
    47   174   175    1
    48    40    37    1
    49    40    41    1
    50   173   172    1
    51   202   203    1
    52   202   194   am
    53   196   193    1
    54   196   197    1
    55    37    36    1
    56   193   194    1
    57   203   204    1
    58   155   158    1
    59   155   156    1
    60   185   186    1
    61   145   144    2
    62   153   152    1
    63   158   159    1
    64   144   143    1
    65   194   195    2
    66    41    43   ar
    67    41    42   ar
    68   204   205    2
    69   172   171    1
    70   197   199   ar
    71   197   198   ar
    72   152   150   ar
    73   152   151   ar
    74   150   148   ar
    75    43    45   ar
    76   171   170    1
    77   156   157    2
    78   187   188    2
    79   187   186    1
    80   199   201   ar
    81   170   167    1
    82    42    44   ar
    83   151   149   ar
    84   166   167    1
    85   186   189    1
    86   148   147   ar
    87   143   142    1
    88   143   146    1
    89   167   168    1
    90   159   161   ar
    91   159   160   ar
    92   161   163   ar
    93   198   200   ar
    94   149   147   ar
    95   147   146    1
    96    45    46   ar
    97    44    46   ar
    98   201   200   ar
    99   189   191    1
   100   189   190    1
   101   160   162   ar
   102   163   164   ar
   103   168   169    2
   104   131   130    2
   105   164   162   ar
   106   164   165    1
   107   108   107    1
   108   100    98   ar
   109   100   102   ar
   110    97    98   ar
   111    97    95   ar
   112    98    96   ar
   113   130   129    1
   114   102   101   ar
   115    65    64    1
   116   107   104    1
   117    95    94   ar
   118   127   125    1
   119   140   138   ar
   120   140   141   ar
   121   138   135   ar
   122    96    94   ar
   123    96    99   ar
   124   129   132    1
   125   129   128    1
   126    64    63   ar
   127    64    62   ar
   128   101    99   ar
   129   104   103    1
   130   104   105    1
   131    94    93    1
   132    63    61   ar
   133   132   133    1
   134   141   139   ar
   135   215   213   ar
   136   215   216   ar
   137   125   126    1
   138   125   122    1
   139   135   133   ar
   140   135   137   ar
   141   103    91   am
   142    62    60   ar
   143   213   211   ar
   144   122   121    1
   145   122   123    1
   146   109   105   am
   147   109   110    1
   148   105   106    2
   149   217   216    1
   150   133   134   ar
   151    93    90    1
   152    61    59   ar
   153   116   118   ar
   154   116   114   ar
   155    91    92    2
   156    91    90    1
   157   216   214   ar
   158   113   110    1
   159   113   114    1
   160   139   137   ar
   161   110   111    1
   162   137   136   ar
   163    60    59   ar
   164   118   119   ar
   165    90    89    1
   166   206   207    1
   167   114   115   ar
   168   123   124    2
   169   211   210    1
   170   211   212   ar
   171    59    58    1
   172   134   136   ar
   173   210   207    1
   174   214   212   ar
   175   207   208    1
   176   111   112    2
   177   119   120    1
   178   119   117   ar
   179    58    55    1
   180   115   117   ar
   181    88    87   ar
   182    88    86   ar
   183   208   209    2
   184    72    71    1
   185    72    73    1
   186    87    85   ar
   187    74    73    1
   188    55    56    1
   189    55    54    1
   190    66    67    1
   191    56    57    2
   192    86    84   ar
   193    71    70    1
   194    67    70    1
   195    67    68    1
   196    50    49    2
   197    85    82   ar
   198    54    49   am
   199    68    69    2
   200    49    48    1
   201    84    82   ar
   202    84    83   ar
   203    82    80   ar
   204    83    81   ar
   205    48    47    1
   206    48    51    1
   207    77    78    2
   208    77    76    1
   209    80    81   ar
   210    80    79    1
   211    52    51    1
   212    51    53    1
   213    79    76    1
   214    76    75    1
