@<TRIPOS>MOLECULE
tmp/5t4fA06.pdb
 206 204 0 0 0
SMALL
GASTEIGER

@<TRIPOS>ATOM
      1  N         37.4660   61.3980   36.5570 N.3    87  ARG87      -0.1245
      2  CA        38.3010   60.9540   37.6660 C.3    87  ARG87       0.1563
      3  C         39.5010   61.8760   37.9300 C.2    87  ARG87       0.2260
      4  O         39.8420   62.1300   39.0860 O.2    87  ARG87      -0.2867
      5  CB        38.7670   59.5030   37.4840 C.3    87  ARG87       0.0307
      6  CG        39.4390   58.9010   38.7290 C.3    87  ARG87       0.0489
      7  CD        40.0890   57.5540   38.4050 C.3    87  ARG87       0.2205
      8  NE        39.1210   56.5300   37.9710 N.pl3  87  ARG87      -0.0865
      9  CZ        38.5900   55.6090   38.7680 C.cat  87  ARG87       0.5346
     10  NH1       38.8610   55.6090   40.0670 N.pl3  87  ARG87       0.1354
     11  NH2       37.7750   54.6850   38.2730 N.pl3  87  ARG87       0.1354
     12  N         40.5570   57.9160   31.5800 N.3   167  GLU167     -0.1231
     13  CA        40.1880   56.8750   32.5160 C.3   167  GLU167      0.1699
     14  C         41.0450   55.6060   32.4160 C.2   167  GLU167      0.2592
     15  O         41.4630   55.0760   33.4470 O.2   167  GLU167     -0.2718
     16  CB        38.6790   56.5340   32.3630 C.3   167  GLU167      0.0402
     17  CG        38.2040   55.4040   33.2950 C.3   167  GLU167      0.1161
     18  CD        38.2580   55.6510   34.7950 C.2   167  GLU167      0.3649
     19  OE1       38.4500   56.8150   35.2280 O.co2 167  GLU167     -0.2457
     20  OE2       38.0190   54.6750   35.5420 O.co2 167  GLU167     -0.2457
     21  N         41.2880   55.1380   31.1890 N.am  168  GLU168     -0.1979
     22  CA        41.8800   53.8270   30.9320 C.3   168  GLU168      0.1602
     23  C         43.3030   53.7400   30.4320 C.2   168  GLU168      0.2287
     24  O         43.8370   52.6360   30.4210 O.2   168  GLU168     -0.2864
     25  CB        40.9710   53.0470   29.9510 C.3   168  GLU168      0.0415
     26  CG        39.5110   52.9890   30.3690 C.3   168  GLU168      0.1163
     27  CD        39.2270   52.1570   31.6080 C.2   168  GLU168      0.3649
     28  OE1       40.1820   51.6730   32.2640 O.co2 168  GLU168     -0.2457
     29  OE2       38.0350   52.0560   31.9630 O.co2 168  GLU168     -0.2457
     30  N         45.4780   57.5920   32.9560 N.3   171  SER171     -0.1217
     31  CA        45.0900   57.8750   34.3620 C.3   171  SER171      0.1889
     32  C         45.3860   59.3720   34.6560 C.2   171  SER171      0.2288
     33  O         45.9050   59.7210   35.7220 O.2   171  SER171     -0.2866
     34  CB        45.8410   56.9850   35.3540 C.3   171  SER171      0.2089
     35  OG        45.7070   55.6080   35.0490 O.3   171  SER171     -0.2183
     36  N         48.1240   46.8750   33.1760 N.3   319  PHE319     -0.1241
     37  CA        46.9690   47.5880   32.6260 C.3   319  PHE319      0.1605
     38  C         47.3610   48.2130   31.2860 C.2   319  PHE319      0.2264
     39  O         46.4890   48.6230   30.5410 O.2   319  PHE319     -0.2867
     40  CB        46.4420   48.6580   33.5940 C.3   319  PHE319      0.0534
     41  CG        45.7990   48.0320   34.8110 C.ar  319  PHE319     -0.0203
     42  CD1       44.4450   47.7080   34.8130 C.ar  319  PHE319     -0.0042
     43  CD2       46.5540   47.7500   35.9500 C.ar  319  PHE319     -0.0042
     44  CE1       43.8630   47.0970   35.9240 C.ar  319  PHE319     -0.0003
     45  CE2       45.9720   47.1360   37.0550 C.ar  319  PHE319     -0.0003
     46  CZ        44.6280   46.8310   37.0400 C.ar  319  PHE319     -0.0000
     47  N         34.7160   41.8900   47.7990 N.3   508  VAL508     -0.1231
     48  CA        35.3220   41.4990   46.5320 C.3   508  VAL508      0.1692
     49  C         35.6340   42.6300   45.5440 C.2   508  VAL508      0.2592
     50  O         34.8480   43.5670   45.3970 O.2   508  VAL508     -0.2718
     51  CB        34.4250   40.3970   45.8560 C.3   508  VAL508      0.0266
     52  CG1       33.0310   40.8940   45.5920 C.3   508  VAL508      0.0020
     53  CG2       35.0310   39.8570   44.5620 C.3   508  VAL508      0.0020
     54  N         36.7500   42.4740   44.8330 N.am  509  TYR509     -0.1976
     55  CA        37.1050   43.3080   43.6880 C.3   509  TYR509      0.1639
     56  C         37.2150   42.2320   42.5960 C.2   509  TYR509      0.2290
     57  O         36.2790   42.0950   41.8220 O.2   509  TYR509     -0.2864
     58  CB        38.4080   44.1300   43.9440 C.3   509  TYR509      0.0560
     59  CG        39.0320   44.8100   42.7300 C.ar  509  TYR509     -0.0198
     60  CD1       38.4320   44.7360   41.4700 C.ar  509  TYR509     -0.0009
     61  CD2       40.2540   45.4800   42.8330 C.ar  509  TYR509     -0.0009
     62  CE1       39.0300   45.3200   40.3460 C.ar  509  TYR509      0.0417
     63  CE2       40.8480   46.0810   41.7250 C.ar  509  TYR509      0.0417
     64  CZ        40.2420   45.9800   40.4810 C.ar  509  TYR509      0.1957
     65  OH        40.8560   46.5130   39.3760 O.3   509  TYR509     -0.2866
     66  N         43.3770   42.1130   46.7940 N.3   516  LYS516     -0.1245
     67  CA        42.5910   42.4660   47.9870 C.3   516  LYS516      0.1561
     68  C         43.1250   41.8340   49.2690 C.2   516  LYS516      0.2260
     69  O         42.6070   42.0920   50.3500 O.2   516  LYS516     -0.2867
     70  CB        41.1130   42.0920   47.7680 C.3   516  LYS516      0.0271
     71  CG        40.4040   43.0480   46.8170 C.3   516  LYS516      0.0035
     72  CD        39.9560   44.3330   47.5510 C.3   516  LYS516      0.0206
     73  CE        38.5730   44.1930   48.1580 C.3   516  LYS516      0.1093
     74  NZ        38.2620   45.3700   48.9970 N.3   516  LYS516     -0.1314
     75  N         29.8930   41.4460   48.9530 N.3   589  TRP589     -0.1241
     76  CA        29.6460   42.7950   48.4470 C.3   589  TRP589      0.1605
     77  C         30.8290   43.2920   47.6240 C.2   589  TRP589      0.2264
     78  O         31.9620   42.8910   47.8630 O.2   589  TRP589     -0.2867
     79  CB        29.2930   43.7700   49.5800 C.3   589  TRP589      0.0550
     80  CG        30.4320   44.5740   50.1220 C.ar  589  TRP589      0.0003
     81  CD1       31.3670   44.1740   51.0380 C.ar  589  TRP589      0.0946
     82  CD2       30.7270   45.9450   49.8150 C.ar  589  TRP589      0.0152
     83  NE1       32.2600   45.1980   51.2760 N.ar  589  TRP589     -0.2442
     84  CE2       31.8630   46.3090   50.5730 C.ar  589  TRP589      0.0810
     85  CE3       30.1160   46.9120   48.9900 C.ar  589  TRP589      0.0012
     86  CZ2       32.3970   47.6060   50.5470 C.ar  589  TRP589      0.0191
     87  CZ3       30.6900   48.1720   48.9060 C.ar  589  TRP589      0.0001
     88  CH2       31.8080   48.5160   49.6860 C.ar  589  TRP589      0.0015
     89  N         32.0860   46.7940   44.6910 N.3   591  TRP591     -0.1227
     90  CA        31.8040   48.0190   43.9540 C.3   591  TRP591      0.1737
     91  C         32.4270   47.8680   42.5610 C.2   591  TRP591      0.2596
     92  O         33.5090   47.2600   42.4140 O.2   591  TRP591     -0.2718
     93  CB        32.4940   49.1970   44.6850 C.3   591  TRP591      0.0564
     94  CG        31.9430   50.5740   44.4350 C.ar  591  TRP591      0.0003
     95  CD1       31.9120   51.2470   43.2470 C.ar  591  TRP591      0.0946
     96  CD2       31.5380   51.5100   45.4400 C.ar  591  TRP591      0.0152
     97  NE1       31.4460   52.5260   43.4410 N.ar  591  TRP591     -0.2442
     98  CE2       31.2140   52.7200   44.7800 C.ar  591  TRP591      0.0810
     99  CE3       31.3550   51.4240   46.8410 C.ar  591  TRP591      0.0012
    100  CZ2       30.7000   53.8320   45.4600 C.ar  591  TRP591      0.0191
    101  CZ3       30.8900   52.5480   47.5270 C.ar  591  TRP591      0.0001
    102  CH2       30.5480   53.7280   46.8340 C.ar  591  TRP591      0.0015
    103  N         31.7640   48.4240   41.5370 N.am  592  SER592     -0.1938
    104  CA        32.3470   48.4580   40.1700 C.3   592  SER592      0.2055
    105  C         32.5970   47.0260   39.6480 C.2   592  SER592      0.2643
    106  O         31.6370   46.2620   39.5870 O.2   592  SER592     -0.2714
    107  CB        33.6250   49.3110   40.1970 C.3   592  SER592      0.2130
    108  OG        34.1240   49.6000   38.9040 O.3   592  SER592     -0.2179
    109  N         33.8580   46.6300   39.3260 N.am  593  TYR593     -0.1973
    110  CA        34.1650   45.2410   38.9300 C.3   593  TYR593      0.1639
    111  C         33.7170   44.2940   40.0870 C.2   593  TYR593      0.2290
    112  O         33.1850   43.2190   39.8290 O.2   593  TYR593     -0.2864
    113  CB        35.6900   45.0250   38.6270 C.3   593  TYR593      0.0560
    114  CG        35.9360   43.7730   37.8090 C.ar  593  TYR593     -0.0198
    115  CD1       35.8070   42.5050   38.3790 C.ar  593  TYR593     -0.0009
    116  CD2       36.2170   43.8500   36.4450 C.ar  593  TYR593     -0.0009
    117  CE1       35.9700   41.3450   37.6150 C.ar  593  TYR593      0.0417
    118  CE2       36.3620   42.6990   35.6680 C.ar  593  TYR593      0.0417
    119  CZ        36.2220   41.4500   36.2570 C.ar  593  TYR593      0.1957
    120  OH        36.4110   40.3180   35.5200 O.3   593  TYR593     -0.2866
    121  N         29.1490   46.5060   36.8000 N.3   618  VAL618     -0.1245
    122  CA        29.0810   46.2150   35.3750 C.3   618  VAL618      0.1561
    123  C         28.0650   45.0340   35.3160 C.2   618  VAL618      0.2260
    124  O         28.0270   44.2120   36.2400 O.2   618  VAL618     -0.2867
    125  CB        30.4560   45.8120   34.7980 C.3   618  VAL618      0.0252
    126  CG1       30.3200   45.0380   33.4720 C.3   618  VAL618      0.0019
    127  CG2       31.3340   47.0480   34.6170 C.3   618  VAL618      0.0019
    128  N         29.4000   43.1950   29.4030 N.3   621  TRP621     -0.1241
    129  CA        30.6470   43.8110   28.9240 C.3   621  TRP621      0.1605
    130  C         30.5150   44.7370   27.7360 C.2   621  TRP621      0.2264
    131  O         31.2980   45.6870   27.6190 O.2   621  TRP621     -0.2867
    132  CB        31.8020   42.8050   28.7980 C.3   621  TRP621      0.0550
    133  CG        32.2600   42.3580   30.1490 C.ar  621  TRP621      0.0003
    134  CD1       32.0320   41.1470   30.7300 C.ar  621  TRP621      0.0946
    135  CD2       32.8920   43.1750   31.1490 C.ar  621  TRP621      0.0152
    136  NE1       32.5050   41.1440   32.0180 N.ar  621  TRP621     -0.2442
    137  CE2       33.0390   42.3780   32.3070 C.ar  621  TRP621      0.0810
    138  CE3       33.3420   44.5180   31.1790 C.ar  621  TRP621      0.0012
    139  CZ2       33.6070   42.8710   33.4900 C.ar  621  TRP621      0.0191
    140  CZ3       33.8990   45.0110   32.3540 C.ar  621  TRP621      0.0001
    141  CH2       34.0630   44.1830   33.4820 C.ar  621  TRP621      0.0015
    142  N         30.4020   48.3880   28.8360 N.3   624  TYR624     -0.1241
    143  CA        31.5940   49.0240   29.3820 C.3   624  TYR624      0.1605
    144  C         32.5090   49.5800   28.2780 C.2   624  TYR624      0.2264
    145  O         32.2830   49.2970   27.0860 O.2   624  TYR624     -0.2867
    146  CB        32.2910   48.1580   30.4750 C.3   624  TYR624      0.0534
    147  CG        33.1350   48.9930   31.4250 C.ar  624  TYR624     -0.0201
    148  CD1       32.5680   50.0310   32.1690 C.ar  624  TYR624     -0.0009
    149  CD2       34.5080   48.7840   31.5370 C.ar  624  TYR624     -0.0009
    150  CE1       33.3560   50.8740   32.9500 C.ar  624  TYR624      0.0417
    151  CE2       35.2970   49.5880   32.3570 C.ar  624  TYR624      0.0417
    152  CZ        34.7160   50.6310   33.0650 C.ar  624  TYR624      0.1957
    153  OH        35.4910   51.4090   33.8860 O.3   624  TYR624     -0.2866
    154  N         39.3410   49.2610   28.4690 N.3   628  TYR628     -0.1241
    155  CA        39.4080   48.2700   29.5420 C.3   628  TYR628      0.1605
    156  C         38.8060   46.9410   29.0900 C.2   628  TYR628      0.2264
    157  O         39.4550   45.9210   29.2410 O.2   628  TYR628     -0.2867
    158  CB        38.6600   48.7730   30.7790 C.3   628  TYR628      0.0534
    159  CG        38.7150   47.8250   31.9560 C.ar  628  TYR628     -0.0201
    160  CD1       37.7400   46.8380   32.1310 C.ar  628  TYR628     -0.0009
    161  CD2       39.7530   47.8950   32.8850 C.ar  628  TYR628     -0.0009
    162  CE1       37.7960   45.9530   33.2040 C.ar  628  TYR628      0.0417
    163  CE2       39.8140   47.0200   33.9650 C.ar  628  TYR628      0.0417
    164  CZ        38.8190   46.0640   34.1290 C.ar  628  TYR628      0.1957
    165  OH        38.8810   45.1910   35.1800 O.3   628  TYR628     -0.2866
    166  N         31.0330   56.5120   34.1680 N.3   672  ASN672     -0.1225
    167  CA        31.9930   55.4210   34.0240 C.3   672  ASN672      0.1785
    168  C         31.2730   54.0860   33.7990 C.2   672  ASN672      0.2597
    169  O         31.3300   53.5420   32.6950 O.2   672  ASN672     -0.2718
    170  CB        32.8760   55.4180   35.2920 C.3   672  ASN672      0.1169
    171  CG        34.0030   54.4170   35.2730 C.2   672  ASN672      0.2627
    172  OD1       34.1020   53.5490   34.4080 O.2   672  ASN672     -0.2716
    173  ND2       34.9480   54.6020   36.1600 N.am  672  ASN672     -0.0877
    174  N         30.6470   53.5530   34.8510 N.am  673  VAL673     -0.1980
    175  CA        29.7860   52.3640   34.7590 C.3   673  VAL673      0.1595
    176  C         28.3860   52.9870   34.6840 C.2   673  VAL673      0.2287
    177  O         27.8430   53.4530   35.6870 O.2   673  VAL673     -0.2864
    178  CB        29.9390   51.3820   35.9470 C.3   673  VAL673      0.0276
    179  CG1       28.9560   50.1950   35.7800 C.3   673  VAL673      0.0022
    180  CG2       31.3840   50.8800   36.0380 C.3   673  VAL673      0.0022
    181  N         30.4170   57.5280   39.7880 N.3   702  HIS702     -0.1226
    182  CA        31.0030   56.2350   40.1910 C.3   702  HIS702      0.1752
    183  C         31.5140   56.1720   41.6270 C.2   702  HIS702      0.2596
    184  O         31.6130   55.0960   42.2030 O.2   702  HIS702     -0.2718
    185  CB        32.1220   55.8110   39.2120 C.3   702  HIS702      0.0759
    186  CG        32.3330   54.3240   39.1680 C.ar  702  HIS702      0.0818
    187  ND1       31.2820   53.4570   38.9430 N.ar  702  HIS702     -0.2268
    188  CD2       33.4640   53.6050   39.3580 C.ar  702  HIS702      0.1154
    189  CE1       31.7980   52.2320   39.0040 C.ar  702  HIS702      0.1986
    190  NE2       33.1100   52.2660   39.2130 N.ar  702  HIS702     -0.2212
    191  N         31.8970   57.3140   42.1640 N.am  703  GLY703     -0.1957
    192  CA        32.4260   57.3770   43.5150 C.3   703  GLY703      0.1869
    193  C         31.3700   57.4270   44.6050 C.2   703  GLY703      0.2309
    194  O         31.6900   57.1020   45.7450 O.2   703  GLY703     -0.2863
    195  N         26.6110   54.0990   53.0170 N.3   714  TYR714     -0.1241
    196  CA        27.1510   53.1980   54.0400 C.3   714  TYR714      0.1605
    197  C         26.1570   52.9140   55.1600 C.2   714  TYR714      0.2264
    198  O         26.1130   51.7940   55.6680 O.2   714  TYR714     -0.2867
    199  CB        28.5200   53.6960   54.5420 C.3   714  TYR714      0.0534
    200  CG        29.6180   53.2840   53.5850 C.ar  714  TYR714     -0.0201
    201  CD1       30.1090   51.9780   53.5790 C.ar  714  TYR714     -0.0009
    202  CD2       30.0610   54.1500   52.5890 C.ar  714  TYR714     -0.0009
    203  CE1       31.0750   51.5740   52.6620 C.ar  714  TYR714      0.0417
    204  CE2       31.0540   53.7690   51.6880 C.ar  714  TYR714      0.0417
    205  CZ        31.5740   52.4850   51.7460 C.ar  714  TYR714      0.1957
    206  OH        32.5280   52.0840   50.8640 O.3   714  TYR714     -0.2866
@<TRIPOS>BOND
     1   145   144    2
     2   131   130    2
     3   130   129    1
     4   144   143    1
     5   154   155    1
     6   132   129    1
     7   132   133    1
     8   142   143    1
     9   129   128    1
    10   156   157    2
    11   156   155    1
    12   143   146    1
    13   155   158    1
    14    25    26    1
    15    25    22    1
    16   133   134   ar
    17   133   135   ar
    18    26    27    1
    19    24    23    2
    20    23    22    1
    21   146   147    1
    22    39    38    2
    23   134   136   ar
    24   158   159    1
    25    22    21    1
    26   135   138   ar
    27   135   137   ar
    28   138   140   ar
    29    21    14   am
    30    38    37    1
    31   147   149   ar
    32   147   148   ar
    33   149   151   ar
    34    12    13    1
    35    27    29   ar
    36    27    28   ar
    37   159   160   ar
    38   159   161   ar
    39   136   137   ar
    40   160   162   ar
    41   148   150   ar
    42   137   139   ar
    43   140   141   ar
    44   151   152   ar
    45    16    13    1
    46    16    17    1
    47    14    13    1
    48    14    15    2
    49    37    36    1
    50    37    40    1
    51   169   168    2
    52   161   163   ar
    53   150   152   ar
    54    30    31    1
    55   152   153    1
    56   162   164   ar
    57    17    18    1
    58   126   125    1
    59   141   139   ar
    60    40    41    1
    61   168   167    1
    62   168   174   am
    63   163   164   ar
    64   167   166    1
    65   167   170    1
    66   164   165    1
    67    31    32    1
    68    31    34    1
    69   172   171    2
    70   127   125    1
    71    32    33    2
    72   176   175    1
    73   176   177    2
    74   175   174    1
    75   175   178    1
    76    18    19   ar
    77    18    20   ar
    78   125   122    1
    79    41    42   ar
    80    41    43   ar
    81    42    44   ar
    82    35    34    1
    83   171   170    1
    84   171   173   am
    85   123   122    1
    86   123   124    2
    87   122   121    1
    88   120   119    1
    89   118   119   ar
    90   118   116   ar
    91   179   178    1
    92    44    46   ar
    93   178   180    1
    94    43    45   ar
    95   119   117   ar
    96   116   114   ar
    97     1     2    1
    98    46    45   ar
    99     5     2    1
   100     5     6    1
   101   117   115   ar
   102     2     3    1
   103   114   115   ar
   104   114   113    1
   105     3     4    2
   106     8     7    1
   107     8     9    2
   108    11     9    1
   109     7     6    1
   110   113   110    1
   111     9    10    1
   112   108   107    1
   113   110   109    1
   114   110   111    1
   115   187   189   ar
   116   187   186   ar
   117   189   190   ar
   118   186   185    1
   119   186   188   ar
   120   185   182    1
   121   190   188   ar
   122   109   105   am
   123    65    64    1
   124   106   105    2
   125   105   104    1
   126   181   182    1
   127   112   111    2
   128   104   107    1
   129   104   103    1
   130   182   183    1
   131    62    64   ar
   132    62    60   ar
   133    64    63   ar
   134    60    59   ar
   135   103    91   am
   136   183   191   am
   137   183   184    2
   138    63    61   ar
   139    57    56    2
   140   191   192    1
   141    92    91    2
   142    91    90    1
   143    56    55    1
   144    59    61   ar
   145    59    58    1
   146    95    97   ar
   147    95    94   ar
   148    97    98   ar
   149   192   193    1
   150    55    58    1
   151    55    54    1
   152    90    93    1
   153    90    89    1
   154    94    93    1
   155    94    96   ar
   156    53    51    1
   157   193   194    2
   158    98    96   ar
   159    98   100   ar
   160    54    49   am
   161    50    49    2
   162    96    99   ar
   163   100   102   ar
   164    49    48    1
   165    52    51    1
   166    51    48    1
   167    48    47    1
   168    66    67    1
   169    71    72    1
   170    71    70    1
   171   102   101   ar
   172    99   101   ar
   173    72    73    1
   174    77    78    2
   175    77    76    1
   176    70    67    1
   177    67    68    1
   178    73    74    1
   179    76    75    1
   180    76    79    1
   181    87    85   ar
   182    87    88   ar
   183    85    82   ar
   184    68    69    2
   185    79    80    1
   186    88    86   ar
   187    82    80   ar
   188    82    84   ar
   189    80    81   ar
   190    86    84   ar
   191    84    83   ar
   192   206   205    1
   193    81    83   ar
   194   204   205   ar
   195   204   202   ar
   196   205   203   ar
   197   202   200   ar
   198   203   201   ar
   199   195   196    1
   200   201   200   ar
   201   200   199    1
   202   196   199    1
   203   196   197    1
   204   197   198    2
