@<TRIPOS>MOLECULE
tmp/5t4hB06.pdb
 209 206 0 0 0
SMALL
GASTEIGER

@<TRIPOS>ATOM
      1  N         -1.0090   58.2320   27.1820 N.3    87  ARG87      -0.1245
      2  CA        -2.2420   57.7020   27.7440 C.3    87  ARG87       0.1563
      3  C         -3.2740   57.2250   26.7120 C.2    87  ARG87       0.2260
      4  O         -3.9030   56.1800   26.9240 O.2    87  ARG87      -0.2867
      5  CB        -2.8520   58.7090   28.7050 C.3    87  ARG87       0.0307
      6  CG        -3.8440   58.1080   29.6700 C.3    87  ARG87       0.0489
      7  CD        -4.6470   59.1870   30.3510 C.3    87  ARG87       0.2205
      8  NE        -3.8810   59.9480   31.3380 N.pl3  87  ARG87      -0.0865
      9  CZ        -3.7710   59.6150   32.6210 C.cat  87  ARG87       0.5346
     10  NH1       -4.3260   58.5010   33.0750 N.pl3  87  ARG87       0.1354
     11  NH2       -3.1140   60.3990   33.4610 N.pl3  87  ARG87       0.1354
     12  N         -3.1320   64.7340   27.1870 N.3   167  GLU167     -0.1231
     13  CA        -3.2300   64.4310   28.5960 C.3   167  GLU167      0.1699
     14  C         -4.2980   65.2140   29.3850 C.2   167  GLU167      0.2592
     15  O         -5.1270   64.5930   30.0630 O.2   167  GLU167     -0.2718
     16  CB        -1.8530   64.6190   29.2420 C.3   167  GLU167      0.0402
     17  CG        -1.7980   64.2590   30.7250 C.3   167  GLU167      0.1161
     18  CD        -2.1490   62.8480   31.1600 C.2   167  GLU167      0.3649
     19  OE1       -2.4290   61.9800   30.3010 O.co2 167  GLU167     -0.2457
     20  OE2       -2.1190   62.6060   32.3840 O.co2 167  GLU167     -0.2457
     21  N         -4.2380   66.5620   29.3110 N.am  168  GLU168     -0.1979
     22  CA        -4.9810   67.5290   30.1090 C.3   168  GLU168      0.1602
     23  C         -6.1780   68.2710   29.4570 C.2   168  GLU168      0.2287
     24  O         -6.9980   68.8400   30.1830 O.2   168  GLU168     -0.2864
     25  CB        -3.9830   68.5880   30.6200 C.3   168  GLU168      0.0415
     26  CG        -2.7130   68.0570   31.2850 C.3   168  GLU168      0.1163
     27  CD        -2.8510   67.3600   32.6300 C.2   168  GLU168      0.3649
     28  OE1       -3.9090   67.4950   33.2910 O.co2 168  GLU168     -0.2457
     29  OE2       -1.8910   66.6570   33.0190 O.co2 168  GLU168     -0.2457
     30  N         -8.2110   64.6370   26.5590 N.3   171  SER171     -0.1217
     31  CA        -8.2140   63.2380   27.0510 C.3   171  SER171      0.1889
     32  C         -8.2980   62.2780   25.8450 C.2   171  SER171      0.2288
     33  O         -8.9260   61.2160   25.9230 O.2   171  SER171     -0.2866
     34  CB        -9.3420   62.9480   28.0520 C.3   171  SER171      0.2089
     35  OG        -9.5110   63.9390   29.0500 O.3   171  SER171     -0.2183
     36  N        -12.6410   69.9030   35.2990 N.3   319  PHE319     -0.1241
     37  CA       -11.2720   69.7740   34.7760 C.3   319  PHE319      0.1605
     38  C        -11.1540   70.6070   33.5170 C.2   319  PHE319      0.2264
     39  O        -10.0390   70.9310   33.0990 O.2   319  PHE319     -0.2867
     40  CB       -10.8540   68.3090   34.5020 C.3   319  PHE319      0.0534
     41  CG       -10.7940   67.4390   35.7320 C.ar  319  PHE319     -0.0203
     42  CD1       -9.6090   67.3050   36.4520 C.ar  319  PHE319     -0.0042
     43  CD2      -11.9300   66.7760   36.1930 C.ar  319  PHE319     -0.0042
     44  CE1       -9.5640   66.5370   37.6220 C.ar  319  PHE319     -0.0003
     45  CE2      -11.8760   65.9740   37.3380 C.ar  319  PHE319     -0.0003
     46  CZ       -10.6870   65.8490   38.0360 C.ar  319  PHE319     -0.0000
     47  N         -5.5380   55.1410   52.0310 N.3   507  ASP507     -0.1225
     48  CA        -5.4160   55.1080   50.5660 C.3   507  ASP507      0.1805
     49  C         -5.8420   56.4990   50.0570 C.2   507  ASP507      0.2598
     50  O         -6.9860   56.9100   50.2800 O.2   507  ASP507     -0.2718
     51  CB        -6.3210   53.9810   50.0210 C.3   507  ASP507      0.1424
     52  CG        -6.2120   53.6880   48.5420 C.2   507  ASP507      0.3668
     53  OD1       -5.6530   54.5440   47.7990 O.co2 507  ASP507     -0.2456
     54  OD2       -6.7150   52.6130   48.1090 O.co2 507  ASP507     -0.2456
     55  N         -4.9080   57.2320   49.4150 N.am  508  VAL508     -0.1966
     56  CA        -5.0730   58.6420   49.0290 C.3   508  VAL508      0.1727
     57  C         -5.0110   59.0100   47.5260 C.2   508  VAL508      0.2616
     58  O         -4.2290   58.4560   46.7520 O.2   508  VAL508     -0.2715
     59  CB        -4.1020   59.5560   49.8650 C.3   508  VAL508      0.0290
     60  CG1       -4.3760   61.0390   49.6450 C.3   508  VAL508      0.0023
     61  CG2       -4.1730   59.2470   51.3540 C.3   508  VAL508      0.0023
     62  N         -5.8190   60.0180   47.1560 N.am  509  TYR509     -0.1974
     63  CA        -5.8040   60.7170   45.8830 C.3   509  TYR509      0.1639
     64  C         -5.7960   62.2090   46.3290 C.2   509  TYR509      0.2290
     65  O         -4.7190   62.7990   46.4070 O.2   509  TYR509     -0.2864
     66  CB        -6.9720   60.2700   44.9590 C.3   509  TYR509      0.0560
     67  CG        -7.1740   61.0510   43.6730 C.ar  509  TYR509     -0.0198
     68  CD1       -6.3670   62.1480   43.3610 C.ar  509  TYR509     -0.0009
     69  CD2       -8.2250   60.7480   42.8090 C.ar  509  TYR509     -0.0009
     70  CE1       -6.6110   62.9270   42.2350 C.ar  509  TYR509      0.0417
     71  CE2       -8.4660   61.5110   41.6630 C.ar  509  TYR509      0.0417
     72  CZ        -7.6460   62.5910   41.3740 C.ar  509  TYR509      0.1957
     73  OH        -7.8790   63.3600   40.2630 O.3   509  TYR509     -0.2866
     74  N        -12.8610   59.4400   46.4470 N.3   516  LYS516     -0.1245
     75  CA       -12.3150   58.1350   46.8080 C.3   516  LYS516      0.1561
     76  C        -13.2740   57.3850   47.7030 C.2   516  LYS516      0.2260
     77  O        -13.0330   56.2250   48.0150 O.2   516  LYS516     -0.2867
     78  CB       -10.9240   58.2810   47.4330 C.3   516  LYS516      0.0271
     79  CG        -9.8500   58.5070   46.3890 C.3   516  LYS516      0.0035
     80  CD        -9.3310   57.2020   45.7810 C.3   516  LYS516      0.0206
     81  CE        -8.1420   56.6150   46.5070 C.3   516  LYS516      0.1093
     82  NZ        -7.8040   55.2600   46.0030 N.3   516  LYS516     -0.1314
     83  N         -0.6250   55.6450   51.8460 N.3   589  TRP589     -0.1241
     84  CA        -0.0880   55.3330   50.5150 C.3   589  TRP589      0.1605
     85  C         -0.8900   55.9880   49.3930 C.2   589  TRP589      0.2264
     86  O         -2.0950   56.1450   49.5020 O.2   589  TRP589     -0.2867
     87  CB         0.1350   53.8150   50.3020 C.3   589  TRP589      0.0550
     88  CG        -0.9140   53.1540   49.4450 C.ar  589  TRP589      0.0003
     89  CD1       -2.1550   52.7470   49.8340 C.ar  589  TRP589      0.0946
     90  CD2       -0.8220   52.8850   48.0430 C.ar  589  TRP589      0.0152
     91  NE1       -2.8360   52.2260   48.7670 N.ar  589  TRP589     -0.2442
     92  CE2       -2.0500   52.3120   47.6480 C.ar  589  TRP589      0.0810
     93  CE3        0.1820   53.0750   47.0770 C.ar  589  TRP589      0.0012
     94  CZ2       -2.2990   51.9190   46.3310 C.ar  589  TRP589      0.0191
     95  CZ3       -0.0650   52.6820   45.7790 C.ar  589  TRP589      0.0001
     96  CH2       -1.2950   52.1220   45.4140 C.ar  589  TRP589      0.0015
     97  N         -0.5350   57.2870   44.8320 N.3   591  TRP591     -0.1227
     98  CA         0.0700   57.3600   43.5000 C.3   591  TRP591      0.1737
     99  C         -0.2540   58.7310   42.8780 C.2   591  TRP591      0.2596
    100  O         -1.3290   59.2730   43.1270 O.2   591  TRP591     -0.2718
    101  CB        -0.5330   56.2540   42.6590 C.3   591  TRP591      0.0564
    102  CG         0.2640   55.7420   41.4930 C.ar  591  TRP591      0.0003
    103  CD1        0.6750   56.4530   40.3960 C.ar  591  TRP591      0.0946
    104  CD2        0.4870   54.3610   41.1770 C.ar  591  TRP591      0.0152
    105  NE1        1.2670   55.6120   39.4820 N.ar  591  TRP591     -0.2442
    106  CE2        1.1410   54.3180   39.9210 C.ar  591  TRP591      0.0810
    107  CE3        0.3130   53.1550   41.8920 C.ar  591  TRP591      0.0012
    108  CZ2        1.5560   53.1100   39.3310 C.ar  591  TRP591      0.0191
    109  CZ3        0.7190   51.9600   41.3000 C.ar  591  TRP591      0.0001
    110  CH2        1.3070   51.9440   40.0250 C.ar  591  TRP591      0.0015
    111  N          0.6820   59.2970   42.0770 N.am  592  SER592     -0.1938
    112  CA         0.5000   60.5650   41.3480 C.3   592  SER592      0.2055
    113  C          0.1970   61.7170   42.3160 C.2   592  SER592      0.2643
    114  O          1.1020   62.0830   43.0660 O.2   592  SER592     -0.2714
    115  CB        -0.5400   60.4040   40.2340 C.3   592  SER592      0.2130
    116  OG        -0.6240   61.5210   39.3670 O.3   592  SER592     -0.2179
    117  N         -1.0430   62.2640   42.3440 N.am  593  TYR593     -0.1973
    118  CA        -1.4130   63.3230   43.3090 C.3   593  TYR593      0.1639
    119  C         -1.4240   62.7080   44.7370 C.2   593  TYR593      0.2290
    120  O         -0.9830   63.3510   45.6840 O.2   593  TYR593     -0.2864
    121  CB        -2.7850   63.9670   42.9670 C.3   593  TYR593      0.0560
    122  CG        -2.9790   65.3550   43.5520 C.ar  593  TYR593     -0.0198
    123  CD1       -3.2230   65.5340   44.9160 C.ar  593  TYR593     -0.0009
    124  CD2       -2.9140   66.4920   42.7430 C.ar  593  TYR593     -0.0009
    125  CE1       -3.3750   66.8090   45.4640 C.ar  593  TYR593      0.0417
    126  CE2       -3.0920   67.7740   43.2770 C.ar  593  TYR593      0.0417
    127  CZ        -3.3280   67.9260   44.6410 C.ar  593  TYR593      0.1957
    128  OH        -3.4830   69.1740   45.2050 O.3   593  TYR593     -0.2866
    129  N          4.2590   63.8330   42.6050 N.3   618  VAL618     -0.1245
    130  CA         4.5890   65.2280   42.3090 C.3   618  VAL618      0.1561
    131  C          5.3410   65.6750   43.5860 C.2   618  VAL618      0.2260
    132  O          4.9640   65.2880   44.7060 O.2   618  VAL618     -0.2867
    133  CB         3.3390   66.0820   41.9850 C.3   618  VAL618      0.0252
    134  CG1        3.6140   67.5980   42.0840 C.3   618  VAL618      0.0019
    135  CG2        2.8160   65.7300   40.5950 C.3   618  VAL618      0.0019
    136  N          5.5300   71.7960   42.3730 N.3   621  TRP621     -0.1241
    137  CA         4.5820   72.2040   41.3410 C.3   621  TRP621      0.1605
    138  C          5.1570   72.7660   40.0330 C.2   621  TRP621      0.2264
    139  O          4.5680   72.5520   38.9730 O.2   621  TRP621     -0.2867
    140  CB         3.3960   72.9650   41.9170 C.3   621  TRP621      0.0550
    141  CG         2.4600   72.0480   42.6610 C.ar  621  TRP621      0.0003
    142  CD1        2.2700   71.9790   44.0140 C.ar  621  TRP621      0.0946
    143  CD2        1.6690   70.9890   42.0920 C.ar  621  TRP621      0.0152
    144  NE1        1.4140   70.9440   44.3230 N.ar  621  TRP621     -0.2442
    145  CE2        1.0350   70.3170   43.1650 C.ar  621  TRP621      0.0810
    146  CE3        1.4370   70.5400   40.7740 C.ar  621  TRP621      0.0012
    147  CZ2        0.1940   69.2170   42.9610 C.ar  621  TRP621      0.0191
    148  CZ3        0.6080   69.4470   40.5780 C.ar  621  TRP621      0.0001
    149  CH2       -0.0080   68.8010   41.6600 C.ar  621  TRP621      0.0015
    150  N          5.5460   70.0100   37.2170 N.3   624  TYR624     -0.1241
    151  CA         4.3710   69.4480   36.5720 C.3   624  TYR624      0.1605
    152  C          3.9110   70.3010   35.4000 C.2   624  TYR624      0.2264
    153  O          4.3330   71.4500   35.2920 O.2   624  TYR624     -0.2867
    154  CB         3.2650   69.1450   37.5940 C.3   624  TYR624      0.0534
    155  CG         2.3500   68.0410   37.1270 C.ar  624  TYR624     -0.0201
    156  CD1        2.8480   66.7810   36.8190 C.ar  624  TYR624     -0.0009
    157  CD2        1.0000   68.2730   36.9210 C.ar  624  TYR624     -0.0009
    158  CE1        2.0210   65.7790   36.3320 C.ar  624  TYR624      0.0417
    159  CE2        0.1630   67.2800   36.4240 C.ar  624  TYR624      0.0417
    160  CZ         0.6770   66.0330   36.1280 C.ar  624  TYR624      0.1957
    161  OH        -0.1630   65.0500   35.6620 O.3   624  TYR624     -0.2866
    162  N         -2.5500   71.3960   33.9650 N.3   628  TYR628     -0.1241
    163  CA        -3.0840   70.9260   35.2420 C.3   628  TYR628      0.1605
    164  C         -2.7670   71.9140   36.3770 C.2   628  TYR628      0.2264
    165  O         -3.6940   72.4890   36.9560 O.2   628  TYR628     -0.2867
    166  CB        -2.6140   69.4990   35.5830 C.3   628  TYR628      0.0534
    167  CG        -3.2560   68.9290   36.8380 C.ar  628  TYR628     -0.0201
    168  CD1       -2.6000   68.9830   38.0700 C.ar  628  TYR628     -0.0009
    169  CD2       -4.4980   68.2940   36.7850 C.ar  628  TYR628     -0.0009
    170  CE1       -3.1740   68.4430   39.2210 C.ar  628  TYR628      0.0417
    171  CE2       -5.0860   67.7590   37.9300 C.ar  628  TYR628      0.0417
    172  CZ        -4.4200   67.8400   39.1480 C.ar  628  TYR628      0.1957
    173  OH        -4.9710   67.2870   40.2810 O.3   628  TYR628     -0.2866
    174  N         -4.2140   75.5580   36.4280 N.3   631  ARG631     -0.1245
    175  CA        -5.6670   75.6040   36.5470 C.3   631  ARG631      0.1563
    176  C         -6.0520   75.9420   37.9910 C.2   631  ARG631      0.2260
    177  O         -6.9840   76.7260   38.2150 O.2   631  ARG631     -0.2867
    178  CB        -6.2720   74.2550   36.1120 C.3   631  ARG631      0.0307
    179  CG        -7.7990   74.1670   36.1470 C.3   631  ARG631      0.0489
    180  CD        -8.3080   72.7910   35.8010 C.3   631  ARG631      0.2205
    181  NE        -7.8050   72.3350   34.5080 N.pl3 631  ARG631     -0.0865
    182  CZ        -7.2770   71.1370   34.2960 C.cat 631  ARG631      0.5346
    183  NH1       -7.2160   70.2480   35.2790 N.pl3 631  ARG631      0.1354
    184  NH2       -6.8440   70.8030   33.0860 N.pl3 631  ARG631      0.1354
    185  N          4.6930   61.5980   32.2760 N.3   672  ASN672     -0.1225
    186  CA         3.6760   62.4150   32.9360 C.3   672  ASN672      0.1785
    187  C          4.2880   63.0990   34.1650 C.2   672  ASN672      0.2597
    188  O          4.5600   64.2920   34.1060 O.2   672  ASN672     -0.2718
    189  CB         2.4540   61.5500   33.2730 C.3   672  ASN672      0.1169
    190  CG         1.2500   62.2860   33.8110 C.2   672  ASN672      0.2627
    191  OD1        1.2820   63.4840   34.1820 O.2   672  ASN672     -0.2716
    192  ND2        0.1530   61.5460   33.9080 N.am  672  ASN672     -0.0877
    193  N          4.4880   62.3640   35.2650 N.am  673  VAL673     -0.1980
    194  CA         5.1580   62.8660   36.4470 C.3   673  VAL673      0.1595
    195  C          6.6010   62.3760   36.2290 C.2   673  VAL673      0.2287
    196  O          6.8740   61.1830   36.3180 O.2   673  VAL673     -0.2864
    197  CB         4.5340   62.3350   37.7650 C.3   673  VAL673      0.0276
    198  CG1        5.4270   62.6400   38.9700 C.3   673  VAL673      0.0022
    199  CG2        3.1120   62.8960   37.9740 C.3   673  VAL673      0.0022
    200  N          4.0190   56.1550   33.9430 N.3   702  HIS702     -0.1241
    201  CA         3.1820   56.5650   35.0650 C.3   702  HIS702      0.1621
    202  C          2.2620   55.4560   35.5950 C.2   702  HIS702      0.2264
    203  O          1.9290   55.4300   36.7910 O.2   702  HIS702     -0.2867
    204  CB         2.4020   57.8470   34.7260 C.3   702  HIS702      0.0745
    205  CG         1.9280   58.5410   35.9450 C.ar  702  HIS702      0.0817
    206  ND1        2.8030   58.9560   36.9120 N.ar  702  HIS702     -0.2268
    207  CD2        0.6730   58.8340   36.3330 C.ar  702  HIS702      0.1154
    208  CE1        2.0630   59.4890   37.8590 C.ar  702  HIS702      0.1986
    209  NE2        0.7740   59.4480   37.5430 N.ar  702  HIS702     -0.2212
@<TRIPOS>BOND
     1    32    33    2
     2    32    31    1
     3    30    31    1
     4     3     4    2
     5     3     2    1
     6    31    34    1
     7     1     2    1
     8    12    13    1
     9     2     5    1
    10    34    35    1
    11    13    16    1
    12    13    14    1
    13     5     6    1
    14    16    17    1
    15    21    14   am
    16    21    22    1
    17    14    15    2
    18    23    22    1
    19    23    24    2
    20     6     7    1
    21    22    25    1
    22    19    18   ar
    23     7     8    1
    24    25    26    1
    25    17    18    1
    26    18    20   ar
    27    26    27    1
    28     8     9    2
    29   185   186    1
    30     9    10    1
    31     9    11    1
    32    27    29   ar
    33    27    28   ar
    34   186   189    1
    35   186   187    1
    36   184   182    1
    37    39    38    2
    38   189   190    1
    39    38    37    1
    40   190   192   am
    41   190   191    2
    42   200   201    1
    43   162   163    1
    44   188   187    2
    45   187   193   am
    46   182   181    2
    47   182   183    1
    48    40    37    1
    49    40    41    1
    50   181   180    1
    51   204   201    1
    52   204   205    1
    53    37    36    1
    54   201   202    1
    55   163   166    1
    56   163   164    1
    57   193   194    1
    58   153   152    2
    59   152   151    1
    60   166   167    1
    61   202   203    2
    62   161   160    1
    63    41    43   ar
    64    41    42   ar
    65   180   179    1
    66   205   207   ar
    67   205   206   ar
    68   178   179    1
    69   178   175    1
    70   160   158   ar
    71   160   159   ar
    72    43    45   ar
    73   195   196    2
    74   195   194    1
    75   158   156   ar
    76   207   209   ar
    77   164   165    2
    78   159   157   ar
    79   174   175    1
    80   194   197    1
    81    42    44   ar
    82   175   176    1
    83   151   150    1
    84   151   154    1
    85   169   167   ar
    86   169   171   ar
    87   156   155   ar
    88   167   168   ar
    89   206   208   ar
    90   157   155   ar
    91   155   154    1
    92    45    46   ar
    93   209   208   ar
    94    44    46   ar
    95   197   199    1
    96   197   198    1
    97   171   172   ar
    98   176   177    2
    99   168   170   ar
   100   139   138    2
   101   172   170   ar
   102   172   173    1
   103   108   106   ar
   104   108   110   ar
   105   116   115    1
   106   105   106   ar
   107   105   103   ar
   108   106   104   ar
   109   110   109   ar
   110   138   137    1
   111   115   112    1
   112    73    72    1
   113   103   102   ar
   114   148   146   ar
   115   148   149   ar
   116   135   133    1
   117   146   143   ar
   118   104   102   ar
   119   104   107   ar
   120   109   107   ar
   121   137   140    1
   122   137   136    1
   123   112   111    1
   124   112   113    1
   125    72    71   ar
   126    72    70   ar
   127   102   101    1
   128   149   147   ar
   129    71    69   ar
   130   140   141    1
   131   133   134    1
   132   133   130    1
   133   111    99   am
   134   143   141   ar
   135   143   145   ar
   136    70    68   ar
   137   130   129    1
   138   130   131    1
   139   113   117   am
   140   113   114    2
   141   117   118    1
   142   101    98    1
   143   141   142   ar
   144   124   126   ar
   145   124   122   ar
   146    69    67   ar
   147    99   100    2
   148    99    98    1
   149   147   145   ar
   150   121   118    1
   151   121   122    1
   152   145   144   ar
   153   126   127   ar
   154   118   119    1
   155    68    67   ar
   156    98    97    1
   157   122   123   ar
   158   131   132    2
   159    67    66    1
   160   142   144   ar
   161   127   128    1
   162   127   125   ar
   163   119   120    2
   164   123   125   ar
   165    66    63    1
   166    96    95   ar
   167    96    94   ar
   168    95    93   ar
   169    80    79    1
   170    80    81    1
   171    63    64    1
   172    63    62    1
   173    82    81    1
   174    64    65    2
   175    94    92   ar
   176    79    78    1
   177    74    75    1
   178    58    57    2
   179    75    78    1
   180    75    76    1
   181    93    90   ar
   182    62    57   am
   183    57    56    1
   184    92    90   ar
   185    92    91   ar
   186    76    77    2
   187    53    52   ar
   188    90    88   ar
   189    54    52   ar
   190    52    51    1
   191    91    89   ar
   192    56    55    1
   193    56    59    1
   194    85    86    2
   195    85    84    1
   196    55    49   am
   197    88    89   ar
   198    88    87    1
   199    60    59    1
   200    59    61    1
   201    51    48    1
   202    49    50    2
   203    49    48    1
   204    87    84    1
   205    84    83    1
   206    48    47    1
