@<TRIPOS>MOLECULE
tmp/5t4kA00.pdb
 168 160 0 0 0
SMALL
GASTEIGER

@<TRIPOS>ATOM
      1  N        -19.1000  -10.6870   20.0610 N.3     8  HIS8       -0.1226
      2  CA       -19.2810  -11.4830   18.8550 C.3     8  HIS8        0.1752
      3  C        -19.2340  -10.6010   17.6110 C.2     8  HIS8        0.2595
      4  O        -19.2370  -11.1000   16.4850 O.2     8  HIS8       -0.2718
      5  CB       -20.6110  -12.2340   18.9080 C.3     8  HIS8        0.0759
      6  CG       -21.8080  -11.3350   18.8780 C.ar    8  HIS8        0.0818
      7  ND1      -22.2460  -10.6420   19.9860 N.ar    8  HIS8       -0.2268
      8  CD2      -22.6510  -11.0050   17.8710 C.ar    8  HIS8        0.1154
      9  CE1      -23.3090   -9.9280   19.6650 C.ar    8  HIS8        0.1986
     10  NE2      -23.5770  -10.1300   18.3860 N.ar    8  HIS8       -0.2212
     11  N        -19.1960   -9.2890   17.8200 N.am    9  MET9       -0.1979
     12  CA       -19.2440   -8.3390   16.7140 C.3     9  MET9        0.1605
     13  C        -17.8620   -7.8190   16.3320 C.2     9  MET9        0.2287
     14  O        -17.7330   -6.9500   15.4700 O.2     9  MET9       -0.2864
     15  CB       -20.1620   -7.1660   17.0610 C.3     9  MET9        0.0413
     16  CG       -21.6050   -7.5710   17.3050 C.3     9  MET9        0.0598
     17  SD       -22.7190   -6.1590   17.3940 S.3     9  MET9       -0.1393
     18  CE       -21.9800   -5.2330   18.7330 C.3     9  MET9        0.0692
     19  N        -22.1110   -5.5680    1.9870 N.3    74  GLY74      -0.1210
     20  CA       -22.8000   -5.8570    3.2300 C.3    74  GLY74       0.1956
     21  C        -24.0350   -6.7040    2.9970 C.2    74  GLY74       0.2613
     22  O        -24.7270   -6.5400    1.9920 O.2    74  GLY74      -0.2717
     23  N        -24.3100   -7.6100    3.9300 N.am   75  THR75      -0.1938
     24  CA       -25.4480   -8.5160    3.8180 C.3    75  THR75       0.2028
     25  C        -26.7730   -7.7530    3.7740 C.2    75  THR75       0.2642
     26  O        -27.6870   -8.1190    3.0340 O.2    75  THR75      -0.2714
     27  CB       -25.4750   -9.5240    4.9900 C.3    75  THR75       0.1808
     28  OG1      -24.2850  -10.3240    4.9630 O.3    75  THR75      -0.2208
     29  CG2      -26.6870  -10.4370    4.8930 C.3    75  THR75       0.0379
     30  N        -26.8610   -6.6820    4.5570 N.am   76  GLN76      -0.1976
     31  CA       -28.0960   -5.9120    4.6720 C.3    76  GLN76       0.1601
     32  C        -28.4970   -5.2260    3.3670 C.2    76  GLN76       0.2287
     33  O        -29.6760   -5.2030    3.0120 O.2    76  GLN76      -0.2864
     34  CB       -27.9660   -4.8690    5.7840 C.3    76  GLN76       0.0394
     35  CG       -27.9400   -5.4540    7.1860 C.3    76  GLN76       0.0908
     36  CD       -29.2790   -6.0300    7.6050 C.2    76  GLN76       0.2608
     37  OE1      -29.6200   -7.1610    7.2560 O.2    76  GLN76      -0.2717
     38  NE2      -30.0490   -5.2510    8.3580 N.am   76  GLN76      -0.0878
     39  N        -31.2520  -12.8450   13.9420 N.3    99  TYR99      -0.1241
     40  CA       -30.6380  -11.5560   13.6370 C.3    99  TYR99       0.1605
     41  C        -31.6750  -10.4360   13.7000 C.2    99  TYR99       0.2264
     42  O        -32.4890  -10.2890   12.7900 O.2    99  TYR99      -0.2867
     43  CB       -29.9890  -11.6060   12.2510 C.3    99  TYR99       0.0534
     44  CG       -28.9660  -10.5260   11.9760 C.ar   99  TYR99      -0.0201
     45  CD1      -28.4570   -9.7390   13.0010 C.ar   99  TYR99      -0.0009
     46  CD2      -28.5110  -10.2950   10.6840 C.ar   99  TYR99      -0.0009
     47  CE1      -27.5190   -8.7540   12.7440 C.ar   99  TYR99       0.0417
     48  CE2      -27.5780   -9.3150   10.4180 C.ar   99  TYR99       0.0417
     49  CZ       -27.0850   -8.5460   11.4490 C.ar   99  TYR99       0.1957
     50  OH       -26.1540   -7.5690   11.1800 O.3    99  TYR99      -0.2866
     51  N        -31.3440   -7.1560   13.5200 N.3   101  ARG101     -0.1231
     52  CA       -31.1460   -6.1320   12.4950 C.3   101  ARG101      0.1694
     53  C        -31.9120   -6.4720   11.2210 C.2   101  ARG101      0.2591
     54  O        -32.5820   -5.6190   10.6390 O.2   101  ARG101     -0.2718
     55  CB       -29.6620   -5.9640   12.1620 C.3   101  ARG101      0.0321
     56  CG       -28.8150   -5.3500   13.2600 C.3   101  ARG101      0.0489
     57  CD       -27.4090   -5.0840   12.7460 C.3   101  ARG101      0.2205
     58  NE       -26.4250   -4.9930   13.8200 N.pl3 101  ARG101     -0.0865
     59  CZ       -26.0180   -3.8520   14.3650 C.cat 101  ARG101      0.5346
     60  NH1      -26.5100   -2.6990   13.9350 N.pl3 101  ARG101      0.1354
     61  NH2      -25.1170   -3.8640   15.3370 N.pl3 101  ARG101      0.1354
     62  N        -31.8020   -7.7270   10.7960 N.am  102  MET102     -0.1979
     63  CA       -32.4750   -8.1960    9.5910 C.3   102  MET102      0.1605
     64  C        -33.9840   -8.2540    9.8080 C.2   102  MET102      0.2287
     65  O        -34.7640   -8.0370    8.8810 O.2   102  MET102     -0.2864
     66  CB       -31.9330   -9.5670    9.1790 C.3   102  MET102      0.0413
     67  CG       -32.4710  -10.0910    7.8570 C.3   102  MET102      0.0598
     68  SD       -31.3580  -11.2920    7.0960 S.3   102  MET102     -0.1393
     69  CE       -31.0060  -12.3600    8.4910 C.3   102  MET102      0.0692
     70  N        -29.8370  -19.9530    9.1410 N.3   139  THR139     -0.1218
     71  CA       -28.3820  -19.9600    9.2890 C.3   139  THR139      0.1862
     72  C        -27.8840  -21.3600    9.6560 C.2   139  THR139      0.2287
     73  O        -27.6650  -21.6570   10.8310 O.2   139  THR139     -0.2866
     74  CB       -27.9180  -18.9470   10.3610 C.3   139  THR139      0.1770
     75  OG1      -28.6470  -19.1640   11.5750 O.3   139  THR139     -0.2211
     76  CG2      -28.1570  -17.5200    9.8930 C.3   139  THR139      0.0375
     77  N        -27.4350  -18.3630   14.3050 N.3   144  PHE144     -0.1241
     78  CA       -27.2610  -17.0910   14.9860 C.3   144  PHE144      0.1605
     79  C        -28.5070  -16.7960   15.8090 C.2   144  PHE144      0.2264
     80  O        -29.5810  -16.5810   15.2490 O.2   144  PHE144     -0.2867
     81  CB       -26.9960  -15.9720   13.9730 C.3   144  PHE144      0.0534
     82  CG       -26.4840  -14.7000   14.5890 C.ar  144  PHE144     -0.0203
     83  CD1      -25.1330  -14.5370   14.8520 C.ar  144  PHE144     -0.0042
     84  CD2      -27.3510  -13.6650   14.8950 C.ar  144  PHE144     -0.0042
     85  CE1      -24.6580  -13.3670   15.4150 C.ar  144  PHE144     -0.0003
     86  CE2      -26.8820  -12.4920   15.4590 C.ar  144  PHE144     -0.0003
     87  CZ       -25.5330  -12.3430   15.7190 C.ar  144  PHE144     -0.0000
     88  N        -28.4990  -17.8860    4.7870 N.3   173  ASP173     -0.1239
     89  CA       -27.5140  -16.9620    5.3340 C.3   173  ASP173      0.1674
     90  C        -26.3570  -17.7590    5.9280 C.2   173  ASP173      0.2266
     91  O        -26.3920  -18.1390    7.0990 O.2   173  ASP173     -0.2867
     92  CB       -28.1580  -16.0660    6.3960 C.3   173  ASP173      0.1410
     93  CG       -27.2340  -14.9620    6.8790 C.2   173  ASP173      0.3668
     94  OD1      -26.0430  -14.9500    6.5000 O.co2 173  ASP173     -0.2456
     95  OD2      -27.7080  -14.1020    7.6520 O.co2 173  ASP173     -0.2456
     96  N        -23.6160  -17.2090    7.1860 N.3   175  TYR175     -0.1241
     97  CA       -22.7340  -16.4420    8.0560 C.3   175  TYR175      0.1605
     98  C        -22.0000  -17.3550    9.0360 C.2   175  TYR175      0.2264
     99  O        -22.5780  -18.3170    9.5450 O.2   175  TYR175     -0.2867
    100  CB       -23.5460  -15.3840    8.8080 C.3   175  TYR175      0.0534
    101  CG       -22.7550  -14.5180    9.7610 C.ar  175  TYR175     -0.0201
    102  CD1      -21.7710  -13.6560    9.2950 C.ar  175  TYR175     -0.0009
    103  CD2      -23.0130  -14.5430   11.1270 C.ar  175  TYR175     -0.0009
    104  CE1      -21.0560  -12.8520   10.1620 C.ar  175  TYR175      0.0417
    105  CE2      -22.3020  -13.7430   12.0030 C.ar  175  TYR175      0.0417
    106  CZ       -21.3250  -12.9000   11.5150 C.ar  175  TYR175      0.1957
    107  OH       -20.6140  -12.1020   12.3810 O.3   175  TYR175     -0.2866
    108  N        -20.4040  -13.8790    3.3250 N.3   203  THR203     -0.1218
    109  CA       -19.6690  -12.6780    3.7010 C.3   203  THR203      0.1862
    110  C        -18.2040  -13.0010    3.9770 C.2   203  THR203      0.2287
    111  O        -17.8480  -14.1560    4.2110 O.2   203  THR203     -0.2866
    112  CB       -20.2890  -12.0060    4.9430 C.3   203  THR203      0.1770
    113  OG1      -19.5900  -10.7900    5.2360 O.3   203  THR203     -0.2211
    114  CG2      -20.2150  -12.9340    6.1450 C.3   203  THR203      0.0375
    115  N        -16.5660  -10.9700    6.2710 N.3   205  SER205     -0.1202
    116  CA       -16.3480  -10.2030    7.4990 C.3   205  SER205      0.2020
    117  C        -15.6170  -10.9770    8.5960 C.2   205  SER205      0.2618
    118  O        -14.8230  -10.4000    9.3400 O.2   205  SER205     -0.2717
    119  CB       -17.6850   -9.6990    8.0490 C.3   205  SER205      0.2103
    120  OG       -18.2440   -8.7040    7.2130 O.3   205  SER205     -0.2182
    121  N        -15.8820  -12.2760    8.7000 N.am  206  LYS206     -0.1979
    122  CA       -15.2860  -13.0820    9.7620 C.3   206  LYS206      0.1596
    123  C        -13.9670  -13.7240    9.3360 C.2   206  LYS206      0.2287
    124  O        -13.0880  -13.9570   10.1660 O.2   206  LYS206     -0.2864
    125  CB       -16.2670  -14.1620   10.2260 C.3   206  LYS206      0.0298
    126  CG       -17.5630  -13.6130   10.8060 C.3   206  LYS206      0.0038
    127  CD       -17.2980  -12.6330   11.9410 C.3   206  LYS206      0.0206
    128  CE       -17.0920  -13.3500   13.2630 C.3   206  LYS206      0.1093
    129  NZ       -16.8890  -12.3980   14.3910 N.3   206  LYS206     -0.1314
    130  N        -15.8940   -4.6080    4.1570 N.3   213  ARG213     -0.1245
    131  CA       -17.2200   -4.5030    3.5450 C.3   213  ARG213      0.1563
    132  C        -17.3310   -5.2270    2.2010 C.2   213  ARG213      0.2260
    133  O        -17.5140   -4.5930    1.1610 O.2   213  ARG213     -0.2867
    134  CB       -17.6110   -3.0290    3.3640 C.3   213  ARG213      0.0307
    135  CG       -17.8020   -2.2450    4.6600 C.3   213  ARG213      0.0489
    136  CD       -19.0210   -2.7260    5.4350 C.3   213  ARG213      0.2205
    137  NE       -18.7100   -3.8410    6.3250 N.pl3 213  ARG213     -0.0865
    138  CZ       -19.6040   -4.7270    6.7500 C.cat 213  ARG213      0.5346
    139  NH1      -20.8680   -4.6370    6.3600 N.pl3 213  ARG213      0.1354
    140  NH2      -19.2320   -5.7090    7.5600 N.pl3 213  ARG213      0.1354
    141  N        -19.5940   -8.5140    0.7290 N.3   215  SER215     -0.1217
    142  CA       -20.5190   -9.6320    0.8250 C.3   215  SER215      0.1889
    143  C        -20.9090  -10.0710   -0.5790 C.2   215  SER215      0.2288
    144  O        -20.4410   -9.5020   -1.5650 O.2   215  SER215     -0.2866
    145  CB       -21.7560   -9.2510    1.6380 C.3   215  SER215      0.2089
    146  OG       -21.3870   -8.7880    2.9240 O.3   215  SER215     -0.2183
    147  N        -30.7030   -9.9630   23.4520 N.3   324  ARG324     -0.1231
    148  CA       -30.4450   -9.0810   22.3200 C.3   324  ARG324      0.1694
    149  C        -31.0250   -9.6530   21.0250 C.2   324  ARG324      0.2592
    150  O        -31.3360   -8.9160   20.0880 O.2   324  ARG324     -0.2718
    151  CB       -28.9350   -8.8520   22.1700 C.3   324  ARG324      0.0321
    152  CG       -28.5270   -8.0370   20.9530 C.3   324  ARG324      0.0489
    153  CD       -27.0190   -8.0440   20.7590 C.3   324  ARG324      0.2205
    154  NE       -26.6350   -7.4480   19.4830 N.pl3 324  ARG324     -0.0865
    155  CZ       -26.3720   -6.1570   19.3100 C.cat 324  ARG324      0.5346
    156  NH1      -26.4490   -5.3180   20.3350 N.pl3 324  ARG324      0.1354
    157  NH2      -26.0310   -5.7040   18.1110 N.pl3 324  ARG324      0.1354
    158  N        -31.1880  -10.9710   20.9850 N.am  325  PHE325     -0.1976
    159  CA       -31.5740  -11.6480   19.7540 C.3   325  PHE325      0.1639
    160  C        -33.0320  -12.1030   19.7440 C.2   325  PHE325      0.2290
    161  O        -33.4610  -12.8070   18.8300 O.2   325  PHE325     -0.2864
    162  CB       -30.6520  -12.8420   19.5170 C.3   325  PHE325      0.0560
    163  CG       -29.1970  -12.5230   19.7030 C.ar  325  PHE325     -0.0200
    164  CD1      -28.4770  -11.8980   18.6990 C.ar  325  PHE325     -0.0042
    165  CD2      -28.5480  -12.8450   20.8850 C.ar  325  PHE325     -0.0042
    166  CE1      -27.1370  -11.6010   18.8670 C.ar  325  PHE325     -0.0003
    167  CE2      -27.2090  -12.5520   21.0600 C.ar  325  PHE325     -0.0003
    168  CZ       -26.5020  -11.9290   20.0500 C.ar  325  PHE325     -0.0000
@<TRIPOS>BOND
     1   144   143    2
     2   143   142    1
     3   141   142    1
     4   142   145    1
     5   133   132    2
     6   145   146    1
     7    19    20    1
     8    22    21    2
     9   132   131    1
    10    21    20    1
    11    21    23   am
    12    33    32    2
    13    26    25    2
    14   108   109    1
    15   134   131    1
    16   134   135    1
    17    32    31    1
    18   131   130    1
    19   109   110    1
    20   109   112    1
    21    25    24    1
    22    25    30   am
    23    24    23    1
    24    24    27    1
    25   110   111    2
    26    30    31    1
    27   135   136    1
    28    31    34    1
    29    88    89    1
    30    29    27    1
    31   112   113    1
    32   112   114    1
    33    28    27    1
    34    89    90    1
    35    89    92    1
    36   136   137    1
    37    34    35    1
    38    90    91    2
    39   115   116    1
    40   137   138    2
    41   139   138    1
    42    92    93    1
    43    94    93   ar
    44   138   140    1
    45    93    95   ar
    46    68    67    1
    47    68    69    1
    48    35    36    1
    49    96    97    1
    50   120   119    1
    51    37    36    2
    52   116   119    1
    53   116   117    1
    54    36    38   am
    55    67    66    1
    56    97   100    1
    57    97    98    1
    58   117   121   am
    59   117   118    2
    60   121   122    1
    61   100   101    1
    62    65    64    2
    63    98    99    2
    64    70    71    1
    65    66    63    1
    66    71    72    1
    67    71    74    1
    68   102   101   ar
    69   102   104   ar
    70   123   122    1
    71   123   124    2
    72    63    64    1
    73    63    62    1
    74    72    73    2
    75   101   103   ar
    76   122   125    1
    77    76    74    1
    78   104   106   ar
    79   125   126    1
    80    74    75    1
    81    48    46   ar
    82    48    49   ar
    83    54    53    2
    84    46    44   ar
    85    62    53   am
    86   126   127    1
    87   103   105   ar
    88    50    49    1
    89    53    52    1
    90    49    47   ar
    91   106   105   ar
    92   106   107    1
    93   127   128    1
    94    44    43    1
    95    44    45   ar
    96    55    52    1
    97    55    56    1
    98    43    40    1
    99    52    51    1
   100    47    45   ar
   101    57    56    1
   102    57    58    1
   103    42    41    2
   104   128   129    1
   105    40    41    1
   106    40    39    1
   107    58    59    2
   108    60    59    1
   109    81    82    1
   110    81    78    1
   111    77    78    1
   112    59    61    1
   113    82    83   ar
   114    82    84   ar
   115    83    85   ar
   116    84    86   ar
   117    78    79    1
   118    80    79    2
   119    85    87   ar
   120    86    87   ar
   121    14    13    2
   122    13    12    1
   123     4     3    2
   124    12    15    1
   125    12    11    1
   126    15    16    1
   127    16    17    1
   128    17    18    1
   129     3    11   am
   130     3     2    1
   131     8    10   ar
   132     8     6   ar
   133   157   155    1
   134    10     9   ar
   135   164   166   ar
   136   164   163   ar
   137   161   160    2
   138     2     5    1
   139     2     1    1
   140   166   168   ar
   141     6     5    1
   142     6     7   ar
   143   155   154    2
   144   155   156    1
   145   154   153    1
   146   162   163    1
   147   162   159    1
   148     9     7   ar
   149   163   165   ar
   150   160   159    1
   151   159   158    1
   152   168   167   ar
   153   150   149    2
   154   153   152    1
   155   165   167   ar
   156   152   151    1
   157   158   149   am
   158   149   148    1
   159   151   148    1
   160   148   147    1
