@<TRIPOS>MOLECULE
tmp/5t4lA00.pdb
 175 166 0 0 0
SMALL
GASTEIGER

@<TRIPOS>ATOM
      1  N        -23.1490  -26.5420   12.3790 N.3    13  ILE13      -0.1245
      2  CA       -23.5050  -25.1520   12.1560 C.3    13  ILE13       0.1561
      3  C        -22.7340  -24.2540   13.1190 C.2    13  ILE13       0.2260
      4  O        -22.1390  -23.2600   12.7040 O.2    13  ILE13      -0.2867
      5  CB       -25.0200  -24.9350   12.3110 C.3    13  ILE13       0.0252
      6  CG1      -25.7690  -25.7700   11.2650 C.3    13  ILE13       0.0019
      7  CG2      -25.3720  -23.4580   12.1700 C.3    13  ILE13       0.0019
      8  CD1      -27.2920  -25.6880   11.3800 C.3    13  ILE13       0.0001
      9  N        -26.8020  -19.3600    7.1160 N.3    34  GLY34      -0.1210
     10  CA       -28.1150  -19.9730    6.9440 C.3    34  GLY34       0.1956
     11  C        -29.2620  -18.9920    6.7910 C.2    34  GLY34       0.2611
     12  O        -30.4330  -19.3890    6.8710 O.2    34  GLY34      -0.2717
     13  N        -28.9280  -17.7200    6.5720 N.am   35  VAL35      -0.1979
     14  CA       -29.9110  -16.6390    6.4410 C.3    35  VAL35       0.1595
     15  C        -29.5680  -15.7090    5.2780 C.2    35  VAL35       0.2287
     16  O        -28.4650  -15.7680    4.7330 O.2    35  VAL35      -0.2864
     17  CB       -30.0120  -15.7810    7.7400 C.3    35  VAL35       0.0276
     18  CG1      -30.4300  -16.6360    8.9330 C.3    35  VAL35       0.0022
     19  CG2      -28.6930  -15.0600    8.0270 C.3    35  VAL35       0.0022
     20  N        -42.2160  -21.5810   13.5590 N.3   102  GLY102     -0.1210
     21  CA       -41.4000  -21.7960   12.3720 C.3   102  GLY102      0.1956
     22  C        -41.8800  -22.8800   11.4250 C.2   102  GLY102      0.2612
     23  O        -42.8050  -23.6600   11.7280 O.2   102  GLY102     -0.2717
     24  N        -41.2200  -22.9490   10.2730 N.am  103  GLY103     -0.1942
     25  CA       -41.4120  -24.0730    9.3680 C.3   103  GLY103      0.2014
     26  C        -41.0600  -25.3980   10.0460 C.2   103  GLY103      0.2639
     27  O        -41.7010  -26.4310    9.8000 O.2   103  GLY103     -0.2714
     28  N        -40.0400  -25.3790   10.8970 N.am  104  THR104     -0.1950
     29  CA       -39.6300  -26.6070   11.5900 C.3   104  THR104      0.1897
     30  C        -40.7430  -27.1100   12.4850 C.2   104  THR104      0.2313
     31  O        -41.0740  -28.2990   12.4610 O.2   104  THR104     -0.2863
     32  CB       -38.3620  -26.4090   12.4410 C.3   104  THR104      0.1794
     33  OG1      -37.3160  -25.8870   11.6100 O.3   104  THR104     -0.2208
     34  CG2      -37.8920  -27.7660   13.0140 C.3   104  THR104      0.0378
     35  N        -43.2770  -28.7790   10.3650 N.3   107  LEU107     -0.1245
     36  CA       -42.8600  -30.1280    9.9870 C.3   107  LEU107      0.1561
     37  C        -43.0410  -31.1280   11.1340 C.2   107  LEU107      0.2260
     38  O        -43.4830  -32.2580   10.9050 O.2   107  LEU107     -0.2867
     39  CB       -41.3950  -30.1310    9.5150 C.3   107  LEU107      0.0270
     40  CG       -41.1420  -29.3630    8.2150 C.3   107  LEU107      0.0019
     41  CD1      -39.6660  -29.0050    8.0990 C.3   107  LEU107      0.0001
     42  CD2      -41.5940  -30.2060    7.0040 C.3   107  LEU107      0.0001
     43  N        -32.2840  -30.4050    3.2260 N.3   130  TRP130     -0.1241
     44  CA       -31.9280  -29.8110    4.5100 C.3   130  TRP130      0.1605
     45  C        -31.7310  -30.9270    5.5240 C.2   130  TRP130      0.2264
     46  O        -32.6050  -31.7740    5.6510 O.2   130  TRP130     -0.2867
     47  CB       -33.0520  -28.8840    4.9350 C.3   130  TRP130      0.0550
     48  CG       -32.8550  -28.0680    6.1660 C.ar  130  TRP130      0.0003
     49  CD1      -31.7730  -27.2980    6.4940 C.ar  130  TRP130      0.0946
     50  CD2      -33.8220  -27.8760    7.2010 C.ar  130  TRP130      0.0152
     51  NE1      -32.0070  -26.6480    7.6950 N.ar  130  TRP130     -0.2442
     52  CE2      -33.2560  -26.9910    8.1420 C.ar  130  TRP130      0.0810
     53  CE3      -35.1120  -28.3750    7.4280 C.ar  130  TRP130      0.0012
     54  CZ2      -33.9440  -26.5940    9.2970 C.ar  130  TRP130      0.0191
     55  CZ3      -35.7860  -27.9760    8.5800 C.ar  130  TRP130      0.0001
     56  CH2      -35.1970  -27.1010    9.4930 C.ar  130  TRP130      0.0015
     57  N        -34.4780  -32.2980    8.0690 N.3   133  HIS133     -0.1241
     58  CA       -35.6810  -33.0470    7.6930 C.3   133  HIS133      0.1621
     59  C        -35.6530  -34.4360    8.3210 C.2   133  HIS133      0.2264
     60  O        -36.6280  -34.8640    8.9370 O.2   133  HIS133     -0.2867
     61  CB       -35.8220  -33.1690    6.1730 C.3   133  HIS133      0.0745
     62  CG       -36.4080  -31.9570    5.5320 C.ar  133  HIS133      0.0817
     63  ND1      -35.9440  -31.4440    4.3310 N.ar  133  HIS133     -0.2268
     64  CD2      -37.4250  -31.1520    5.9140 C.ar  133  HIS133      0.1154
     65  CE1      -36.6520  -30.3800    4.0120 C.ar  133  HIS133      0.1986
     66  NE2      -37.5700  -30.1850    4.9480 N.ar  133  HIS133     -0.2212
     67  N        -39.9940  -29.8420   -1.8720 N.3   178  HIS178     -0.1241
     68  CA       -39.7250  -28.4230   -1.5870 C.3   178  HIS178      0.1621
     69  C        -40.5030  -27.5850   -2.5970 C.2   178  HIS178      0.2264
     70  O        -40.3460  -27.7760   -3.8000 O.2   178  HIS178     -0.2867
     71  CB       -38.2360  -28.0750   -1.6910 C.3   178  HIS178      0.0745
     72  CG       -37.3270  -28.8600   -0.7930 C.ar  178  HIS178      0.0817
     73  ND1      -36.1840  -28.3080   -0.2460 N.ar  178  HIS178     -0.2268
     74  CD2      -37.3360  -30.1600   -0.4040 C.ar  178  HIS178      0.1154
     75  CE1      -35.5380  -29.2290    0.4480 C.ar  178  HIS178      0.1986
     76  NE2      -36.2160  -30.3620    0.3660 N.ar  178  HIS178     -0.2212
     77  N        -33.6100  -26.6510   -1.1740 N.3   183  ASN183     -0.1240
     78  CA       -32.4600  -26.5040   -0.2910 C.3   183  ASN183      0.1653
     79  C        -31.8170  -27.8780   -0.1600 C.2   183  ASN183      0.2266
     80  O        -32.4390  -28.7780    0.4070 O.2   183  ASN183     -0.2867
     81  CB       -32.9210  -25.9620    1.0760 C.3   183  ASN183      0.1155
     82  CG       -31.7930  -25.8810    2.0980 C.2   183  ASN183      0.2627
     83  OD1      -30.6490  -26.2100    1.8140 O.2   183  ASN183     -0.2716
     84  ND2      -32.1270  -25.4460    3.3050 N.am  183  ASN183     -0.0877
     85  N        -42.7930  -28.6920    1.8450 N.3   211  ASP211     -0.1239
     86  CA       -42.0330  -27.7730    2.6690 C.3   211  ASP211      0.1674
     87  C        -41.9230  -26.5070    1.8310 C.2   211  ASP211      0.2266
     88  O        -41.3290  -26.5390    0.7630 O.2   211  ASP211     -0.2867
     89  CB       -40.6630  -28.3640    3.0150 C.3   211  ASP211      0.1410
     90  CG       -39.8270  -27.4460    3.8750 C.2   211  ASP211      0.3668
     91  OD1      -39.8830  -26.2140    3.6920 O.co2 211  ASP211     -0.2456
     92  OD2      -39.0840  -27.9680    4.7200 O.co2 211  ASP211     -0.2456
     93  N        -40.6710  -22.9570    2.3110 N.3   213  ALA213     -0.1231
     94  CA       -39.9690  -21.9810    3.1230 C.3   213  ALA213      0.1694
     95  C        -39.4890  -20.7630    2.3530 C.2   213  ALA213      0.2592
     96  O        -39.0030  -19.8190    2.9750 O.2   213  ALA213     -0.2718
     97  CB       -38.7710  -22.6390    3.8270 C.3   213  ALA213      0.0304
     98  N        -39.5960  -20.7750    1.0260 N.am  214  TYR214     -0.1976
     99  CA       -38.9840  -19.6900    0.2470 C.3   214  TYR214      0.1639
    100  C        -39.9240  -19.0440   -0.7530 C.2   214  TYR214      0.2290
    101  O        -39.4870  -18.5600   -1.7980 O.2   214  TYR214     -0.2864
    102  CB       -37.7230  -20.2070   -0.4880 C.3   214  TYR214      0.0560
    103  CG       -36.6810  -20.6720    0.4950 C.ar  214  TYR214     -0.0198
    104  CD1      -35.9370  -19.7500    1.2140 C.ar  214  TYR214     -0.0009
    105  CD2      -36.4750  -22.0220    0.7300 C.ar  214  TYR214     -0.0009
    106  CE1      -35.0130  -20.1660    2.1570 C.ar  214  TYR214      0.0417
    107  CE2      -35.5510  -22.4530    1.6730 C.ar  214  TYR214      0.0417
    108  CZ       -34.8360  -21.5130    2.3890 C.ar  214  TYR214      0.1957
    109  OH       -33.9230  -21.9270    3.3220 O.3   214  TYR214     -0.2866
    110  N        -42.9870  -21.5740    5.9650 N.3   243  SER243     -0.1217
    111  CA       -42.1980  -20.7350    6.8590 C.3   243  SER243      0.1889
    112  C        -42.2210  -19.2990    6.3810 C.2   243  SER243      0.2288
    113  O        -42.1810  -19.0470    5.1790 O.2   243  SER243     -0.2866
    114  CB       -40.7450  -21.2160    6.9320 C.3   243  SER243      0.2089
    115  OG       -39.9680  -20.3050    7.6990 O.3   243  SER243     -0.2183
    116  N        -39.9050  -17.3410    8.0850 N.3   245  SER245     -0.1202
    117  CA       -38.5850  -16.9470    8.5890 C.3   245  SER245      0.2020
    118  C        -37.7680  -16.1930    7.5520 C.2   245  SER245      0.2618
    119  O        -37.1580  -15.1600    7.8540 O.2   245  SER245     -0.2717
    120  CB       -37.7740  -18.1630    9.0210 C.3   245  SER245      0.2103
    121  OG       -38.2990  -18.7340   10.2010 O.3   245  SER245     -0.2182
    122  N        -37.7290  -16.7180    6.3380 N.am  246  LYS246     -0.1979
    123  CA       -36.8850  -16.1760    5.3590 C.3   246  LYS246      0.1596
    124  C        -37.5470  -15.0340    4.5750 C.2   246  LYS246      0.2287
    125  O        -36.9510  -14.0050    4.3920 O.2   246  LYS246     -0.2864
    126  CB       -36.4090  -17.3130    4.4560 C.3   246  LYS246      0.0298
    127  CG       -35.7430  -18.4450    5.2750 C.3   246  LYS246      0.0038
    128  CD       -36.6040  -19.8040    5.3600 C.3   246  LYS246      0.0206
    129  CE       -36.1600  -20.8970    6.3550 C.3   246  LYS246      0.1093
    130  NZ       -34.9840  -21.6650    5.9630 N.3   246  LYS246     -0.1314
    131  N        -36.7350  -14.8650   11.1780 N.3   251  TYR251     -0.1241
    132  CA       -36.0970  -16.0870   11.7040 C.3   251  TYR251      0.1605
    133  C        -36.3330  -16.3750   13.1850 C.2   251  TYR251      0.2264
    134  O        -36.9350  -17.4130   13.5230 O.2   251  TYR251     -0.2867
    135  CB       -34.5700  -16.0270   11.4450 C.3   251  TYR251      0.0534
    136  CG       -34.1990  -15.6150   10.0290 C.ar  251  TYR251     -0.0201
    137  CD1      -34.0870  -16.5650    9.0160 C.ar  251  TYR251     -0.0009
    138  CD2      -33.9360  -14.2860    9.7150 C.ar  251  TYR251     -0.0009
    139  CE1      -33.7600  -16.2000    7.7180 C.ar  251  TYR251      0.0417
    140  CE2      -33.5920  -13.9110    8.4120 C.ar  251  TYR251      0.0417
    141  CZ       -33.5090  -14.8850    7.4290 C.ar  251  TYR251      0.1957
    142  OH       -33.1690  -14.5390    6.1310 O.3   251  TYR251     -0.2866
    143  N        -39.9430  -17.2480   15.0640 N.3   254  ARG254     -0.1245
    144  CA       -40.5160  -18.5880   14.8630 C.3   254  ARG254      0.1563
    145  C        -41.9390  -18.5410   14.3100 C.2   254  ARG254      0.2260
    146  O        -42.9330  -18.7890   15.0160 O.2   254  ARG254     -0.2867
    147  CB       -40.4680  -19.3830   16.1710 C.3   254  ARG254      0.0307
    148  CG       -39.1060  -19.3150   16.8910 C.3   254  ARG254      0.0489
    149  CD       -37.9060  -19.5970   15.9730 C.3   254  ARG254      0.2205
    150  NE       -37.9570  -20.9460   15.4060 N.pl3 254  ARG254     -0.0865
    151  CZ       -37.8630  -21.2350   14.1100 C.cat 254  ARG254      0.5346
    152  NH1      -37.6860  -20.2690   13.1920 N.pl3 254  ARG254      0.1354
    153  NH2      -37.9200  -22.5090   13.7270 N.pl3 254  ARG254      0.1354
    154  N        -29.4010  -20.8100   -2.0010 N.3   348  PHE348     -0.1241
    155  CA       -28.4590  -21.9250   -1.9080 C.3   348  PHE348      0.1605
    156  C        -28.1950  -22.6280   -3.2330 C.2   348  PHE348      0.2264
    157  O        -29.1040  -22.8320   -4.0460 O.2   348  PHE348     -0.2867
    158  CB       -28.9620  -22.9570   -0.8780 C.3   348  PHE348      0.0534
    159  CG       -29.1560  -22.3960    0.5140 C.ar  348  PHE348     -0.0203
    160  CD1      -28.0860  -21.8480    1.2180 C.ar  348  PHE348     -0.0042
    161  CD2      -30.4030  -22.4370    1.1230 C.ar  348  PHE348     -0.0042
    162  CE1      -28.2630  -21.3360    2.5000 C.ar  348  PHE348     -0.0003
    163  CE2      -30.5920  -21.9260    2.4070 C.ar  348  PHE348     -0.0003
    164  CZ       -29.5150  -21.3790    3.1010 C.ar  348  PHE348     -0.0000
    165  N        -23.0380  -26.8630    0.3430 N.3   374  ARG374     -0.1245
    166  CA       -23.9880  -25.7530    0.2070 C.3   374  ARG374      0.1563
    167  C        -23.2580  -24.3940    0.2790 C.2   374  ARG374      0.2260
    168  O        -22.5240  -24.1330    1.2400 O.2   374  ARG374     -0.2867
    169  CB       -25.0600  -25.8490    1.2970 C.3   374  ARG374      0.0307
    170  CG       -26.2390  -24.8890    1.1630 C.3   374  ARG374      0.0489
    171  CD       -27.0730  -24.8730    2.4530 C.3   374  ARG374      0.2205
    172  NE       -26.4750  -24.0180    3.4760 N.pl3 374  ARG374     -0.0865
    173  CZ       -26.8630  -24.0020    4.7440 C.cat 374  ARG374      0.5346
    174  NH1      -27.8270  -24.8230    5.1510 N.pl3 374  ARG374      0.1354
    175  NH2      -26.2840  -23.1730    5.6080 N.pl3 374  ARG374      0.1354
@<TRIPOS>BOND
     1   157   156    2
     2    70    69    2
     3   156   155    1
     4    69    68    1
     5   154   155    1
     6   155   158    1
     7    67    68    1
     8   101   100    2
     9    71    68    1
    10    71    72    1
    11    77    78    1
    12   158   159    1
    13    72    74   ar
    14    72    73   ar
    15   100    99    1
    16   102    99    1
    17   102   103    1
    18    74    76   ar
    19    78    79    1
    20    78    81    1
    21    73    75   ar
    22    79    80    2
    23   166   167    1
    24   166   165    1
    25   166   169    1
    26    99    98    1
    27   167   168    2
    28    76    75   ar
    29   103   105   ar
    30   103   104   ar
    31   159   161   ar
    32   159   160   ar
    33   105   107   ar
    34    88    87    2
    35    98    95   am
    36    81    82    1
    37   161   163   ar
    38   170   169    1
    39   170   171    1
    40   104   106   ar
    41   160   162   ar
    42   107   108   ar
    43    83    82    2
    44    87    86    1
    45    85    86    1
    46    82    84   am
    47   106   108   ar
    48    93    94    1
    49    95    96    2
    50    95    94    1
    51   108   109    1
    52   163   164   ar
    53   171   172    1
    54   162   164   ar
    55    86    89    1
    56    89    90    1
    57    94    97    1
    58    43    44    1
    59   172   173    2
    60    91    90   ar
    61    90    92   ar
    62    65    63   ar
    63    65    66   ar
    64    63    62   ar
    65   125   124    2
    66   126   127    1
    67   126   123    1
    68    44    47    1
    69    44    45    1
    70   124   123    1
    71    16    15    2
    72   173   174    1
    73   173   175    1
    74    47    48    1
    75    66    64   ar
    76   113   112    2
    77   127   128    1
    78    15    14    1
    79   123   122    1
    80   128   129    1
    81    45    46    2
    82    62    64   ar
    83    62    61    1
    84   130   129    1
    85   110   111    1
    86   142   141    1
    87    48    49   ar
    88    48    50   ar
    89    61    58    1
    90   122   118   am
    91   112   111    1
    92    14    13    1
    93    14    17    1
    94    49    51   ar
    95    13    11   am
    96    11    12    2
    97    11    10    1
    98   111   114    1
    99   114   115    1
   100    10     9    1
   101    42    40    1
   102    50    53   ar
   103    50    52   ar
   104    53    55   ar
   105   141   139   ar
   106   141   140   ar
   107   118   119    2
   108   118   117    1
   109    58    57    1
   110    58    59    1
   111    51    52   ar
   112   139   137   ar
   113    17    19    1
   114    17    18    1
   115   116   117    1
   116    41    40    1
   117    52    54   ar
   118    40    39    1
   119    59    60    2
   120   140   138   ar
   121    55    56   ar
   122   117   120    1
   123   137   136   ar
   124   120   121    1
   125    54    56   ar
   126    25    26    1
   127    25    24    1
   128    39    36    1
   129   138   136   ar
   130    27    26    2
   131    36    35    1
   132    36    37    1
   133   136   135    1
   134    26    28   am
   135    24    22   am
   136    28    29    1
   137    38    37    2
   138   131   132    1
   139     6     8    1
   140     6     5    1
   141    22    23    2
   142    22    21    1
   143   135   132    1
   144    29    32    1
   145    29    30    1
   146    33    32    1
   147   132   133    1
   148     2     5    1
   149     2     1    1
   150     2     3    1
   151     7     5    1
   152    21    20    1
   153    32    34    1
   154    31    30    2
   155     4     3    2
   156   133   134    2
   157   152   151    1
   158   153   151    1
   159   151   150    2
   160   145   144    1
   161   145   146    2
   162   144   143    1
   163   144   147    1
   164   150   149    1
   165   149   148    1
   166   147   148    1
