@<TRIPOS>MOLECULE
tmp/5t4oA00.pdb
 123 121 0 0 0
SMALL
GASTEIGER

@<TRIPOS>ATOM
      1  N        197.3610  164.3150  227.8410 N.3   170  ASP170     -0.1225
      2  CA       196.4380  163.2330  228.1200 C.3   170  ASP170      0.1805
      3  C        197.0990  162.1740  228.9820 C.2   170  ASP170      0.2598
      4  O        198.2480  161.7970  228.7710 O.2   170  ASP170     -0.2718
      5  CB       195.9390  162.6000  226.8210 C.3   170  ASP170      0.1424
      6  CG       194.7830  163.2840  226.1800 C.2   170  ASP170      0.3668
      7  OD1      194.2300  164.2150  226.7260 O.co2 170  ASP170     -0.2456
      8  OD2      194.3990  162.7720  225.0520 O.co2 170  ASP170     -0.2456
      9  N        196.3450  161.6840  229.9460 N.am  171  ARG171     -0.1966
     10  CA       196.7630  160.5100  230.6810 C.3   171  ARG171      0.1729
     11  C        196.7920  159.3290  229.7380 C.2   171  ARG171      0.2616
     12  O        196.4460  159.4480  228.5620 O.2   171  ARG171     -0.2715
     13  CB       195.8210  160.2330  231.8380 C.3   171  ARG171      0.0348
     14  CG       195.9200  161.2350  232.9680 C.3   171  ARG171      0.0492
     15  CD       195.1530  160.8030  234.1950 C.3   171  ARG171      0.2205
     16  NE       193.7150  160.7520  233.9910 N.pl3 171  ARG171     -0.0865
     17  CZ       192.9110  161.7930  234.1990 C.cat 171  ARG171      0.5346
     18  NH1      193.3590  162.9820  234.5810 N.pl3 171  ARG171      0.1354
     19  NH2      191.6190  161.6240  234.0610 N.pl3 171  ARG171      0.1354
     20  N        197.3790  158.2500  230.2070 N.am  172  GLN172     -0.1963
     21  CA       197.4210  156.9820  229.5040 C.3   172  GLN172      0.1733
     22  C        198.3900  157.1230  228.3490 C.2   172  GLN172      0.2617
     23  O        199.0640  156.1630  227.9790 O.2   172  GLN172     -0.2715
     24  CB       196.0320  156.5770  229.0320 C.3   172  GLN172      0.0408
     25  CG       195.9940  155.1640  228.5180 C.3   172  GLN172      0.0908
     26  CD       196.1750  154.1530  229.6300 C.2   172  GLN172      0.2608
     27  OE1      195.5260  154.1870  230.7000 O.2   172  GLN172     -0.2717
     28  NE2      197.0970  153.2140  229.4260 N.am  172  GLN172     -0.0878
     29  N        198.5500  158.3370  227.8500 N.am  173  THR173     -0.1937
     30  CA       199.6680  158.6470  227.0030 C.3   173  THR173      0.2028
     31  C        199.9000  160.1290  226.9830 C.2   173  THR173      0.2643
     32  O        198.9730  160.8750  226.7600 O.2   173  THR173     -0.2714
     33  CB       199.4430  158.1570  225.5770 C.3   173  THR173      0.1808
     34  OG1      200.6380  158.2810  224.7890 O.3   173  THR173     -0.2208
     35  CG2      198.3390  158.8620  224.8510 C.3   173  THR173      0.0379
     36  N        201.1450  160.5540  227.0800 N.am  174  GLY174     -0.1939
     37  CA       202.1860  159.7110  227.5890 C.3   174  GLY174      0.2014
     38  C        202.3550  160.2090  228.9870 C.2   174  GLY174      0.2639
     39  O        203.0030  159.5680  229.7720 O.2   174  GLY174     -0.2714
     40  N        201.8680  161.4240  229.2030 N.am  175  LYS175     -0.1963
     41  CA       201.4870  161.9400  230.5130 C.3   175  LYS175      0.1728
     42  C        202.4780  161.3770  231.5040 C.2   175  LYS175      0.2617
     43  O        203.6610  161.7360  231.4290 O.2   175  LYS175     -0.2715
     44  CB       200.0400  161.6830  230.8610 C.3   175  LYS175      0.0311
     45  CG       199.3270  162.3640  232.0000 C.3   175  LYS175      0.0038
     46  CD       199.6520  163.8060  232.3810 C.3   175  LYS175      0.0206
     47  CE       200.7170  164.2700  233.3710 C.3   175  LYS175      0.1093
     48  NZ       202.0010  164.8080  232.8120 N.3   175  LYS175     -0.1314
     49  N        202.0590  160.5100  232.4140 N.am  176  THR176     -0.1937
     50  CA       202.9770  160.0160  233.4130 C.3   176  THR176      0.2028
     51  C        204.3040  159.6780  232.7790 C.2   176  THR176      0.2642
     52  O        205.3360  160.1880  233.2120 O.2   176  THR176     -0.2714
     53  CB       202.3880  158.8000  234.1030 C.3   176  THR176      0.1808
     54  OG1      202.1600  157.7980  233.1240 O.3   176  THR176     -0.2208
     55  CG2      201.1040  159.1300  234.8390 C.3   176  THR176      0.0379
     56  N        204.3100  158.9070  231.6990 N.am  177  ALA177     -0.1963
     57  CA       205.5760  158.7990  230.9880 C.3   177  ALA177      0.1728
     58  C        206.0360  160.1690  230.5530 C.2   177  ALA177      0.2616
     59  O        207.0670  160.6720  231.0060 O.2   177  ALA177     -0.2715
     60  CB       205.4740  157.8930  229.7730 C.3   177  ALA177      0.0334
     61  N        205.2660  160.7910  229.6750 N.am  178  LEU178     -0.1977
     62  CA       205.7030  162.0190  229.0450 C.3   178  LEU178      0.1596
     63  C        207.0980  161.8430  228.4860 C.2   178  LEU178      0.2287
     64  O        207.4740  160.7550  228.0480 O.2   178  LEU178     -0.2864
     65  CB       205.7180  163.1750  230.0400 C.3   178  LEU178      0.0297
     66  CG       205.5020  164.6120  229.5950 C.3   178  LEU178      0.0022
     67  CD1      204.2450  164.7440  228.7590 C.3   178  LEU178      0.0001
     68  CD2      205.4040  165.4580  230.8520 C.3   178  LEU178      0.0001
     69  N        198.6090  161.0010  219.4760 N.3   360  PHE360     -0.1241
     70  CA       198.7620  159.9540  220.4730 C.3   360  PHE360      0.1605
     71  C        197.6060  158.9840  220.4050 C.2   360  PHE360      0.2264
     72  O        197.7990  157.7710  220.4940 O.2   360  PHE360     -0.2867
     73  CB       198.8330  160.5480  221.8690 C.3   360  PHE360      0.0534
     74  CG       200.2440  160.6640  222.3930 C.ar  360  PHE360     -0.0203
     75  CD1      201.3090  160.9430  221.5420 C.ar  360  PHE360     -0.0042
     76  CD2      200.4650  160.4730  223.7670 C.ar  360  PHE360     -0.0042
     77  CE1      202.6060  161.1050  222.0290 C.ar  360  PHE360     -0.0003
     78  CE2      201.7760  160.6280  224.2670 C.ar  360  PHE360     -0.0003
     79  CZ       202.8180  160.9170  223.3860 C.ar  360  PHE360     -0.0000
     80  N        198.3520  157.1640  218.2460 N.3   363  GLY363     -0.1210
     81  CA       199.6540  156.6810  218.6020 C.3   363  GLY363      0.1956
     82  C        200.7260  157.3620  217.8200 C.2   363  GLY363      0.2612
     83  O        201.8810  156.9490  217.8970 O.2   363  GLY363     -0.2717
     84  N        200.3720  158.3900  217.0500 N.am  364  ILE364     -0.1965
     85  CA       201.3890  159.1230  216.3340 C.3   364  ILE364      0.1727
     86  C        202.4450  159.5290  217.3370 C.2   364  ILE364      0.2616
     87  O        202.1360  159.9340  218.4650 O.2   364  ILE364     -0.2715
     88  CB       200.8110  160.3420  215.6020 C.3   364  ILE364      0.0290
     89  CG1      199.7550  159.9080  214.5640 C.3   364  ILE364      0.0022
     90  CG2      201.8930  161.2060  214.9800 C.3   364  ILE364      0.0023
     91  CD1      200.3640  159.2030  213.3620 C.3   364  ILE364      0.0001
     92  N        203.7000  159.3520  216.9330 N.am  365  ARG365     -0.1977
     93  CA       204.8030  159.4190  217.8810 C.3   365  ARG365      0.1597
     94  C        204.6780  160.6120  218.7970 C.2   365  ARG365      0.2287
     95  O        204.5880  160.4140  220.0200 O.2   365  ARG365     -0.2864
     96  CB       206.1360  159.4530  217.1310 C.3   365  ARG365      0.0334
     97  CG       206.2880  158.2190  216.2130 C.3   365  ARG365      0.0492
     98  CD       206.2830  156.8910  217.0130 C.3   365  ARG365      0.2205
     99  NE       206.3340  155.8170  216.0000 N.pl3 365  ARG365     -0.0865
    100  CZ       206.2700  154.5060  216.3230 C.cat 365  ARG365      0.5346
    101  NH1      206.1910  154.1500  217.6000 N.pl3 365  ARG365      0.1354
    102  NH2      206.2880  153.5800  215.3570 N.pl3 365  ARG365      0.1354
    103  N        209.5800  156.0450  221.1010 N.3   435  GLN435     -0.1231
    104  CA       209.5590  156.0830  222.5470 C.3   435  GLN435      0.1698
    105  C        210.8530  155.5190  223.1030 C.2   435  GLN435      0.2592
    106  O        211.4360  154.5870  222.5430 O.2   435  GLN435     -0.2718
    107  CB       208.3820  155.2820  223.0620 C.3   435  GLN435      0.0381
    108  CG       207.0360  155.6780  222.4940 C.3   435  GLN435      0.0905
    109  CD       206.7130  157.1490  222.6590 C.2   435  GLN435      0.2608
    110  OE1      206.7660  157.6750  223.7810 O.2   435  GLN435     -0.2717
    111  NE2      206.3990  157.8080  221.5630 N.am  435  GLN435     -0.0878
    112  N        211.3070  156.1070  224.2040 N.am  436  TYR436     -0.1976
    113  CA       212.4580  155.6100  224.9470 C.3   436  TYR436      0.1639
    114  C        213.7170  155.6030  224.0900 C.2   436  TYR436      0.2290
    115  O        214.5060  154.6610  224.1290 O.2   436  TYR436     -0.2864
    116  CB       212.1850  154.2180  225.5130 C.3   436  TYR436      0.0560
    117  CG       211.2620  154.1240  226.6890 C.ar  436  TYR436     -0.0198
    118  CD1      209.8980  154.3140  226.5380 C.ar  436  TYR436     -0.0009
    119  CD2      211.7590  153.8310  227.9600 C.ar  436  TYR436     -0.0009
    120  CE1      209.0370  154.2230  227.6280 C.ar  436  TYR436      0.0417
    121  CE2      210.9200  153.7330  229.0550 C.ar  436  TYR436      0.0417
    122  CZ       209.5510  153.9360  228.8860 C.ar  436  TYR436      0.1957
    123  OH       208.6920  153.9060  229.9700 O.3   436  TYR436     -0.2866
@<TRIPOS>BOND
     1    91    89    1
     2    89    88    1
     3    90    88    1
     4   102   100    1
     5    88    85    1
     6    99   100    2
     7    99    98    1
     8    97    98    1
     9    97    96    1
    10   100   101    1
    11    85    84    1
    12    85    86    1
    13    92    86   am
    14    92    93    1
    15    84    82   am
    16    96    93    1
    17    86    87    2
    18    82    83    2
    19    82    81    1
    20    93    94    1
    21    80    81    1
    22    94    95    2
    23    69    70    1
    24    71    70    1
    25    71    72    2
    26    70    73    1
    27   103   104    1
    28    75    77   ar
    29    75    74   ar
    30   111   109   am
    31    73    74    1
    32    77    79   ar
    33    74    76   ar
    34   108   109    1
    35   108   107    1
    36   106   105    2
    37   104   107    1
    38   104   105    1
    39   109   110    2
    40   105   112   am
    41    79    78   ar
    42    76    78   ar
    43   114   115    2
    44   114   113    1
    45   112   113    1
    46    34    33    1
    47    35    33    1
    48   113   116    1
    49     8     6   ar
    50   116   117    1
    51    33    30    1
    52     6     7   ar
    53     6     5    1
    54   118   117   ar
    55   118   120   ar
    56   117   119   ar
    57    32    31    2
    58     5     2    1
    59    31    30    1
    60    31    36   am
    61    30    29    1
    62    36    37    1
    63    37    38    1
    64   120   122   ar
    65     1     2    1
    66    29    22   am
    67   119   121   ar
    68    23    22    2
    69    64    63    2
    70     2     3    1
    71    22    21    1
    72    63    62    1
    73    25    24    1
    74    25    26    1
    75    12    11    2
    76    67    66    1
    77     4     3    2
    78   122   121   ar
    79   122   123    1
    80     3     9   am
    81    38    40   am
    82    38    39    2
    83    24    21    1
    84    62    61    1
    85    62    65    1
    86    40    41    1
    87    28    26   am
    88    21    20    1
    89    66    65    1
    90    66    68    1
    91    26    27    2
    92    61    58   am
    93    11    20   am
    94    11    10    1
    95    60    57    1
    96     9    10    1
    97    41    44    1
    98    41    42    1
    99    58    57    1
   100    58    59    2
   101    10    13    1
   102    44    45    1
   103    57    56    1
   104    43    42    2
   105    42    49   am
   106    56    51   am
   107    13    14    1
   108    45    46    1
   109    46    47    1
   110    49    50    1
   111    51    52    2
   112    51    50    1
   113    48    47    1
   114    14    15    1
   115    54    53    1
   116    50    53    1
   117    16    15    1
   118    16    17    2
   119    19    17    1
   120    53    55    1
   121    17    18    1
