@<TRIPOS>MOLECULE
tmp/5t4pE00.pdb
 122 119 0 0 0
SMALL
GASTEIGER

@<TRIPOS>ATOM
      1  N        196.3570  190.5810  231.5020 N.3   157  GLY157     -0.1210
      2  CA       197.0690  189.9960  232.6000 C.3   157  GLY157      0.1956
      3  C        198.5430  189.9940  232.2840 C.2   157  GLY157      0.2612
      4  O        198.9830  190.3200  231.1810 O.2   157  GLY157     -0.2717
      5  N        199.3280  189.6540  233.2870 N.am  158  ALA158     -0.1965
      6  CA       200.7470  189.5420  233.0340 C.3   158  ALA158      0.1728
      7  C        201.0530  188.2420  232.2910 C.2   158  ALA158      0.2617
      8  O        200.2410  187.3170  232.2310 O.2   158  ALA158     -0.2715
      9  CB       201.5400  189.6660  234.3270 C.3   158  ALA158      0.0334
     10  N        202.2400  188.1970  231.7010 N.am  159  GLY159     -0.1940
     11  CA       202.5150  187.3330  230.5880 C.3   159  GLY159      0.2014
     12  C        202.0510  187.8800  229.2590 C.2   159  GLY159      0.2639
     13  O        202.5130  187.4120  228.2180 O.2   159  GLY159     -0.2714
     14  N        201.1720  188.8840  229.2520 N.am  160  VAL160     -0.1963
     15  CA       200.6250  189.3740  227.9910 C.3   160  VAL160      0.1727
     16  C        201.5850  190.2980  227.2830 C.2   160  VAL160      0.2617
     17  O        201.2510  190.8390  226.2240 O.2   160  VAL160     -0.2715
     18  CB       199.3110  190.1480  228.1930 C.3   160  VAL160      0.0290
     19  CG1      198.2550  189.2790  228.8740 C.3   160  VAL160      0.0023
     20  CG2      199.5430  191.4350  228.9680 C.3   160  VAL160      0.0023
     21  N        202.7540  190.5110  227.8400 N.am  161  GLY161     -0.1940
     22  CA       203.5020  191.6650  227.4870 C.3   161  GLY161      0.2014
     23  C        202.9330  192.9120  228.0470 C.2   161  GLY161      0.2639
     24  O        203.3870  193.9930  227.6740 O.2   161  GLY161     -0.2714
     25  N        201.9760  192.7860  228.9570 N.am  162  LYS162     -0.1963
     26  CA       201.4640  193.9220  229.6910 C.3   162  LYS162      0.1728
     27  C        202.6740  194.7350  230.1130 C.2   162  LYS162      0.2617
     28  O        202.6870  195.9550  229.9680 O.2   162  LYS162     -0.2715
     29  CB       200.6380  193.4610  230.8930 C.3   162  LYS162      0.0311
     30  CG       200.0940  194.5820  231.7680 C.3   162  LYS162      0.0038
     31  CD       199.4790  194.0370  233.0560 C.3   162  LYS162      0.0206
     32  CE       200.5420  193.5020  234.0190 C.3   162  LYS162      0.1093
     33  NZ       199.9170  192.7850  235.1670 N.3   162  LYS162     -0.1314
     34  N        203.7240  194.0620  230.5770 N.am  163  THR163     -0.1937
     35  CA       205.0180  194.7170  230.7220 C.3   163  THR163      0.2028
     36  C        205.8130  194.7250  229.4210 C.2   163  THR163      0.2642
     37  O        206.5370  195.6820  229.1440 O.2   163  THR163     -0.2714
     38  CB       205.8290  194.0440  231.8240 C.3   163  THR163      0.1808
     39  OG1      206.0210  192.6830  231.4700 O.3   163  THR163     -0.2208
     40  CG2      205.1520  194.1540  233.1770 C.3   163  THR163      0.0379
     41  N        205.7380  193.6620  228.6240 N.am  164  VAL164     -0.1963
     42  CA       206.6440  193.6030  227.4840 C.3   164  VAL164      0.1727
     43  C        206.2070  194.5700  226.4080 C.2   164  VAL164      0.2616
     44  O        207.0350  195.2610  225.8100 O.2   164  VAL164     -0.2715
     45  CB       206.7640  192.1770  226.9440 C.3   164  VAL164      0.0290
     46  CG1      207.7020  192.1020  225.7440 C.3   164  VAL164      0.0023
     47  CG2      207.3290  191.2820  228.0500 C.3   164  VAL164      0.0023
     48  N        204.9110  194.6410  226.1310 N.am  165  ASN165     -0.1972
     49  CA       204.4310  195.8180  225.4260 C.3   165  ASN165      0.1688
     50  C        204.8920  197.0700  226.1560 C.2   165  ASN165      0.2292
     51  O        205.4600  197.9950  225.5530 O.2   165  ASN165     -0.2864
     52  CB       202.9100  195.7730  225.3090 C.3   165  ASN165      0.1181
     53  CG       202.4490  194.8370  224.2070 C.2   165  ASN165      0.2629
     54  OD1      201.3410  194.3150  224.2540 O.2   165  ASN165     -0.2716
     55  ND2      203.3190  194.6340  223.2280 N.am  165  ASN165     -0.0877
     56  N        208.4690  198.7010  225.0200 N.3   168  GLU168     -0.1245
     57  CA       208.4660  199.7460  224.0110 C.3   168  GLU168      0.1567
     58  C        207.7610  200.9690  224.5440 C.2   168  GLU168      0.2260
     59  O        208.1570  202.1030  224.2540 O.2   168  GLU168     -0.2867
     60  CB       207.7970  199.2480  222.7340 C.3   168  GLU168      0.0388
     61  CG       208.1240  197.8170  222.3620 C.3   168  GLU168      0.1160
     62  CD       207.3530  197.3700  221.1140 C.2   168  GLU168      0.3649
     63  OE1      206.6730  198.2360  220.5140 O.co2 168  GLU168     -0.2457
     64  OE2      207.4770  196.1630  220.8240 O.co2 168  GLU168     -0.2457
     65  N        196.6710  188.2770  223.5170 N.3   330  ARG330     -0.1245
     66  CA       197.0130  187.1540  222.6660 C.3   330  ARG330      0.1563
     67  C        196.5340  187.3470  221.2410 C.2   330  ARG330      0.2260
     68  O        196.8410  186.5120  220.3960 O.2   330  ARG330     -0.2867
     69  CB       196.4200  185.8640  223.2260 C.3   330  ARG330      0.0307
     70  CG       197.0060  185.3880  224.5640 C.3   330  ARG330      0.0489
     71  CD       198.4300  184.9620  224.3520 C.3   330  ARG330      0.2205
     72  NE       199.0290  184.4670  225.5990 N.pl3 330  ARG330     -0.0865
     73  CZ       199.9000  185.2090  226.2980 C.cat 330  ARG330      0.5346
     74  NH1      200.3530  186.4250  225.8900 N.pl3 330  ARG330      0.1354
     75  NH2      200.3970  184.6710  227.4100 N.pl3 330  ARG330      0.1354
     76  N        203.9120  192.0590  215.6510 N.3   338  TYR338     -0.1228
     77  CA       204.8930  192.6470  216.5550 C.3   338  TYR338      0.1721
     78  C        204.2250  193.2630  217.7670 C.2   338  TYR338      0.2437
     79  O        204.7790  193.1520  218.8740 O.2   338  TYR338     -0.2733
     80  CB       205.7260  193.6910  215.7970 C.3   338  TYR338      0.0547
     81  CG       206.9580  193.0390  215.2180 C.ar  338  TYR338     -0.0200
     82  CD1      206.9090  191.8070  214.5660 C.ar  338  TYR338     -0.0009
     83  CD2      208.1770  193.6710  215.3280 C.ar  338  TYR338     -0.0009
     84  CE1      208.0420  191.2120  214.0340 C.ar  338  TYR338      0.0417
     85  CE2      209.3220  193.0950  214.7970 C.ar  338  TYR338      0.0417
     86  CZ       209.2430  191.8660  214.1550 C.ar  338  TYR338      0.1957
     87  OH       210.4210  191.3320  213.6510 O.3   338  TYR338     -0.2866
     88  N        203.0560  193.8910  217.6420 N.am  339  PRO339     -0.2718
     89  CA       202.3770  194.3970  218.8430 C.3   339  PRO339      0.1535
     90  C        202.0030  193.3130  219.8400 C.2   339  PRO339      0.2598
     91  O        202.3050  193.4510  221.0330 O.2   339  PRO339     -0.2715
     92  CB       201.1230  195.0700  218.3220 C.3   339  PRO339      0.0310
     93  CG       201.4850  195.6110  216.9300 C.3   339  PRO339      0.0237
     94  CD       202.3930  194.5000  216.3750 C.3   339  PRO339      0.0939
     95  N        201.3790  192.2240  219.3820 N.am  340  ALA340     -0.1978
     96  CA       200.8680  191.1820  220.2740 C.3   340  ALA340      0.1597
     97  C        199.8900  191.7560  221.3020 C.2   340  ALA340      0.2287
     98  O        200.0970  191.6410  222.5120 O.2   340  ALA340     -0.2864
     99  CB       202.0130  190.4360  220.9630 C.3   340  ALA340      0.0319
    100  N        211.6920  197.1690  219.5520 N.3   414  ALA414     -0.1245
    101  CA       211.6120  195.7670  219.1890 C.3   414  ALA414      0.1562
    102  C        212.9340  195.0870  219.4610 C.2   414  ALA414      0.2260
    103  O        212.9420  193.9910  220.0250 O.2   414  ALA414     -0.2867
    104  CB       211.2150  195.6020  217.7220 C.3   414  ALA414      0.0290
    105  N        212.8930  192.7830  222.6730 N.3   417  PHE417     -0.1227
    106  CA       212.0340  191.6130  222.5480 C.3   417  PHE417      0.1736
    107  C        212.2890  190.9190  221.2240 C.2   417  PHE417      0.2596
    108  O        212.6720  189.7470  221.1780 O.2   417  PHE417     -0.2718
    109  CB       210.5650  192.0240  222.6760 C.3   417  PHE417      0.0547
    110  CG       209.5600  190.9000  222.5480 C.ar  417  PHE417     -0.0202
    111  CD1      209.5870  189.8030  223.3630 C.ar  417  PHE417     -0.0042
    112  CD2      208.5460  190.9750  221.6280 C.ar  417  PHE417     -0.0042
    113  CE1      208.6410  188.8000  223.3270 C.ar  417  PHE417     -0.0003
    114  CE2      207.5470  189.9710  221.5650 C.ar  417  PHE417     -0.0003
    115  CZ       207.6460  188.9020  222.3880 C.ar  417  PHE417     -0.0000
    116  N        212.1220  191.6510  220.1370 N.am  418  THR418     -0.1953
    117  CA       212.4900  191.1780  218.8140 C.3   418  THR418      0.1897
    118  C        213.8890  191.6950  218.5430 C.2   418  THR418      0.2313
    119  O        214.0540  192.8690  218.2270 O.2   418  THR418     -0.2863
    120  CB       211.5090  191.6960  217.7670 C.3   418  THR418      0.1794
    121  OG1      210.2120  191.1870  218.1100 O.3   418  THR418     -0.2208
    122  CG2      211.8340  191.2440  216.3810 C.3   418  THR418      0.0378
@<TRIPOS>BOND
     1    87    86    1
     2    84    86   ar
     3    84    82   ar
     4    86    85   ar
     5    82    81   ar
     6    85    83   ar
     7    81    83   ar
     8    81    80    1
     9    76    77    1
    10    80    77    1
    11    94    93    1
    12    94    88    1
    13   122   120    1
    14    77    78    1
    15    93    92    1
    16    88    78   am
    17    88    89    1
    18   104   101    1
    19    78    79    2
    20   120   121    1
    21   120   117    1
    22   119   118    2
    23    92    89    1
    24   118   117    1
    25   117   116    1
    26    89    90    1
    27   101   102    1
    28   101   100    1
    29    95    90   am
    30    95    96    1
    31   102   103    2
    32    90    91    2
    33   116   107   am
    34    96    99    1
    35    96    97    1
    36    68    67    2
    37    63    62   ar
    38    64    62   ar
    39    62    61    1
    40   108   107    2
    41   107   106    1
    42    67    66    1
    43    97    98    2
    44   114   112   ar
    45   114   115   ar
    46   112   110   ar
    47    61    60    1
    48   115   113   ar
    49   106   105    1
    50   106   109    1
    51   110   109    1
    52   110   111   ar
    53    66    69    1
    54    66    65    1
    55    60    57    1
    56    69    70    1
    57    55    53   am
    58   113   111   ar
    59    57    58    1
    60    57    56    1
    61    53    54    2
    62    53    52    1
    63    59    58    2
    64    71    70    1
    65    71    72    1
    66    52    49    1
    67    49    48    1
    68    49    50    1
    69    51    50    2
    70    72    73    2
    71    46    45    1
    72    44    43    2
    73    74    73    1
    74    48    43   am
    75    17    16    2
    76    73    75    1
    77    43    42    1
    78    45    42    1
    79    45    47    1
    80    16    21   am
    81    16    15    1
    82    42    41    1
    83    22    21    1
    84    22    23    1
    85    24    23    2
    86    15    18    1
    87    15    14    1
    88    23    25   am
    89    18    19    1
    90    18    20    1
    91    13    12    2
    92    41    36   am
    93    25    26    1
    94    37    36    2
    95    14    12   am
    96    12    11    1
    97    36    35    1
    98    26    27    1
    99    26    29    1
   100    28    27    2
   101    27    34   am
   102    34    35    1
   103    11    10    1
   104    35    38    1
   105    29    30    1
   106     4     3    2
   107    39    38    1
   108     1     2    1
   109    10     7   am
   110    30    31    1
   111    38    40    1
   112     8     7    2
   113     3     2    1
   114     3     5   am
   115     7     6    1
   116     6     5    1
   117     6     9    1
   118    31    32    1
   119    32    33    1
