@<TRIPOS>MOLECULE
tmp/5t4sB01.pdb
 116 113 0 0 0
SMALL
GASTEIGER

@<TRIPOS>ATOM
      1  N          8.7940   -2.7710  -16.9220 N.3    16  THR16      -0.1203
      2  CA        10.1370   -2.5750  -16.3600 C.3    16  THR16       0.1994
      3  C         11.2380   -3.3540  -17.0810 C.2    16  THR16       0.2618
      4  O         12.3980   -2.9610  -17.0370 O.2    16  THR16      -0.2717
      5  CB        10.2050   -2.9010  -14.8530 C.3    16  THR16       0.1784
      6  OG1        9.8040   -4.2600  -14.6300 O.3    16  THR16      -0.2211
      7  CG2        9.3260   -1.9520  -14.0520 C.3    16  THR16       0.0376
      8  N         10.8830   -4.4590  -17.7230 N.am   17  GLN17      -0.1965
      9  CA        11.8710   -5.2980  -18.3870 C.3    17  GLN17       0.1733
     10  C         11.4120   -5.6300  -19.7970 C.2    17  GLN17       0.2616
     11  O         10.3220   -6.1770  -19.9970 O.2    17  GLN17      -0.2715
     12  CB        12.1340   -6.5810  -17.5870 C.3    17  GLN17       0.0408
     13  CG        12.7990   -6.3600  -16.2360 C.3    17  GLN17       0.0908
     14  CD        12.8480   -7.6120  -15.3750 C.2    17  GLN17       0.2608
     15  OE1       13.2020   -8.7050  -15.8420 O.2    17  GLN17      -0.2717
     16  NE2       12.5050   -7.4560  -14.1000 N.am   17  GLN17      -0.0878
     17  N         12.2530   -5.2830  -20.7640 N.am   18  TYR18      -0.1974
     18  CA        12.0150   -5.5730  -22.1690 C.3    18  TYR18       0.1639
     19  C         13.1580   -6.4230  -22.6740 C.2    18  TYR18       0.2290
     20  O         14.3260   -6.0250  -22.5820 O.2    18  TYR18      -0.2864
     21  CB        11.9020   -4.2790  -22.9740 C.3    18  TYR18       0.0560
     22  CG        10.6880   -3.4540  -22.6250 C.ar   18  TYR18      -0.0198
     23  CD1       10.7000   -2.5870  -21.5260 C.ar   18  TYR18      -0.0009
     24  CD2        9.5160   -3.5450  -23.3860 C.ar   18  TYR18      -0.0009
     25  CE1        9.5840   -1.8410  -21.1940 C.ar   18  TYR18       0.0417
     26  CE2        8.4000   -2.7870  -23.0640 C.ar   18  TYR18       0.0417
     27  CZ         8.4440   -1.9430  -21.9680 C.ar   18  TYR18       0.1957
     28  OH         7.3470   -1.2000  -21.6350 O.3    18  TYR18      -0.2866
     29  N         18.2060   -8.6220  -22.6290 N.3    34  VAL34      -0.1245
     30  CA        17.9380   -7.1930  -22.7150 C.3    34  VAL34       0.1561
     31  C         18.8880   -6.6010  -23.7440 C.2    34  VAL34       0.2260
     32  O         20.1060   -6.8390  -23.6890 O.2    34  VAL34      -0.2867
     33  CB        18.1520   -6.4730  -21.3650 C.3    34  VAL34       0.0252
     34  CG1       18.0160   -4.9610  -21.5140 C.3    34  VAL34       0.0019
     35  CG2       17.1690   -6.9800  -20.3370 C.3    34  VAL34       0.0019
     36  N         21.0500   -8.2330   -8.3200 N.3   112  PRO112     -0.2102
     37  CA        19.6570   -8.0580   -8.7440 C.3   112  PRO112      0.1504
     38  C         19.0810   -9.1770   -9.6310 C.2   112  PRO112      0.2575
     39  O         17.9370   -9.0700  -10.0660 O.2   112  PRO112     -0.2718
     40  CB        19.7110   -6.7420   -9.5370 C.3   112  PRO112      0.0282
     41  CG        21.0990   -6.6900  -10.0950 C.3   112  PRO112      0.0208
     42  CD        21.9910   -7.5230   -9.2110 C.3   112  PRO112      0.0893
     43  N         19.8400  -10.2420   -9.8750 N.am  113  PHE113     -0.1977
     44  CA        19.4890  -11.1860  -10.9500 C.3   113  PHE113      0.1639
     45  C         18.3800  -12.2100  -10.6790 C.2   113  PHE113      0.2290
     46  O         17.9970  -12.9510  -11.5850 O.2   113  PHE113     -0.2864
     47  CB        20.7500  -11.7890  -11.5840 C.3   113  PHE113      0.0560
     48  CG        21.6620  -10.7530  -12.1860 C.ar  113  PHE113     -0.0200
     49  CD1       21.3930  -10.2090  -13.4340 C.ar  113  PHE113     -0.0042
     50  CD2       22.7650  -10.2940  -11.4870 C.ar  113  PHE113     -0.0042
     51  CE1       22.2170   -9.2400  -13.9750 C.ar  113  PHE113     -0.0003
     52  CE2       23.5890   -9.3240  -12.0220 C.ar  113  PHE113     -0.0003
     53  CZ        23.3190   -8.8000  -13.2690 C.ar  113  PHE113     -0.0000
     54  N         15.6080  -10.7840   -9.7640 N.3   115  LEU115     -0.1231
     55  CA        14.6290   -9.8600  -10.3600 C.3   115  LEU115      0.1693
     56  C         14.5230  -10.0520  -11.8700 C.2   115  LEU115      0.2591
     57  O         13.4770   -9.7720  -12.4610 O.2   115  LEU115     -0.2718
     58  CB        15.0330   -8.3960  -10.1070 C.3   115  LEU115      0.0284
     59  CG        14.4740   -7.4490   -9.0370 C.3   115  LEU115      0.0019
     60  CD1       14.2160   -8.1270   -7.7090 C.3   115  LEU115      0.0001
     61  CD2       15.4230   -6.2730   -8.8480 C.3   115  LEU115      0.0001
     62  N         15.6200  -10.5020  -12.4810 N.am  116  ALA116     -0.1980
     63  CA        15.7320  -10.6280  -13.9280 C.3   116  ALA116      0.1597
     64  C         14.8760  -11.7740  -14.4790 C.2   116  ALA116      0.2287
     65  O         15.0870  -12.9450  -14.1320 O.2   116  ALA116     -0.2864
     66  CB        17.1920  -10.7940  -14.3260 C.3   116  ALA116      0.0319
     67  N         14.7890  -12.0430  -17.7020 N.3   118  PHE118     -0.1241
     68  CA        15.6930  -12.3140  -18.8060 C.3   118  PHE118      0.1605
     69  C         16.9260  -13.0190  -18.2690 C.2   118  PHE118      0.2264
     70  O         17.1940  -12.9890  -17.0630 O.2   118  PHE118     -0.2867
     71  CB        16.0870  -10.9970  -19.4890 C.3   118  PHE118      0.0534
     72  CG        16.6190   -9.9560  -18.5420 C.ar  118  PHE118     -0.0203
     73  CD1       17.9950   -9.8710  -18.2730 C.ar  118  PHE118     -0.0042
     74  CD2       15.7510   -9.0510  -17.9120 C.ar  118  PHE118     -0.0042
     75  CE1       18.4870   -8.9120  -17.3960 C.ar  118  PHE118     -0.0003
     76  CE2       16.2420   -8.0860  -17.0330 C.ar  118  PHE118     -0.0003
     77  CZ        17.6110   -8.0170  -16.7790 C.ar  118  PHE118     -0.0000
     78  N          9.0780    0.0760  -27.5350 N.3   156  TYR156     -0.1241
     79  CA         8.5960   -0.5040  -26.2810 C.3   156  TYR156      0.1605
     80  C          7.1130   -0.1860  -26.1310 C.2   156  TYR156      0.2264
     81  O          6.7240    0.9850  -26.0760 O.2   156  TYR156     -0.2867
     82  CB         9.3540    0.0390  -25.0560 C.3   156  TYR156      0.0534
     83  CG        10.7930   -0.4380  -24.8240 C.ar  156  TYR156     -0.0201
     84  CD1       11.3660   -1.4810  -25.5710 C.ar  156  TYR156     -0.0009
     85  CD2       11.5800    0.1530  -23.8200 C.ar  156  TYR156     -0.0009
     86  CE1       12.6810   -1.8940  -25.3450 C.ar  156  TYR156      0.0417
     87  CE2       12.8910   -0.2620  -23.5790 C.ar  156  TYR156      0.0417
     88  CZ        13.4320   -1.2890  -24.3410 C.ar  156  TYR156      0.1957
     89  OH        14.7250   -1.7070  -24.1140 O.3   156  TYR156     -0.2866
     90  N         18.2430    2.0900  -23.2270 N.3   218  THR218     -0.1203
     91  CA        17.2320    1.0680  -23.4810 C.3   218  THR218      0.1994
     92  C         17.2000   -0.0470  -22.4380 C.2   218  THR218      0.2618
     93  O         16.1720   -0.7090  -22.2740 O.2   218  THR218     -0.2717
     94  CB        17.3940    0.4480  -24.8750 C.3   218  THR218      0.1784
     95  OG1       18.6750   -0.1780  -24.9740 O.3   218  THR218     -0.2211
     96  CG2       17.2690    1.5010  -25.9420 C.3   218  THR218      0.0376
     97  N         18.3180   -0.2510  -21.7450 N.am  219  GLY219     -0.1942
     98  CA        18.4130   -1.2550  -20.6800 C.3   219  GLY219      0.2014
     99  C         18.0130   -0.7960  -19.2810 C.2   219  GLY219      0.2639
    100  O         18.1740   -1.5520  -18.3120 O.2   219  GLY219     -0.2714
    101  N         17.5030    0.4340  -19.1780 N.am  220  ALA220     -0.1963
    102  CA        17.0330    1.0150  -17.9150 C.3   220  ALA220      0.1728
    103  C         15.5070    1.1410  -17.9130 C.2   220  ALA220      0.2616
    104  O         14.9050    1.5550  -18.9120 O.2   220  ALA220     -0.2715
    105  CB        17.6840    2.3690  -17.6780 C.3   220  ALA220      0.0334
    106  N         14.8920    0.7820  -16.7870 N.am  221  SER221     -0.1950
    107  CA        13.4340    0.7220  -16.6780 C.3   221  SER221      0.1924
    108  C         12.7700    2.0980  -16.7690 C.2   221  SER221      0.2314
    109  O         11.7260    2.2470  -17.4060 O.2   221  SER221     -0.2863
    110  CB        13.0070    0.0420  -15.3720 C.3   221  SER221      0.2116
    111  OG        13.4180   -1.3150  -15.3100 O.3   221  SER221     -0.2180
    112  N         13.0470    3.0600  -20.4180 N.3   308  ALA308     -0.1245
    113  CA        11.7960    2.5170  -20.9480 C.3   308  ALA308      0.1562
    114  C         10.6000    3.4690  -20.8560 C.2   308  ALA308      0.2260
    115  O          9.7920    3.5140  -21.7870 O.2   308  ALA308     -0.2867
    116  CB        11.4800    1.1800  -20.3040 C.3   308  ALA308      0.0290
@<TRIPOS>BOND
     1    78    79    1
     2    79    80    1
     3    79    82    1
     4    80    81    2
     5    96    94    1
     6    84    86   ar
     7    84    83   ar
     8    86    88   ar
     9    82    83    1
    10    95    94    1
    11    94    91    1
    12    83    85   ar
    13    88    89    1
    14    88    87   ar
    15    85    87   ar
    16    31    32    2
    17    31    30    1
    18    91    90    1
    19    91    92    1
    20    24    26   ar
    21    24    22   ar
    22    26    27   ar
    23    21    22    1
    24    21    18    1
    25    30    29    1
    26    30    33    1
    27    19    20    2
    28    19    18    1
    29    22    23   ar
    30    92    93    2
    31    92    97   am
    32    18    17    1
    33    27    28    1
    34    27    25   ar
    35   115   114    2
    36    97    98    1
    37    23    25   ar
    38    34    33    1
    39    33    35    1
    40   113   114    1
    41   113   112    1
    42   113   116    1
    43    17    10   am
    44    98    99    1
    45    11    10    2
    46    10     9    1
    47    71    68    1
    48    71    72    1
    49    99   101   am
    50    99   100    2
    51   101   102    1
    52   104   103    2
    53    68    69    1
    54    68    67    1
    55    72    73   ar
    56    72    74   ar
    57     9     8    1
    58     9    12    1
    59    73    75   ar
    60    69    70    2
    61   102   103    1
    62   102   105    1
    63   103   106   am
    64    74    76   ar
    65     8     3   am
    66    12    13    1
    67   109   108    2
    68    75    77   ar
    69     3     4    2
    70     3     2    1
    71    76    77   ar
    72     1     2    1
    73   106   107    1
    74   108   107    1
    75   107   110    1
    76     2     5    1
    77    13    14    1
    78    15    14    2
    79    14    16   am
    80   110   111    1
    81     5     6    1
    82     5     7    1
    83    64    65    2
    84    64    63    1
    85    66    63    1
    86    51    49   ar
    87    51    53   ar
    88    63    62    1
    89    49    48   ar
    90    53    52   ar
    91    62    56   am
    92    57    56    2
    93    48    47    1
    94    48    50   ar
    95    52    50   ar
    96    56    55    1
    97    46    45    2
    98    47    44    1
    99    44    45    1
   100    44    43    1
   101    55    58    1
   102    55    54    1
   103    58    59    1
   104    41    40    1
   105    41    42    1
   106    39    38    2
   107    43    38   am
   108    38    37    1
   109    40    37    1
   110    42    36    1
   111    59    61    1
   112    59    60    1
   113    37    36    1
