@<TRIPOS>MOLECULE
tmp/5t4sA01.pdb
 119 113 0 0 0
SMALL
GASTEIGER

@<TRIPOS>ATOM
      1  N         -8.6150  -17.2680  -32.8250 N.3    18  GLN18      -0.1245
      2  CA        -9.3440  -17.3730  -34.0840 C.3    18  GLN18       0.1566
      3  C         -8.7950  -16.3720  -35.0910 C.2    18  GLN18       0.2260
      4  O         -8.7730  -15.1650  -34.8280 O.2    18  GLN18      -0.2867
      5  CB       -10.8500  -17.1860  -33.8570 C.3    18  GLN18       0.0367
      6  CG       -11.5150  -18.3130  -33.0690 C.3    18  GLN18       0.0905
      7  CD       -12.9690  -18.0350  -32.7490 C.2    18  GLN18       0.2608
      8  OE1      -13.7240  -17.5590  -33.5960 O.2    18  GLN18      -0.2717
      9  NE2      -13.3700  -18.3280  -31.5200 N.am   18  GLN18      -0.0878
     10  N        -12.2430  -19.4540  -41.4310 N.3    35  VAL35      -0.1245
     11  CA       -10.9280  -19.8840  -41.0000 C.3    35  VAL35       0.1561
     12  C        -10.3300  -20.6940  -42.1320 C.2    35  VAL35       0.2260
     13  O        -10.9870  -21.5730  -42.6970 O.2    35  VAL35      -0.2867
     14  CB       -10.9840  -20.7070  -39.6880 C.3    35  VAL35       0.0252
     15  CG1       -9.6690  -21.4380  -39.4330 C.3    35  VAL35       0.0019
     16  CG2      -11.2960  -19.7980  -38.5180 C.3    35  VAL35       0.0019
     17  N         -7.9510  -23.4380  -42.9260 N.3    37  ASP37      -0.1239
     18  CA        -7.5700  -24.5700  -42.0780 C.3    37  ASP37       0.1674
     19  C         -6.8540  -25.6690  -42.8690 C.2    37  ASP37       0.2266
     20  O         -7.4660  -26.3930  -43.6660 O.2    37  ASP37      -0.2867
     21  CB        -8.8120  -25.1050  -41.3440 C.3    37  ASP37       0.1410
     22  CG        -8.5670  -26.4140  -40.5960 C.2    37  ASP37       0.3668
     23  OD1       -7.4230  -26.7020  -40.1760 O.co2  37  ASP37      -0.2456
     24  OD2       -9.5470  -27.1640  -40.4010 O.co2  37  ASP37      -0.2456
     25  N        -14.7110  -32.1340  -36.7440 N.3    82  TYR82      -0.1241
     26  CA       -13.4940  -31.4730  -36.2630 C.3    82  TYR82       0.1605
     27  C        -13.2060  -31.9100  -34.8210 C.2    82  TYR82       0.2264
     28  O        -14.0060  -32.6180  -34.2180 O.2    82  TYR82      -0.2867
     29  CB       -13.6340  -29.9430  -36.3700 C.3    82  TYR82       0.0534
     30  CG       -13.9730  -29.4660  -37.7690 C.ar   82  TYR82      -0.0201
     31  CD1      -15.3030  -29.4070  -38.2060 C.ar   82  TYR82      -0.0009
     32  CD2      -12.9600  -29.0890  -38.6660 C.ar   82  TYR82      -0.0009
     33  CE1      -15.6180  -28.9970  -39.4920 C.ar   82  TYR82       0.0417
     34  CE2      -13.2680  -28.6720  -39.9530 C.ar   82  TYR82       0.0417
     35  CZ       -14.5990  -28.6330  -40.3590 C.ar   82  TYR82       0.1957
     36  OH       -14.9140  -28.2220  -41.6270 O.3    82  TYR82      -0.2866
     37  N        -13.1880  -30.1510  -32.0690 N.3    84  THR84      -0.1203
     38  CA       -13.9410  -29.4250  -31.0600 C.3    84  THR84       0.1997
     39  C        -15.4300  -29.4230  -31.3670 C.2    84  THR84       0.2657
     40  O        -16.2310  -28.9220  -30.5670 O.2    84  THR84      -0.2713
     41  CB       -13.4480  -27.9690  -30.9380 C.3    84  THR84       0.1784
     42  OG1      -13.5360  -27.3220  -32.2150 O.3    84  THR84      -0.2211
     43  CG2      -12.0050  -27.9290  -30.4470 C.3    84  THR84       0.0376
     44  N        -15.7980  -29.9880  -32.5170 N.am   85  GLY85      -0.1731
     45  CA       -17.1920  -30.0690  -32.8980 C.2    85  GLY85       0.1340
     46  C        -17.4770  -30.5360  -34.3040 C.2    85  GLY85       0.2521
     47  O        -16.5760  -30.7130  -35.1170 O.2    85  GLY85      -0.2816
     48  N        -22.6300  -25.1640  -28.7180 N.3   116  LEU116     -0.1231
     49  CA       -21.2600  -25.4310  -28.3150 C.3   116  LEU116      0.1678
     50  C        -20.6490  -26.3630  -29.3660 C.2   116  LEU116      0.2434
     51  O        -21.1220  -27.4840  -29.5080 O.2   116  LEU116     -0.2733
     52  CB       -21.2070  -26.0220  -26.9030 C.3   116  LEU116      0.0284
     53  CG       -21.8150  -25.1960  -25.7550 C.3   116  LEU116      0.0019
     54  CD1      -21.8120  -26.0090  -24.4690 C.3   116  LEU116      0.0001
     55  CD2      -21.1070  -23.8610  -25.5250 C.3   116  LEU116      0.0001
     56  N        -19.6210  -25.9290  -30.1070 N.am  117  PRO117     -0.2718
     57  CA       -18.8560  -24.7100  -29.8310 C.3   117  PRO117      0.1535
     58  C        -19.1980  -23.4800  -30.6870 C.2   117  PRO117      0.2598
     59  O        -18.6240  -22.4130  -30.4580 O.2   117  PRO117     -0.2715
     60  CB       -17.4360  -25.1480  -30.1940 C.3   117  PRO117      0.0310
     61  CG       -17.6490  -26.0360  -31.3870 C.3   117  PRO117      0.0237
     62  CD       -18.9430  -26.7680  -31.1200 C.3   117  PRO117      0.0939
     63  N        -20.0930  -23.6190  -31.6620 N.am  118  PHE118     -0.1974
     64  CA       -20.2110  -22.6130  -32.7270 C.3   118  PHE118      0.1639
     65  C        -20.7350  -21.2300  -32.3270 C.2   118  PHE118      0.2290
     66  O        -20.5220  -20.2670  -33.0600 O.2   118  PHE118     -0.2864
     67  CB       -20.8920  -23.1940  -33.9760 C.3   118  PHE118      0.0560
     68  CG       -20.0660  -24.2560  -34.6440 C.ar  118  PHE118     -0.0200
     69  CD1      -19.0040  -23.9060  -35.4780 C.ar  118  PHE118     -0.0042
     70  CD2      -20.3030  -25.6060  -34.3850 C.ar  118  PHE118     -0.0042
     71  CE1      -18.2120  -24.8790  -36.0640 C.ar  118  PHE118     -0.0003
     72  CE2      -19.5090  -26.5890  -34.9660 C.ar  118  PHE118     -0.0003
     73  CZ       -18.4620  -26.2230  -35.8050 C.ar  118  PHE118     -0.0000
     74  N        -19.3230  -19.8070  -29.9160 N.3   120  LEU120     -0.1231
     75  CA       -18.0490  -19.2340  -29.4980 C.3   120  LEU120      0.1693
     76  C        -17.1530  -18.9140  -30.6820 C.2   120  LEU120      0.2591
     77  O        -16.0300  -18.4510  -30.4950 O.2   120  LEU120     -0.2718
     78  CB       -17.3310  -20.1470  -28.4910 C.3   120  LEU120      0.0284
     79  CG       -17.9360  -20.4080  -27.1020 C.3   120  LEU120      0.0019
     80  CD1      -17.0500  -21.3730  -26.3310 C.3   120  LEU120      0.0001
     81  CD2      -18.1400  -19.1350  -26.2880 C.3   120  LEU120      0.0001
     82  N        -17.6500  -19.1560  -31.8940 N.am  121  ALA121     -0.1980
     83  CA       -16.9320  -18.7790  -33.1100 C.3   121  ALA121      0.1597
     84  C        -17.2490  -17.3440  -33.5320 C.2   121  ALA121      0.2287
     85  O        -18.4280  -16.9630  -33.6430 O.2   121  ALA121     -0.2864
     86  CB       -17.2590  -19.7440  -34.2380 C.3   121  ALA121      0.0319
     87  N        -15.8510  -16.4720  -36.4920 N.3   123  PHE123     -0.1241
     88  CA       -15.9980  -16.8380  -37.8970 C.3   123  PHE123      0.1605
     89  C        -17.3360  -17.5190  -38.1550 C.2   123  PHE123      0.2264
     90  O        -17.9670  -18.0080  -37.2180 O.2   123  PHE123     -0.2867
     91  CB       -14.8350  -17.7350  -38.3490 C.3   123  PHE123      0.0534
     92  CG       -14.7150  -19.0340  -37.5930 C.ar  123  PHE123     -0.0203
     93  CD1      -13.9690  -19.1070  -36.4030 C.ar  123  PHE123     -0.0042
     94  CD2      -15.3150  -20.2090  -38.0810 C.ar  123  PHE123     -0.0042
     95  CE1      -13.8420  -20.3130  -35.7170 C.ar  123  PHE123     -0.0003
     96  CE2      -15.1860  -21.4150  -37.3960 C.ar  123  PHE123     -0.0003
     97  CZ       -14.4460  -21.4650  -36.2170 C.ar  123  PHE123     -0.0000
     98  N        -15.5240  -22.4260  -42.6330 N.3   126  VAL126     -0.1245
     99  CA       -14.1520  -22.9120  -42.7710 C.3   126  VAL126      0.1561
    100  C        -13.8130  -23.0720  -44.2490 C.2   126  VAL126      0.2260
    101  O        -14.6420  -23.5200  -45.0340 O.2   126  VAL126     -0.2867
    102  CB       -13.9120  -24.2460  -41.9960 C.3   126  VAL126      0.0252
    103  CG1      -12.4670  -24.7190  -42.1430 C.3   126  VAL126      0.0019
    104  CG2      -14.2440  -24.0910  -40.5130 C.3   126  VAL126      0.0019
    105  N         -5.7810  -24.1610  -38.5260 N.3   222  GLY222     -0.1225
    106  CA        -7.1060  -24.0880  -37.9070 C.3   222  GLY222      0.1811
    107  C         -7.1530  -24.4910  -36.4380 C.2   222  GLY222      0.2280
    108  O         -8.1910  -24.3270  -35.7850 O.2   222  GLY222     -0.2866
    109  N        -11.0340  -27.9610  -19.8600 N.3   247  PHE247     -0.1241
    110  CA       -10.7200  -27.6690  -21.2590 C.3   247  PHE247      0.1605
    111  C         -9.2830  -27.2300  -21.5050 C.2   247  PHE247      0.2264
    112  O         -8.8320  -27.2050  -22.6480 O.2   247  PHE247     -0.2867
    113  CB       -11.6960  -26.6300  -21.8100 C.3   247  PHE247      0.0534
    114  CG       -13.1280  -27.0200  -21.6520 C.ar  247  PHE247     -0.0203
    115  CD1      -13.6630  -28.0840  -22.3890 C.ar  247  PHE247     -0.0042
    116  CD2      -13.9480  -26.3370  -20.7590 C.ar  247  PHE247     -0.0042
    117  CE1      -14.9910  -28.4510  -22.2440 C.ar  247  PHE247     -0.0003
    118  CE2      -15.2800  -26.7000  -20.6050 C.ar  247  PHE247     -0.0003
    119  CZ       -15.8010  -27.7560  -21.3520 C.ar  247  PHE247     -0.0000
@<TRIPOS>BOND
     1   101   100    2
     2   100    99    1
     3    20    19    2
     4    17    18    1
     5    19    18    1
     6    99    98    1
     7    99   102    1
     8    13    12    2
     9   103   102    1
    10    12    11    1
    11    18    21    1
    12   102   104    1
    13    36    35    1
    14    10    11    1
    15    21    22    1
    16    11    14    1
    17    22    24   ar
    18    22    23   ar
    19    35    34   ar
    20    35    33   ar
    21    34    32   ar
    22    14    15    1
    23    14    16    1
    24    33    31   ar
    25    32    30   ar
    26   105   106    1
    27    91    88    1
    28    91    92    1
    29    31    30   ar
    30    89    88    1
    31    89    90    2
    32    94    92   ar
    33    94    96   ar
    34   106   107    1
    35    88    87    1
    36    30    29    1
    37    92    93   ar
    38    96    97   ar
    39    25    26    1
    40   107   108    2
    41    93    95   ar
    42    29    26    1
    43    26    27    1
    44    97    95   ar
    45    71    73   ar
    46    71    69   ar
    47    73    72   ar
    48    69    68   ar
    49    47    46    2
    50     3     4    2
    51     3     2    1
    52    72    70   ar
    53    27    28    2
    54    68    70   ar
    55    68    67    1
    56    46    45    1
    57    86    83    1
    58     2     5    1
    59     2     1    1
    60    67    64    1
    61     5     6    1
    62    85    84    2
    63     8     7    2
    64    84    83    1
    65    83    82    1
    66     6     7    1
    67    66    65    2
    68    45    44    2
    69     7     9   am
    70    64    65    1
    71    64    63    1
    72    44    39    1
    73    42    41    1
    74    37    38    1
    75    82    76   am
    76    63    58   am
    77    61    62    1
    78    61    60    1
    79    39    38    1
    80    39    40    2
    81    62    56    1
    82    38    41    1
    83    41    43    1
    84    58    59    2
    85    58    57    1
    86    76    77    2
    87    76    75    1
    88    60    57    1
    89    56    57    1
    90    56    50   am
    91    74    75    1
    92    51    50    2
    93    75    78    1
    94    50    49    1
    95    48    49    1
    96    78    79    1
    97    49    52    1
    98    79    80    1
    99    79    81    1
   100    52    53    1
   101    53    55    1
   102    53    54    1
   103   112   111    2
   104   115   117   ar
   105   115   114   ar
   106   117   119   ar
   107   113   114    1
   108   113   110    1
   109   114   116   ar
   110   111   110    1
   111   119   118   ar
   112   110   109    1
   113   116   118   ar
