@<TRIPOS>MOLECULE
tmp/5t4uA00.pdb
 107 104 0 0 0
SMALL
GASTEIGER

@<TRIPOS>ATOM
      1  N          3.3820   19.7410   16.0050 N.3    25  ILE25      -0.1231
      2  CA         3.9980   18.4270   15.9290 C.3    25  ILE25       0.1692
      3  C          5.5260   18.5210   15.7580 C.2    25  ILE25       0.2592
      4  O          6.1960   17.5330   15.9720 O.2    25  ILE25      -0.2718
      5  CB         3.3960   17.4860   14.9040 C.3    25  ILE25       0.0266
      6  CG1        3.7470   17.9630   13.5330 C.3    25  ILE25       0.0019
      7  CG2        1.8760   17.3750   15.0760 C.3    25  ILE25       0.0020
      8  CD1        3.2490   17.0180   12.4670 C.3    25  ILE25       0.0001
      9  N          6.0420   19.7070   15.4570 N.am   26  PHE26      -0.1976
     10  CA         7.4980   19.8720   15.3100 C.3    26  PHE26       0.1639
     11  C          8.0630   20.7290   16.4300 C.2    26  PHE26       0.2290
     12  O          9.1790   21.2470   16.3290 O.2    26  PHE26      -0.2864
     13  CB         7.8140   20.5190   13.9690 C.3    26  PHE26       0.0560
     14  CG         7.2370   19.7650   12.7830 C.ar   26  PHE26      -0.0200
     15  CD1        7.6490   18.5030   12.4490 C.ar   26  PHE26      -0.0042
     16  CD2        6.2510   20.3550   12.0060 C.ar   26  PHE26      -0.0042
     17  CE1        7.0750   17.8240   11.3630 C.ar   26  PHE26      -0.0003
     18  CE2        5.6870   19.7070   10.9410 C.ar   26  PHE26      -0.0003
     19  CZ         6.1000   18.4460   10.6130 C.ar   26  PHE26      -0.0000
     20  N          8.9920   19.9730   19.5080 N.3    28  GLU28      -0.1245
     21  CA         9.9920   19.2660   20.3140 C.3    28  GLU28       0.1567
     22  C         10.5420   18.1000   19.5600 C.2    28  GLU28       0.2260
     23  O          9.9520   17.6380   18.5660 O.2    28  GLU28      -0.2867
     24  CB         9.3840   18.7890   21.6410 C.3    28  GLU28       0.0388
     25  CG         8.7010   19.8630   22.4670 C.3    28  GLU28       0.1160
     26  CD         8.1470   19.2810   23.7890 C.2    28  GLU28       0.3649
     27  OE1        8.8840   18.5410   24.4750 O.co2  28  GLU28      -0.2457
     28  OE2        6.9730   19.5230   24.1400 O.co2  28  GLU28      -0.2457
     29  N         11.3090   14.5610   18.0420 N.3    30  VAL30      -0.1231
     30  CA        10.4720   13.3900   17.8780 C.3    30  VAL30       0.1678
     31  C         10.7460   12.4570   19.0600 C.2    30  VAL30       0.2434
     32  O         11.9130   12.1850   19.3400 O.2    30  VAL30      -0.2733
     33  CB        10.7560   12.7110   16.5360 C.3    30  VAL30       0.0265
     34  CG1       10.1010   11.3540   16.4510 C.3    30  VAL30       0.0020
     35  CG2       10.3050   13.6230   15.3920 C.3    30  VAL30       0.0020
     36  N          9.6980   12.0100   19.7730 N.am   31  PRO31      -0.2729
     37  CA         9.9200   11.2860   21.0330 C.3    31  PRO31       0.1401
     38  C         10.4960    9.9320   20.7320 C.2    31  PRO31       0.2269
     39  O          9.7680    9.0340   20.2980 O.2    31  PRO31      -0.2865
     40  CB         8.5110   11.1680   21.6240 C.3    31  PRO31       0.0296
     41  CG         7.5970   11.2490   20.4360 C.3    31  PRO31       0.0237
     42  CD         8.2660   12.2720   19.5590 C.3    31  PRO31       0.0939
     43  N          8.8470    6.9700   21.8680 N.3    34  GLU34      -0.1231
     44  CA         7.5790    6.6220   21.2140 C.3    34  GLU34       0.1699
     45  C          7.7520    6.0750   19.8210 C.2    34  GLU34       0.2592
     46  O          6.8450    5.4440   19.2850 O.2    34  GLU34      -0.2718
     47  CB         6.6870    7.8490   21.0850 C.3    34  GLU34       0.0402
     48  CG         5.7900    8.1520   22.2610 C.3    34  GLU34       0.1161
     49  CD         4.8320    9.2910   21.9360 C.2    34  GLU34       0.3649
     50  OE1        4.2760    9.3190   20.8030 O.co2  34  GLU34      -0.2457
     51  OE2        4.6530   10.1670   22.8100 O.co2  34  GLU34      -0.2457
     52  N          8.8940    6.3400   19.2110 N.am   35  VAL35      -0.1980
     53  CA         9.1350    5.8990   17.8530 C.3    35  VAL35       0.1595
     54  C         10.5610    5.3290   17.8090 C.2    35  VAL35       0.2287
     55  O         11.4730    5.9210   17.2490 O.2    35  VAL35      -0.2864
     56  CB         8.8340    7.0580   16.8470 C.3    35  VAL35       0.0276
     57  CG1        9.7220    8.2600   17.0870 C.3    35  VAL35       0.0022
     58  CG2        8.9220    6.5700   15.4250 C.3    35  VAL35       0.0022
     59  N         13.0170    5.4330   14.7730 N.3    38  TYR38      -0.1241
     60  CA        13.1500    6.7090   14.0910 C.3    38  TYR38       0.1605
     61  C         14.5760    6.9570   13.6060 C.2    38  TYR38       0.2264
     62  O         14.7940    7.4340   12.4870 O.2    38  TYR38      -0.2867
     63  CB        12.6800    7.8350   15.0130 C.3    38  TYR38       0.0534
     64  CG        12.5690    9.1720   14.3070 C.ar   38  TYR38      -0.0201
     65  CD1       11.5060    9.4360   13.4250 C.ar   38  TYR38      -0.0009
     66  CD2       13.5160   10.1490   14.4840 C.ar   38  TYR38      -0.0009
     67  CE1       11.4240   10.6660   12.7660 C.ar   38  TYR38       0.0417
     68  CE2       13.4290   11.3680   13.8540 C.ar   38  TYR38       0.0417
     69  CZ        12.3850   11.6230   12.9920 C.ar   38  TYR38       0.1957
     70  OH        12.3680   12.8560   12.3690 O.3    38  TYR38      -0.2866
     71  N         10.5530   14.5190    8.2410 N.3    77  CYS77      -0.1235
     72  CA         9.1500   14.1140    8.3670 C.3    77  CYS77       0.1677
     73  C          8.5900   13.5000    7.0980 C.2    77  CYS77       0.2270
     74  O          7.8670   12.5260    7.1180 O.2    77  CYS77      -0.2867
     75  CB         8.3600   15.3340    8.7710 C.3    77  CYS77       0.0956
     76  SG         6.6280   14.9560    9.2060 S.3    77  CYS77      -0.0801
     77  N         10.3670    9.9920    6.9650 N.3    80  TYR80      -0.1227
     78  CA         9.9350    8.9900    7.9350 C.3    80  TYR80       0.1736
     79  C          8.5120    8.4760    7.7520 C.2    80  TYR80       0.2595
     80  O          8.2190    7.2770    7.9860 O.2    80  TYR80      -0.2718
     81  CB        10.0910    9.4920    9.3690 C.3    80  TYR80       0.0548
     82  CG         9.7620    8.4040   10.3620 C.ar   80  TYR80      -0.0200
     83  CD1       10.6210    7.3400   10.5430 C.ar   80  TYR80      -0.0009
     84  CD2        8.5520    8.3890   11.0270 C.ar   80  TYR80      -0.0009
     85  CE1       10.3030    6.3030   11.4100 C.ar   80  TYR80       0.0417
     86  CE2        8.2240    7.3560   11.8840 C.ar   80  TYR80       0.0417
     87  CZ         9.1130    6.3240   12.0710 C.ar   80  TYR80       0.1957
     88  OH         8.7310    5.3010   12.9320 O.3    80  TYR80      -0.2866
     89  N          7.6180    9.3700    7.3220 N.am   81  ASN81      -0.1974
     90  CA         6.1830    9.0690    7.3890 C.3    81  ASN81       0.1688
     91  C          5.6340    8.7560    6.0250 C.2    81  ASN81       0.2292
     92  O          6.0490    9.3420    5.0040 O.2    81  ASN81      -0.2864
     93  CB         5.4400   10.2700    7.9830 C.3    81  ASN81       0.1181
     94  CG         5.8760   10.5770    9.4270 C.2    81  ASN81       0.2629
     95  OD1        5.4500    9.8770   10.3780 O.2    81  ASN81      -0.2716
     96  ND2        6.6860   11.6010    9.6180 N.am   81  ASN81      -0.0877
     97  N          1.0060   13.5050    9.4400 N.3    87  PHE87      -0.1241
     98  CA         2.3800   13.9760    9.6550 C.3    87  PHE87       0.1605
     99  C          3.0990   14.3780    8.3340 C.2    87  PHE87       0.2264
    100  O          3.6560   15.4580    8.2210 O.2    87  PHE87      -0.2867
    101  CB         3.2090   12.9210   10.3620 C.3    87  PHE87       0.0534
    102  CG         2.9140   12.8120   11.8360 C.ar   87  PHE87      -0.0203
    103  CD1        2.0210   13.6880   12.4680 C.ar   87  PHE87      -0.0042
    104  CD2        3.5390   11.8440   12.5640 C.ar   87  PHE87      -0.0042
    105  CE1        1.7840   13.5680   13.8260 C.ar   87  PHE87      -0.0003
    106  CE2        3.2740   11.6990   13.9310 C.ar   87  PHE87      -0.0003
    107  CZ         2.4400   12.5930   14.5520 C.ar   87  PHE87      -0.0000
@<TRIPOS>BOND
     1    92    91    2
     2    91    90    1
     3    77    78    1
     4    73    74    2
     5    73    72    1
     6    89    90    1
     7    89    79   am
     8    90    93    1
     9    79    78    1
    10    79    80    2
    11    78    81    1
    12    93    94    1
    13   100    99    2
    14    71    72    1
    15    99    98    1
    16    72    75    1
    17    75    76    1
    18    81    82    1
    19    94    96   am
    20    94    95    2
    21    97    98    1
    22    98   101    1
    23    82    83   ar
    24    82    84   ar
    25   101   102    1
    26    83    85   ar
    27    19    18   ar
    28    19    17   ar
    29    18    16   ar
    30    84    86   ar
    31    17    15   ar
    32    85    87   ar
    33   102   103   ar
    34   102   104   ar
    35    86    87   ar
    36    16    14   ar
    37    87    88    1
    38    70    69    1
    39    15    14   ar
    40     8     6    1
    41   103   105   ar
    42    62    61    2
    43   104   106   ar
    44    67    69   ar
    45    67    65   ar
    46    14    13    1
    47    69    68   ar
    48    65    64   ar
    49     6     5    1
    50    61    60    1
    51   105   107   ar
    52    68    66   ar
    53   106   107   ar
    54    13    10    1
    55    60    59    1
    56    60    63    1
    57    64    66   ar
    58    64    63    1
    59     5     7    1
    60     5     2    1
    61    10     9    1
    62    10    11    1
    63    35    33    1
    64    58    56    1
    65     9     3   am
    66     3     2    1
    67     3     4    2
    68     2     1    1
    69    12    11    2
    70    34    33    1
    71    33    30    1
    72    56    57    1
    73    56    53    1
    74    55    54    2
    75    54    53    1
    76    53    52    1
    77    30    29    1
    78    30    31    1
    79    23    22    2
    80    31    32    2
    81    31    36   am
    82    52    45   am
    83    46    45    2
    84    20    21    1
    85    42    36    1
    86    42    41    1
    87    22    21    1
    88    36    37    1
    89    45    44    1
    90    39    38    2
    91    21    24    1
    92    41    40    1
    93    38    37    1
    94    50    49   ar
    95    37    40    1
    96    47    44    1
    97    47    48    1
    98    44    43    1
    99    24    25    1
   100    49    48    1
   101    49    51   ar
   102    25    26    1
   103    26    28   ar
   104    26    27   ar
