@<TRIPOS>MOLECULE
tmp/5t4vA00.pdb
 130 129 0 0 0
SMALL
GASTEIGER

@<TRIPOS>ATOM
      1  N        -10.6980  -10.0060  -14.0950 N.3    24  ASN24      -0.1225
      2  CA       -10.0060   -9.6630  -12.8540 C.3    24  ASN24       0.1785
      3  C         -8.8130  -10.5680  -12.5380 C.2    24  ASN24       0.2597
      4  O         -8.4090  -10.7390  -11.3830 O.2    24  ASN24      -0.2718
      5  CB       -10.9940   -9.6030  -11.6630 C.3    24  ASN24       0.1169
      6  CG       -11.9190   -8.4090  -11.7500 C.2    24  ASN24       0.2627
      7  OD1      -11.6160   -7.4090  -12.4060 O.2    24  ASN24      -0.2716
      8  ND2      -13.0600   -8.4990  -11.0750 N.am   24  ASN24      -0.0877
      9  N         -8.1940  -11.0770  -13.5810 N.am   25  ILE25      -0.1966
     10  CA        -7.0160  -11.9340  -13.4740 C.3    25  ILE25       0.1727
     11  C         -5.8100  -11.2010  -12.8590 C.2    25  ILE25       0.2616
     12  O         -4.9950  -11.8160  -12.1450 O.2    25  ILE25      -0.2715
     13  CB        -6.6910  -12.5330  -14.8940 C.3    25  ILE25       0.0290
     14  CG1       -7.8030  -13.4960  -15.2890 C.3    25  ILE25       0.0022
     15  CG2       -5.3750  -13.2580  -14.9180 C.3    25  ILE25       0.0023
     16  CD1       -7.8750  -13.9360  -16.7290 C.3    25  ILE25       0.0001
     17  N         -5.7150   -9.8850  -13.0670 N.am   26  PHE26      -0.1974
     18  CA        -4.5430   -9.1270  -12.7070 C.3    26  PHE26       0.1639
     19  C         -4.8430   -8.1280  -11.5790 C.2    26  PHE26       0.2290
     20  O         -4.0070   -7.2970  -11.3060 O.2    26  PHE26      -0.2864
     21  CB        -3.9900   -8.4170  -13.9450 C.3    26  PHE26       0.0560
     22  CG        -3.6810   -9.3630  -15.0780 C.ar   26  PHE26      -0.0200
     23  CD1       -2.6060  -10.2480  -15.0060 C.ar   26  PHE26      -0.0042
     24  CD2       -4.5190   -9.4180  -16.1840 C.ar   26  PHE26      -0.0042
     25  CE1       -2.3370  -11.1390  -16.0250 C.ar   26  PHE26      -0.0003
     26  CE2       -4.2630  -10.3340  -17.1710 C.ar   26  PHE26      -0.0003
     27  CZ        -3.1860  -11.2070  -17.1040 C.ar   26  PHE26      -0.0000
     28  N         -5.1450   -8.6450   -8.3770 N.3    28  GLU28      -0.1231
     29  CA        -4.4570   -8.9180   -7.1270 C.3    28  GLU28       0.1684
     30  C         -3.2090   -9.7090   -7.4080 C.2    28  GLU28       0.2434
     31  O         -3.1170  -10.4000   -8.4570 O.2    28  GLU28      -0.2733
     32  CB        -5.3660   -9.7370   -6.2100 C.3    28  GLU28       0.0402
     33  CG        -6.6150   -9.0050   -5.7540 C.3    28  GLU28       0.1161
     34  CD        -7.3680   -9.8180   -4.7010 C.2    28  GLU28       0.3649
     35  OE1       -7.6180  -11.0250   -4.9660 O.co2  28  GLU28      -0.2457
     36  OE2       -7.6970   -9.2630   -3.6180 O.co2  28  GLU28      -0.2457
     37  N         -2.2590   -9.6940   -6.4520 N.am   29  PRO29      -0.2718
     38  CA        -1.0560  -10.4520   -6.6450 C.3    29  PRO29       0.1535
     39  C         -1.2680  -11.9360   -6.9360 C.2    29  PRO29       0.2598
     40  O         -2.1840  -12.5850   -6.4160 O.2    29  PRO29      -0.2715
     41  CB        -0.3100  -10.2720   -5.2840 C.3    29  PRO29       0.0310
     42  CG        -0.8430   -8.9930   -4.7580 C.3    29  PRO29       0.0237
     43  CD        -2.2810   -9.0220   -5.1310 C.3    29  PRO29       0.0939
     44  N         -0.4070  -12.4990   -7.7950 N.am   30  VAL30      -0.1964
     45  CA        -0.4500  -13.9340   -8.0240 C.3    30  VAL30       0.1712
     46  C         -0.2190  -14.6370   -6.6860 C.2    30  VAL30       0.2458
     47  O          0.7270  -14.3010   -5.9940 O.2    30  VAL30      -0.2730
     48  CB         0.6060  -14.3490   -9.0270 C.3    30  VAL30       0.0289
     49  CG1        0.7000  -15.8560   -9.1260 C.3    30  VAL30       0.0023
     50  CG2        0.2470  -13.7390  -10.3740 C.3    30  VAL30       0.0023
     51  N         -1.0920  -15.5850   -6.3470 N.am   31  PRO31      -0.2727
     52  CA        -1.0060  -16.1480   -4.9890 C.3    31  PRO31       0.1402
     53  C          0.0010  -17.2740   -4.8760 C.2    31  PRO31       0.2269
     54  O         -0.0930  -18.2830   -5.5760 O.2    31  PRO31      -0.2865
     55  CB        -2.4040  -16.6560   -4.7640 C.3    31  PRO31       0.0296
     56  CG        -2.8630  -17.0580   -6.1240 C.3    31  PRO31       0.0237
     57  CD        -2.3320  -15.9740   -7.0050 C.3    31  PRO31       0.0939
     58  N         -1.2870  -20.9100   -4.2430 N.3    34  GLU34      -0.1231
     59  CA        -1.7080  -21.6290   -5.4420 C.3    34  GLU34       0.1699
     60  C         -0.5670  -21.8010   -6.4450 C.2    34  GLU34       0.2592
     61  O         -0.5990  -22.7370   -7.2380 O.2    34  GLU34      -0.2718
     62  CB        -2.8970  -20.9280   -6.1170 C.3    34  GLU34       0.0402
     63  CG        -4.1360  -20.8110   -5.2490 C.3    34  GLU34       0.1161
     64  CD        -4.7560  -22.1610   -4.9360 C.2    34  GLU34       0.3649
     65  OE1       -5.2350  -22.8490   -5.8610 O.co2  34  GLU34      -0.2457
     66  OE2       -4.7530  -22.5360   -3.7520 O.co2  34  GLU34      -0.2457
     67  N          0.4390  -20.9220   -6.3760 N.am   35  VAL35      -0.1980
     68  CA         1.5440  -20.8760   -7.3580 C.3    35  VAL35       0.1595
     69  C          2.9210  -20.8120   -6.6900 C.2    35  VAL35       0.2287
     70  O          3.6000  -19.7850   -6.7060 O.2    35  VAL35      -0.2864
     71  CB         1.3580  -19.6690   -8.3240 C.3    35  VAL35       0.0276
     72  CG1        2.2830  -19.7980   -9.5210 C.3    35  VAL35       0.0022
     73  CG2       -0.1010  -19.5430   -8.7430 C.3    35  VAL35       0.0022
     74  N          6.4530  -19.2640   -8.3830 N.3    38  TYR38      -0.1241
     75  CA         6.2980  -18.0470   -9.2010 C.3    38  TYR38       0.1605
     76  C          7.5380  -17.1820   -9.1060 C.2    38  TYR38       0.2264
     77  O          8.0060  -16.6420  -10.0920 O.2    38  TYR38      -0.2867
     78  CB         5.0440  -17.2800   -8.7510 C.3    38  TYR38       0.0534
     79  CG         4.6810  -16.1480   -9.6860 C.ar   38  TYR38      -0.0201
     80  CD1        4.1340  -16.4080  -10.9430 C.ar   38  TYR38      -0.0009
     81  CD2        4.8940  -14.8200   -9.3200 C.ar   38  TYR38      -0.0009
     82  CE1        3.7990  -15.3490  -11.7880 C.ar   38  TYR38       0.0417
     83  CE2        4.5510  -13.7570  -10.1680 C.ar   38  TYR38       0.0417
     84  CZ         4.0170  -14.0510  -11.4180 C.ar   38  TYR38       0.1957
     85  OH         3.6650  -12.9970  -12.2760 O.3    38  TYR38      -0.2866
     86  N          3.2880  -12.2630  -16.9930 N.3    77  CYS77      -0.1235
     87  CA         2.2930  -13.2570  -17.2600 C.3    77  CYS77       0.1677
     88  C          2.6800  -14.0320  -18.5100 C.2    77  CYS77       0.2270
     89  O          2.6740  -15.2570  -18.5280 O.2    77  CYS77      -0.2867
     90  CB         0.9310  -12.5950  -17.3880 C.3    77  CYS77       0.0956
     91  SG        -0.3930  -13.7420  -17.6230 S.3    77  CYS77      -0.0801
     92  N          5.7770  -16.2860  -17.4850 N.3    80  TYR80      -0.1227
     93  CA         5.4660  -17.4390  -16.5960 C.3    80  TYR80       0.1736
     94  C          4.6320  -18.5350  -17.2240 C.2    80  TYR80       0.2595
     95  O          4.9430  -19.7600  -17.0670 O.2    80  TYR80      -0.2718
     96  CB         4.8300  -16.9300  -15.2900 C.3    80  TYR80       0.0548
     97  CG         4.5930  -18.0710  -14.3380 C.ar   80  TYR80      -0.0200
     98  CD1        5.6630  -18.6170  -13.6230 C.ar   80  TYR80      -0.0009
     99  CD2        3.3540  -18.6450  -14.2340 C.ar   80  TYR80      -0.0009
    100  CE1        5.4730  -19.6870  -12.7770 C.ar   80  TYR80       0.0417
    101  CE2        3.1570  -19.7510  -13.4030 C.ar   80  TYR80       0.0417
    102  CZ         4.2300  -20.2410  -12.6780 C.ar   80  TYR80       0.1957
    103  OH         4.0370  -21.3220  -11.8520 O.3    80  TYR80      -0.2866
    104  N          3.5970  -18.1380  -17.9520 N.am   81  ASN81      -0.1974
    105  CA         2.5870  -19.0720  -18.4300 C.3    81  ASN81       0.1688
    106  C          2.7970  -19.6500  -19.8000 C.2    81  ASN81       0.2292
    107  O          3.2350  -18.9370  -20.6980 O.2    81  ASN81      -0.2864
    108  CB         1.2050  -18.4380  -18.4030 C.3    81  ASN81       0.1181
    109  CG         0.8040  -18.0410  -17.0070 C.2    81  ASN81       0.2629
    110  OD1        0.3920  -18.9100  -16.2230 O.2    81  ASN81      -0.2716
    111  ND2        0.9410  -16.7440  -16.6690 N.am   81  ASN81      -0.0877
    112  N         -5.3750  -19.7090  -20.1200 N.3    86  ILE86      -0.1231
    113  CA        -6.2200  -18.5410  -19.9630 C.3    86  ILE86       0.1692
    114  C         -5.3900  -17.2920  -19.6230 C.2    86  ILE86       0.2592
    115  O         -5.7100  -16.1860  -20.0630 O.2    86  ILE86      -0.2718
    116  CB        -7.3260  -18.7840  -18.9050 C.3    86  ILE86       0.0266
    117  CG1       -8.4410  -17.7600  -19.0340 C.3    86  ILE86       0.0019
    118  CG2       -6.7590  -18.8500  -17.4760 C.3    86  ILE86       0.0020
    119  CD1       -9.6760  -18.1800  -18.2680 C.3    86  ILE86       0.0001
    120  N         -4.3730  -17.4680  -18.7900 N.am   87  PHE87      -0.1976
    121  CA        -3.5840  -16.3670  -18.2510 C.3    87  PHE87       0.1639
    122  C         -2.8360  -15.7100  -19.4100 C.2    87  PHE87       0.2290
    123  O         -2.9200  -14.4820  -19.5780 O.2    87  PHE87      -0.2864
    124  CB        -2.6390  -16.8320  -17.1810 C.3    87  PHE87       0.0560
    125  CG        -3.3470  -17.4800  -16.0010 C.ar   87  PHE87      -0.0200
    126  CD1       -4.1150  -16.6870  -15.1530 C.ar   87  PHE87      -0.0042
    127  CD2       -3.2410  -18.8270  -15.7930 C.ar   87  PHE87      -0.0042
    128  CE1       -4.7700  -17.2540  -14.0670 C.ar   87  PHE87      -0.0003
    129  CE2       -3.9110  -19.3990  -14.6930 C.ar   87  PHE87      -0.0003
    130  CZ        -4.6670  -18.5890  -13.8820 C.ar   87  PHE87      -0.0000
@<TRIPOS>BOND
     1   107   106    2
     2   112   113    1
     3   115   114    2
     4   113   114    1
     5   113   116    1
     6   106   105    1
     7   114   120   am
     8   123   122    2
     9   122   121    1
    10   117   116    1
    11   117   119    1
    12   116   118    1
    13   120   121    1
    14    89    88    2
    15    88    87    1
    16   105   108    1
    17   105   104    1
    18   108   109    1
    19   121   124    1
    20   104    94   am
    21    91    90    1
    22    92    93    1
    23    90    87    1
    24    87    86    1
    25    94    95    2
    26    94    93    1
    27   124   125    1
    28    26    27   ar
    29    26    24   ar
    30    27    25   ar
    31   109   111   am
    32   109   110    2
    33    16    14    1
    34    93    96    1
    35    24    22   ar
    36    25    23   ar
    37   125   127   ar
    38   125   126   ar
    39   127   129   ar
    40    96    97    1
    41    14    13    1
    42   126   128   ar
    43    22    23   ar
    44    22    21    1
    45    15    13    1
    46    13    10    1
    47   129   130   ar
    48    97    99   ar
    49    97    98   ar
    50    99   101   ar
    51     1     2    1
    52   128   130   ar
    53    21    18    1
    54    98   100   ar
    55     9    10    1
    56     9     3   am
    57    10    11    1
    58   101   102   ar
    59    17    11   am
    60    17    18    1
    61    11    12    2
    62     2     3    1
    63     2     5    1
    64   100   102   ar
    65    18    19    1
    66   102   103    1
    67     3     4    2
    68     7     6    2
    69    85    84    1
    70    82    84   ar
    71    82    80   ar
    72     6     5    1
    73     6     8   am
    74    19    20    2
    75    84    83   ar
    76    80    79   ar
    77    50    48    1
    78    83    81   ar
    79    77    76    2
    80    79    81   ar
    81    79    78    1
    82    72    71    1
    83    75    76    1
    84    75    78    1
    85    75    74    1
    86    49    48    1
    87    48    45    1
    88    73    71    1
    89    31    30    2
    90    28    29    1
    91    71    68    1
    92    45    44    1
    93    45    46    1
    94    44    39   am
    95    30    29    1
    96    30    37   am
    97    68    69    1
    98    68    67    1
    99    61    60    2
   100    29    32    1
   101    57    51    1
   102    57    56    1
   103    39    38    1
   104    39    40    2
   105    70    69    2
   106    46    51   am
   107    46    47    2
   108    38    37    1
   109    38    41    1
   110    37    43    1
   111    60    67   am
   112    60    59    1
   113    51    52    1
   114    32    33    1
   115    56    55    1
   116    62    59    1
   117    62    63    1
   118    65    64   ar
   119    33    34    1
   120    54    53    2
   121    59    58    1
   122    41    42    1
   123    63    64    1
   124    43    42    1
   125    52    53    1
   126    52    55    1
   127    35    34   ar
   128    64    66   ar
   129    34    36   ar
