@<TRIPOS>MOLECULE
tmp/5t4zA01.pdb
 87 87 0 0 0
SMALL
GASTEIGER

@<TRIPOS>ATOM
      1  N         50.4870   -9.7300    4.4870 N.3    54  TYR54      -0.1241
      2  CA        50.5920   -8.4970    3.7140 C.3    54  TYR54       0.1605
      3  C         49.7410   -8.5370    2.4690 C.2    54  TYR54       0.2264
      4  O         49.3040   -9.6000    2.0390 O.2    54  TYR54      -0.2867
      5  CB        52.0610   -8.2270    3.3670 C.3    54  TYR54       0.0534
      6  CG        52.7960   -7.7570    4.5880 C.ar   54  TYR54      -0.0201
      7  CD1       53.0110   -8.6320    5.6550 C.ar   54  TYR54      -0.0009
      8  CD2       53.2130   -6.4320    4.7270 C.ar   54  TYR54      -0.0009
      9  CE1       53.6300   -8.2250    6.8130 C.ar   54  TYR54       0.0417
     10  CE2       53.8530   -6.0040    5.9320 C.ar   54  TYR54       0.0417
     11  CZ        54.0550   -6.9200    6.9570 C.ar   54  TYR54       0.1957
     12  OH        54.6820   -6.5690    8.1430 O.3    54  TYR54      -0.2866
     13  N         52.9860  -11.6670    1.3390 N.3    58  VAL58      -0.1245
     14  CA        54.1750  -11.8470    2.1550 C.3    58  VAL58       0.1561
     15  C         53.6790  -12.1240    3.5850 C.2    58  VAL58       0.2260
     16  O         52.6280  -11.6410    3.9730 O.2    58  VAL58      -0.2867
     17  CB        55.0890  -10.6210    2.0940 C.3    58  VAL58       0.0252
     18  CG1       56.1780  -10.6880    3.1730 C.3    58  VAL58       0.0019
     19  CG2       55.6960  -10.4910    0.6890 C.3    58  VAL58       0.0019
     20  N         54.9930  -12.3120    7.7990 N.3    60  HIS60      -0.1241
     21  CA        56.0380  -12.1840    8.8090 C.3    60  HIS60       0.1621
     22  C         55.5670  -12.8550   10.0890 C.2    60  HIS60       0.2264
     23  O         54.7470  -12.2990   10.8220 O.2    60  HIS60      -0.2867
     24  CB        56.3920  -10.7200    9.0830 C.3    60  HIS60       0.0745
     25  CG        57.1600  -10.0740    7.9740 C.ar   60  HIS60       0.0817
     26  ND1       57.0120   -8.7470    7.6390 N.ar   60  HIS60      -0.2268
     27  CD2       58.0600  -10.5840    7.1000 C.ar   60  HIS60       0.1154
     28  CE1       57.7950   -8.4620    6.6120 C.ar   60  HIS60       0.1986
     29  NE2       58.4400   -9.5610    6.2650 N.ar   60  HIS60      -0.2212
     30  N         53.0140    0.5880    6.4390 N.3   102  PHE102     -0.1241
     31  CA        54.4480    0.7320    6.2830 C.3   102  PHE102      0.1605
     32  C         54.7350    1.5430    5.0210 C.2   102  PHE102      0.2264
     33  O         53.8320    1.7560    4.2130 O.2   102  PHE102     -0.2867
     34  CB        55.1130   -0.6390    6.2000 C.3   102  PHE102      0.0534
     35  CG        54.6590   -1.4430    5.0260 C.ar  102  PHE102     -0.0203
     36  CD1       53.4910   -2.1900    5.0900 C.ar  102  PHE102     -0.0042
     37  CD2       55.3850   -1.4410    3.8490 C.ar  102  PHE102     -0.0042
     38  CE1       53.0640   -2.9240    3.9930 C.ar  102  PHE102     -0.0003
     39  CE2       54.9730   -2.1700    2.7550 C.ar  102  PHE102     -0.0003
     40  CZ        53.8080   -2.9090    2.8220 C.ar  102  PHE102     -0.0000
     41  N         58.6030   -0.0680   -0.2150 N.3   105  GLY105     -0.1210
     42  CA        60.0080   -0.0580   -0.5860 C.3   105  GLY105      0.1956
     43  C         60.9440    0.1730    0.5910 C.2   105  GLY105      0.2612
     44  O         62.1550   -0.0600    0.4920 O.2   105  GLY105     -0.2717
     45  N         60.3780    0.6180    1.7100 N.am  106  GLY106     -0.1942
     46  CA        61.1640    0.9430    2.8850 C.3   106  GLY106      0.2014
     47  C         61.6730   -0.2590    3.6560 C.2   106  GLY106      0.2639
     48  O         61.4220   -1.4090    3.2990 O.2   106  GLY106     -0.2714
     49  N         62.3730    0.0310    4.7470 N.am  107  TYR107     -0.1959
     50  CA        63.0870   -0.9690    5.5270 C.3   107  TYR107      0.1771
     51  C         62.4650   -1.1520    6.9170 C.2   107  TYR107      0.2620
     52  O         62.8750   -0.4900    7.8650 O.2   107  TYR107     -0.2715
     53  CB        64.5610   -0.5470    5.6340 C.3   107  TYR107      0.0574
     54  CG        65.5170   -1.5500    6.2570 C.ar  107  TYR107     -0.0198
     55  CD1       66.0310   -2.6090    5.5170 C.ar  107  TYR107     -0.0009
     56  CD2       65.9500   -1.4020    7.5710 C.ar  107  TYR107     -0.0009
     57  CE1       66.9140   -3.5150    6.0840 C.ar  107  TYR107      0.0417
     58  CE2       66.8370   -2.2990    8.1430 C.ar  107  TYR107      0.0417
     59  CZ        67.3150   -3.3540    7.3960 C.ar  107  TYR107      0.1957
     60  OH        68.1950   -4.2500    7.9660 O.3   107  TYR107     -0.2866
     61  N         61.4890   -2.0610    7.0170 N.am  108  TYR108     -0.1960
     62  CA        60.8300   -2.4300    8.2760 C.3   108  TYR108      0.1771
     63  C         60.2870   -1.2200    9.0510 C.2   108  TYR108      0.2620
     64  O         60.4610   -1.1180   10.2620 O.2   108  TYR108     -0.2715
     65  CB        61.7970   -3.2330    9.1570 C.3   108  TYR108      0.0574
     66  CG        62.2120   -4.5130    8.4700 C.ar  108  TYR108     -0.0198
     67  CD1       61.4320   -5.6600    8.5770 C.ar  108  TYR108     -0.0009
     68  CD2       63.3470   -4.5620    7.6700 C.ar  108  TYR108     -0.0009
     69  CE1       61.7800   -6.8250    7.9430 C.ar  108  TYR108      0.0417
     70  CE2       63.7130   -5.7380    7.0130 C.ar  108  TYR108      0.0417
     71  CZ        62.9220   -6.8620    7.1560 C.ar  108  TYR108      0.1957
     72  OH        63.2680   -8.0280    6.5230 O.3   108  TYR108     -0.2866
     73  N         59.6290   -0.3180    8.3340 N.am  109  THR109     -0.1937
     74  CA        59.0310    0.8720    8.9250 C.3   109  THR109      0.2028
     75  C         57.6730    0.5770    9.5650 C.2   109  THR109      0.2642
     76  O         57.0390    1.4880   10.1050 O.2   109  THR109     -0.2714
     77  CB        58.8490    1.9840    7.8720 C.3   109  THR109      0.1808
     78  OG1       57.9410    1.5380    6.8600 O.3   109  THR109     -0.2208
     79  CG2       60.2010    2.3290    7.2050 C.3   109  THR109      0.0379
     80  N         57.2570   -0.6910    9.5330 N.am  110  ASP110     -0.1971
     81  CA        55.8740   -1.0450    9.8380 C.3   110  ASP110      0.1709
     82  C         55.4530   -0.6000   11.2290 C.2   110  ASP110      0.2293
     83  O         56.2160   -0.7270   12.1780 O.2   110  ASP110     -0.2864
     84  CB        55.6000   -2.5430    9.7390 C.3   110  ASP110      0.1436
     85  CG        56.4060   -3.2590    8.6520 C.2   110  ASP110      0.3671
     86  OD1       57.5180   -2.8360    8.2510 O.co2 110  ASP110     -0.2456
     87  OD2       55.7920   -4.1680    8.0880 O.co2 110  ASP110     -0.2456
@<TRIPOS>BOND
     1    42    41    1
     2    42    43    1
     3    44    43    2
     4    43    45   am
     5    19    17    1
     6    13    14    1
     7    45    46    1
     8     4     3    2
     9    17    14    1
    10    17    18    1
    11    14    15    1
    12     3     2    1
    13    39    40   ar
    14    39    37   ar
    15    40    38   ar
    16    46    47    1
    17    48    47    2
    18     5     2    1
    19     5     6    1
    20    15    16    2
    21    47    49   am
    22     2     1    1
    23    37    35   ar
    24    38    36   ar
    25    33    32    2
    26     6     8   ar
    27     6     7   ar
    28     8    10   ar
    29    49    50    1
    30    32    31    1
    31    35    36   ar
    32    35    34    1
    33    55    57   ar
    34    55    54   ar
    35    50    53    1
    36    50    51    1
    37    53    54    1
    38     7     9   ar
    39    10    11   ar
    40    57    59   ar
    41    34    31    1
    42    54    56   ar
    43    29    28   ar
    44    29    27   ar
    45    31    30    1
    46    72    71    1
    47    28    26   ar
    48     9    11   ar
    49    78    77    1
    50    51    61   am
    51    51    52    2
    52    11    12    1
    53    70    71   ar
    54    70    68   ar
    55    61    62    1
    56    27    25   ar
    57    71    69   ar
    58    79    77    1
    59    59    60    1
    60    59    58   ar
    61    56    58   ar
    62    26    25   ar
    63    68    66   ar
    64    20    21    1
    65    77    74    1
    66    69    67   ar
    67    25    24    1
    68    87    85   ar
    69    86    85   ar
    70    62    63    1
    71    62    65    1
    72    73    74    1
    73    73    63   am
    74    66    67   ar
    75    66    65    1
    76    85    84    1
    77    21    24    1
    78    21    22    1
    79    74    75    1
    80    63    64    2
    81    80    75   am
    82    80    81    1
    83    75    76    2
    84    84    81    1
    85    81    82    1
    86    22    23    2
    87    82    83    2
