@<TRIPOS>MOLECULE
tmp/5t4zA00.pdb
 89 89 0 0 0
SMALL
GASTEIGER

@<TRIPOS>ATOM
      1  N         48.6610   -1.3150   -1.1030 N.3    32  SER32      -0.1217
      2  CA        50.0540   -1.7710   -1.1760 C.3    32  SER32       0.1889
      3  C         50.9280   -1.2670   -0.0290 C.2    32  SER32       0.2288
      4  O         52.1540   -1.3630   -0.0840 O.2    32  SER32      -0.2866
      5  CB        50.6800   -1.3540   -2.5120 C.3    32  SER32       0.2089
      6  OG        51.1020   -0.0020   -2.4820 O.3    32  SER32      -0.2183
      7  N         50.4870   -9.7300    4.4870 N.3    54  TYR54      -0.1227
      8  CA        50.5920   -8.4970    3.7140 C.3    54  TYR54       0.1736
      9  C         49.7410   -8.5370    2.4690 C.2    54  TYR54       0.2595
     10  O         49.3040   -9.6000    2.0390 O.2    54  TYR54      -0.2718
     11  CB        52.0610   -8.2270    3.3670 C.3    54  TYR54       0.0548
     12  CG        52.7960   -7.7570    4.5880 C.ar   54  TYR54      -0.0200
     13  CD1       53.0110   -8.6320    5.6550 C.ar   54  TYR54      -0.0009
     14  CD2       53.2130   -6.4320    4.7270 C.ar   54  TYR54      -0.0009
     15  CE1       53.6300   -8.2250    6.8130 C.ar   54  TYR54       0.0417
     16  CE2       53.8530   -6.0040    5.9320 C.ar   54  TYR54       0.0417
     17  CZ        54.0550   -6.9200    6.9570 C.ar   54  TYR54       0.1957
     18  OH        54.6820   -6.5690    8.1430 O.3    54  TYR54      -0.2866
     19  N         49.5070   -7.3530    1.9100 N.am   55  TRP55      -0.1962
     20  CA        48.6600   -7.1730    0.7430 C.3    55  TRP55       0.1771
     21  C         49.0230   -8.1190   -0.4070 C.2    55  TRP55       0.2619
     22  O         48.1380   -8.5510   -1.1470 O.2    55  TRP55      -0.2715
     23  CB        48.7450   -5.7050    0.2650 C.3    55  TRP55       0.0590
     24  CG        50.1030   -5.3550   -0.3160 C.ar   55  TRP55       0.0006
     25  CD1       51.2690   -5.1510    0.3750 C.ar   55  TRP55       0.0946
     26  CD2       50.4290   -5.1770   -1.7020 C.ar   55  TRP55       0.0152
     27  NE1       52.2970   -4.8590   -0.4930 N.ar   55  TRP55      -0.2442
     28  CE2       51.8070   -4.8660   -1.7730 C.ar   55  TRP55       0.0810
     29  CE3       49.6890   -5.2370   -2.8870 C.ar   55  TRP55       0.0012
     30  CZ2       52.4550   -4.6300   -2.9790 C.ar   55  TRP55       0.0191
     31  CZ3       50.3370   -5.0030   -4.0870 C.ar   55  TRP55       0.0001
     32  CH2       51.7070   -4.7040   -4.1250 C.ar   55  TRP55       0.0015
     33  N         50.3150   -8.4400   -0.5450 N.am   56  ASP56      -0.1971
     34  CA        50.8050   -9.3120   -1.6260 C.3    56  ASP56       0.1709
     35  C         51.1510  -10.6950   -1.1060 C.2    56  ASP56       0.2293
     36  O         51.8860  -11.4400   -1.7510 O.2    56  ASP56      -0.2864
     37  CB        52.0300   -8.6990   -2.3290 C.3    56  ASP56       0.1436
     38  CG        53.1100   -8.2230   -1.3420 C.2    56  ASP56       0.3671
     39  OD1       53.0310   -8.5550   -0.1410 O.co2  56  ASP56      -0.2456
     40  OD2       54.0630   -7.5370   -1.7770 O.co2  56  ASP56      -0.2456
     41  N         52.9860  -11.6670    1.3390 N.3    58  VAL58      -0.1245
     42  CA        54.1750  -11.8470    2.1550 C.3    58  VAL58       0.1561
     43  C         53.6790  -12.1240    3.5850 C.2    58  VAL58       0.2260
     44  O         52.6280  -11.6410    3.9730 O.2    58  VAL58      -0.2867
     45  CB        55.0890  -10.6210    2.0940 C.3    58  VAL58       0.0252
     46  CG1       56.1780  -10.6880    3.1730 C.3    58  VAL58       0.0019
     47  CG2       55.6960  -10.4910    0.6890 C.3    58  VAL58       0.0019
     48  N         54.9930  -12.3120    7.7990 N.3    60  HIS60      -0.1241
     49  CA        56.0380  -12.1840    8.8090 C.3    60  HIS60       0.1621
     50  C         55.5670  -12.8550   10.0890 C.2    60  HIS60       0.2264
     51  O         54.7470  -12.2990   10.8220 O.2    60  HIS60      -0.2867
     52  CB        56.3920  -10.7200    9.0830 C.3    60  HIS60       0.0745
     53  CG        57.1600  -10.0740    7.9740 C.ar   60  HIS60       0.0817
     54  ND1       57.0120   -8.7470    7.6390 N.ar   60  HIS60      -0.2268
     55  CD2       58.0600  -10.5840    7.1000 C.ar   60  HIS60       0.1154
     56  CE1       57.7950   -8.4620    6.6120 C.ar   60  HIS60       0.1986
     57  NE2       58.4400   -9.5610    6.2650 N.ar   60  HIS60      -0.2212
     58  N         53.0140    0.5880    6.4390 N.3   102  PHE102     -0.1227
     59  CA        54.4480    0.7320    6.2830 C.3   102  PHE102      0.1736
     60  C         54.7350    1.5430    5.0210 C.2   102  PHE102      0.2595
     61  O         53.8320    1.7560    4.2130 O.2   102  PHE102     -0.2718
     62  CB        55.1130   -0.6390    6.2000 C.3   102  PHE102      0.0547
     63  CG        54.6590   -1.4430    5.0260 C.ar  102  PHE102     -0.0202
     64  CD1       53.4910   -2.1900    5.0900 C.ar  102  PHE102     -0.0042
     65  CD2       55.3850   -1.4410    3.8490 C.ar  102  PHE102     -0.0042
     66  CE1       53.0640   -2.9240    3.9930 C.ar  102  PHE102     -0.0003
     67  CE2       54.9730   -2.1700    2.7550 C.ar  102  PHE102     -0.0003
     68  CZ        53.8080   -2.9090    2.8220 C.ar  102  PHE102     -0.0000
     69  N         55.9840    1.9850    4.8670 N.am  103  VAL103     -0.1966
     70  CA        56.4370    2.6990    3.6670 C.3   103  VAL103      0.1727
     71  C         56.8100    1.7000    2.5480 C.2   103  VAL103      0.2617
     72  O         57.6420    0.8020    2.7330 O.2   103  VAL103     -0.2715
     73  CB        57.6440    3.6160    3.9880 C.3   103  VAL103      0.0290
     74  CG1       58.3070    4.1140    2.7170 C.3   103  VAL103      0.0023
     75  CG2       57.2250    4.8040    4.9140 C.3   103  VAL103      0.0023
     76  N         56.1750    1.8350    1.3920 N.am  104  SER104     -0.1936
     77  CA        56.4420    0.9160    0.2980 C.3   104  SER104      0.2055
     78  C         57.8940    1.0520   -0.1510 C.2   104  SER104      0.2644
     79  O         58.3670    2.1540   -0.4140 O.2   104  SER104     -0.2714
     80  CB        55.4840    1.1710   -0.8660 C.3   104  SER104      0.2130
     81  OG        54.1380    0.9810   -0.4590 O.3   104  SER104     -0.2179
     82  N         58.6030   -0.0680   -0.2150 N.am  105  GLY105     -0.1939
     83  CA        60.0080   -0.0580   -0.5860 C.3   105  GLY105      0.2014
     84  C         60.9440    0.1730    0.5910 C.2   105  GLY105      0.2639
     85  O         62.1550   -0.0600    0.4920 O.2   105  GLY105     -0.2714
     86  N         60.3780    0.6180    1.7100 N.am  106  GLY106     -0.1954
     87  CA        61.1640    0.9430    2.8850 C.3   106  GLY106      0.1869
     88  C         61.6730   -0.2590    3.6560 C.2   106  GLY106      0.2309
     89  O         61.4220   -1.4090    3.2990 O.2   106  GLY106     -0.2863
@<TRIPOS>BOND
     1    32    31   ar
     2    32    30   ar
     3    31    29   ar
     4    30    28   ar
     5    29    26   ar
     6     5     6    1
     7     5     2    1
     8    37    34    1
     9    37    38    1
    10    40    38   ar
    11    28    26   ar
    12    28    27   ar
    13    36    35    2
    14    26    24   ar
    15    34    35    1
    16    34    33    1
    17    38    39   ar
    18     2     1    1
    19     2     3    1
    20    22    21    2
    21    80    81    1
    22    80    77    1
    23    83    82    1
    24    83    84    1
    25    33    21   am
    26    27    25   ar
    27    79    78    2
    28    21    20    1
    29    24    23    1
    30    24    25   ar
    31    82    78   am
    32    78    77    1
    33     4     3    2
    34    23    20    1
    35    77    76    1
    36    85    84    2
    37    84    86   am
    38    47    45    1
    39    20    19    1
    40    41    42    1
    41    76    71   am
    42    86    87    1
    43    19     9   am
    44    10     9    2
    45    45    42    1
    46    45    46    1
    47    42    43    1
    48     9     8    1
    49    71    72    2
    50    71    70    1
    51    74    73    1
    52    67    68   ar
    53    67    65   ar
    54    68    66   ar
    55    87    88    1
    56    89    88    2
    57    11     8    1
    58    11    12    1
    59    43    44    2
    60    70    73    1
    61    70    69    1
    62     8     7    1
    63    65    63   ar
    64    73    75    1
    65    66    64   ar
    66    61    60    2
    67    12    14   ar
    68    12    13   ar
    69    14    16   ar
    70    69    60   am
    71    60    59    1
    72    63    64   ar
    73    63    62    1
    74    13    15   ar
    75    16    17   ar
    76    62    59    1
    77    57    56   ar
    78    57    55   ar
    79    59    58    1
    80    56    54   ar
    81    15    17   ar
    82    17    18    1
    83    55    53   ar
    84    54    53   ar
    85    48    49    1
    86    53    52    1
    87    49    52    1
    88    49    50    1
    89    50    51    2
