@<TRIPOS>MOLECULE
tmp/5t53A00.pdb
 207 205 0 0 0
SMALL
GASTEIGER

@<TRIPOS>ATOM
      1  N         -3.9500   25.5380   13.1750 N.3    77  LEU77      -0.1245
      2  CA        -4.6120   24.2400   13.2670 C.3    77  LEU77       0.1561
      3  C         -4.7070   23.7060   14.6890 C.2    77  LEU77       0.2260
      4  O         -5.6140   22.9220   14.9800 O.2    77  LEU77      -0.2867
      5  CB        -3.8720   23.2020   12.4120 C.3    77  LEU77       0.0270
      6  CG        -3.6310   23.5810   10.9510 C.3    77  LEU77       0.0019
      7  CD1       -2.7130   22.5880   10.2510 C.3    77  LEU77       0.0001
      8  CD2       -4.9510   23.7200   10.2210 C.3    77  LEU77       0.0001
      9  N          3.3760   13.5230    2.9430 N.3   132  ILE132     -0.1231
     10  CA         2.9250   14.8990    3.1400 C.3   132  ILE132      0.1692
     11  C          2.5980   15.0810    4.6160 C.2   132  ILE132      0.2593
     12  O          1.6880   14.4360    5.1450 O.2   132  ILE132     -0.2718
     13  CB         1.7060   15.2240    2.2750 C.3   132  ILE132      0.0266
     14  CG1        2.0380   15.1500    0.7840 C.3   132  ILE132      0.0019
     15  CG2        1.1600   16.5860    2.6630 C.3   132  ILE132      0.0020
     16  CD1        0.7850   15.1670   -0.1000 C.3   132  ILE132      0.0001
     17  N          3.3180   15.9800    5.2780 N.am  133  SER133     -0.1938
     18  CA         3.1000   16.2180    6.6970 C.3   133  SER133      0.2055
     19  C          2.1540   17.3890    6.9580 C.2   133  SER133      0.2643
     20  O          1.4710   17.4130    7.9890 O.2   133  SER133     -0.2714
     21  CB         4.4410   16.4650    7.3890 C.3   133  SER133      0.2130
     22  OG         4.3460   16.2230    8.7780 O.3   133  SER133     -0.2179
     23  N          2.1040   18.3600    6.0450 N.am  134  ARG134     -0.1963
     24  CA         1.3630   19.5910    6.2620 C.3   134  ARG134      0.1729
     25  C          0.9370   20.1600    4.9140 C.2   134  ARG134      0.2616
     26  O          1.7470   20.2580    3.9890 O.2   134  ARG134     -0.2715
     27  CB         2.1970   20.6150    7.0530 C.3   134  ARG134      0.0348
     28  CG         2.4170   20.2230    8.4980 C.3   134  ARG134      0.0492
     29  CD         3.1480   21.3090    9.2650 C.3   134  ARG134      0.2205
     30  NE         3.2110   21.0350   10.7000 N.pl3 134  ARG134     -0.0865
     31  CZ         4.0130   20.1330   11.2510 C.cat 134  ARG134      0.5346
     32  NH1        4.8270   19.4200   10.4890 N.pl3 134  ARG134      0.1354
     33  NH2        3.9840   19.9180   12.5600 N.pl3 134  ARG134      0.1354
     34  N         -0.3480   20.5080    4.8070 N.am  135  ILE135     -0.1963
     35  CA        -0.9220   21.1200    3.6120 C.3   135  ILE135      0.1727
     36  C         -1.8220   22.2560    4.0990 C.2   135  ILE135      0.2616
     37  O         -2.8100   22.0160    4.7990 O.2   135  ILE135     -0.2715
     38  CB        -1.7000   20.0970    2.7430 C.3   135  ILE135      0.0290
     39  CG1       -2.2300   20.7060    1.4440 C.3   135  ILE135      0.0022
     40  CG2       -2.8540   19.4250    3.4830 C.3   135  ILE135      0.0023
     41  CD1       -1.1710   20.9360    0.4130 C.3   135  ILE135      0.0001
     42  N         -1.4460   23.4940    3.8000 N.am  136  TRP136     -0.1960
     43  CA        -2.1810   24.6250    4.3530 C.3   136  TRP136      0.1771
     44  C         -2.2460   25.7380    3.3300 C.2   136  TRP136      0.2619
     45  O         -1.2530   26.0450    2.6570 O.2   136  TRP136     -0.2715
     46  CB        -1.5480   25.1700    5.6390 C.3   136  TRP136      0.0590
     47  CG        -2.0450   26.5550    6.0080 C.ar  136  TRP136      0.0006
     48  CD1       -3.0760   26.8620    6.8480 C.ar  136  TRP136      0.0946
     49  CD2       -1.5390   27.8120    5.5240 C.ar  136  TRP136      0.0152
     50  NE1       -3.2370   28.2270    6.9250 N.ar  136  TRP136     -0.2442
     51  CE2       -2.3100   28.8310    6.1180 C.ar  136  TRP136      0.0810
     52  CE3       -0.5080   28.1720    4.6460 C.ar  136  TRP136      0.0012
     53  CZ2       -2.0790   30.1830    5.8710 C.ar  136  TRP136      0.0191
     54  CZ3       -0.2850   29.5150    4.3950 C.ar  136  TRP136      0.0001
     55  CH2       -1.0690   30.5040    5.0050 C.ar  136  TRP136      0.0015
     56  N         -3.4260   26.3420    3.2240 N.am  137  VAL137     -0.1977
     57  CA        -3.6180   27.5250    2.3990 C.3   137  VAL137      0.1596
     58  C         -4.4870   28.5040    3.1830 C.2   137  VAL137      0.2287
     59  O         -5.4230   28.1020    3.8820 O.2   137  VAL137     -0.2864
     60  CB        -4.2230   27.1630    1.0250 C.3   137  VAL137      0.0276
     61  CG1       -3.4850   25.9730    0.4400 C.3   137  VAL137      0.0022
     62  CG2       -5.6820   26.8580    1.1310 C.3   137  VAL137      0.0022
     63  N         -8.7800   30.1270    0.0200 N.3   142  ARG142     -0.1231
     64  CA        -9.1680   28.7440   -0.2030 C.3   142  ARG142      0.1694
     65  C        -10.1210   28.6290   -1.3910 C.2   142  ARG142      0.2592
     66  O        -10.5610   29.6210   -1.9760 O.2   142  ARG142     -0.2718
     67  CB        -9.7970   28.1590    1.0660 C.3   142  ARG142      0.0321
     68  CG        -8.7560   27.6300    2.0450 C.3   142  ARG142      0.0489
     69  CD        -9.2440   27.3850    3.4590 C.3   142  ARG142      0.2205
     70  NE        -8.1040   27.3980    4.3760 N.pl3 142  ARG142     -0.0865
     71  CZ        -8.1980   27.3510    5.7020 C.cat 142  ARG142      0.5346
     72  NH1       -9.3920   27.2770    6.2800 N.pl3 142  ARG142      0.1354
     73  NH2       -7.0940   27.3890    6.4520 N.pl3 142  ARG142      0.1354
     74  N        -10.4200   27.3820   -1.7560 N.am  143  ARG143     -0.1966
     75  CA       -11.2850   27.0400   -2.8850 C.3   143  ARG143      0.1729
     76  C        -10.8390   27.7000   -4.1940 C.2   143  ARG143      0.2616
     77  O        -11.6490   27.8810   -5.1040 O.2   143  ARG143     -0.2715
     78  CB       -12.7490   27.4000   -2.5970 C.3   143  ARG143      0.0348
     79  CG       -13.3450   26.8350   -1.3070 C.3   143  ARG143      0.0492
     80  CD       -13.1870   25.3370   -1.2070 C.3   143  ARG143      0.2205
     81  NE       -13.7190   24.6230   -2.3660 N.pl3 143  ARG143     -0.0865
     82  CZ       -14.8520   23.9300   -2.3620 C.cat 143  ARG143      0.5346
     83  NH1      -15.2590   23.3130   -3.4640 N.pl3 143  ARG143      0.1354
     84  NH2      -15.5610   23.8320   -1.2480 N.pl3 143  ARG143      0.1354
     85  N         -9.5660   28.0710   -4.3260 N.am  144  LYS144     -0.1963
     86  CA        -9.0430   28.6730   -5.5490 C.3   144  LYS144      0.1728
     87  C         -8.0250   27.7580   -6.2300 C.2   144  LYS144      0.2616
     88  O         -7.1030   28.2170   -6.9140 O.2   144  LYS144     -0.2715
     89  CB        -8.4280   30.0400   -5.2570 C.3   144  LYS144      0.0311
     90  CG        -9.3920   31.0550   -4.6840 C.3   144  LYS144      0.0038
     91  CD       -10.5400   31.3060   -5.6410 C.3   144  LYS144      0.0206
     92  CE       -11.2900   32.5750   -5.2730 C.3   144  LYS144      0.1093
     93  NZ       -11.6500   32.5480   -3.8290 N.3   144  LYS144     -0.1314
     94  N         -8.1880   26.4450   -6.0330 N.am  145  LYS145     -0.1963
     95  CA        -7.3830   25.4100   -6.6940 C.3   145  LYS145      0.1728
     96  C         -5.8770   25.6270   -6.5040 C.2   145  LYS145      0.2616
     97  O         -5.0840   25.2930   -7.3890 O.2   145  LYS145     -0.2715
     98  CB        -7.7400   25.3000   -8.1850 C.3   145  LYS145      0.0311
     99  CG        -9.1750   24.9160   -8.4200 C.3   145  LYS145      0.0038
    100  CD        -9.4910   23.5980   -7.7530 C.3   145  LYS145      0.0206
    101  CE       -10.9510   23.2760   -7.8790 C.3   145  LYS145      0.1093
    102  NZ       -11.1060   21.8270   -7.7740 N.3   145  LYS145     -0.1314
    103  N         -5.4550   26.1520   -5.3460 N.am  146  ILE146     -0.1963
    104  CA        -4.0350   26.4660   -5.1660 C.3   146  ILE146      0.1727
    105  C         -3.3090   25.3890   -4.3700 C.2   146  ILE146      0.2616
    106  O         -2.1130   25.1880   -4.5610 O.2   146  ILE146     -0.2715
    107  CB        -3.8430   27.8770   -4.5480 C.3   146  ILE146      0.0290
    108  CG1       -4.2320   28.0040   -3.0660 C.3   146  ILE146      0.0022
    109  CG2       -4.5630   28.9550   -5.3670 C.3   146  ILE146      0.0023
    110  CD1       -3.0470   27.9550   -2.0870 C.3   146  ILE146      0.0001
    111  N         -3.9910   24.6450   -3.5000 N.am  147  ALA147     -0.1963
    112  CA        -3.3810   23.4280   -2.9580 C.3   147  ALA147      0.1728
    113  C         -3.2080   22.3860   -4.0430 C.2   147  ALA147      0.2616
    114  O         -2.1920   21.6840   -4.0720 O.2   147  ALA147     -0.2715
    115  CB        -4.2160   22.8220   -1.8190 C.3   147  ALA147      0.0334
    116  N         -4.1940   22.2800   -4.9340 N.am  148  SER148     -0.1950
    117  CA        -4.0760   21.4090   -6.0930 C.3   148  SER148      0.1924
    118  C         -2.8270   21.7270   -6.9040 C.2   148  SER148      0.2314
    119  O         -2.1720   20.8150   -7.4220 O.2   148  SER148     -0.2863
    120  CB        -5.3320   21.5350   -6.9540 C.3   148  SER148      0.2116
    121  OG        -6.4850   21.1270   -6.2290 O.3   148  SER148     -0.2180
    122  N          0.4490   10.4570    3.2900 N.3   171  PHE171     -0.1227
    123  CA         0.2990   11.6870    4.0550 C.3   171  PHE171      0.1736
    124  C         -0.0590   11.3520    5.4950 C.2   171  PHE171      0.2596
    125  O         -0.4680   10.2290    5.8080 O.2   171  PHE171     -0.2718
    126  CB        -0.7490   12.6220    3.4360 C.3   171  PHE171      0.0547
    127  CG        -2.0620   11.9580    3.1150 C.ar  171  PHE171     -0.0202
    128  CD1       -2.2250   11.2360    1.9400 C.ar  171  PHE171     -0.0042
    129  CD2       -3.1430   12.0770    3.9750 C.ar  171  PHE171     -0.0042
    130  CE1       -3.4410   10.6280    1.6340 C.ar  171  PHE171     -0.0003
    131  CE2       -4.3640   11.4730    3.6730 C.ar  171  PHE171     -0.0003
    132  CZ        -4.5100   10.7510    2.5010 C.ar  171  PHE171     -0.0000
    133  N          0.1280   12.3330    6.3720 N.am  172  SER172     -0.1938
    134  CA        -0.2110   12.1180    7.7670 C.3   172  SER172      0.2055
    135  C         -1.7170   12.2570    7.9490 C.2   172  SER172      0.2643
    136  O         -2.4220   12.7870    7.0840 O.2   172  SER172     -0.2714
    137  CB         0.5710   13.0770    8.6700 C.3   172  SER172      0.2130
    138  OG         0.3780   14.4340    8.3030 O.3   172  SER172     -0.2179
    139  N         -2.2130   11.7500    9.0760 N.am  173  ASP173     -0.1957
    140  CA        -3.6510   11.5660    9.2390 C.3   173  ASP173      0.1825
    141  C         -4.3530   12.8980    9.1400 C.2   173  ASP173      0.2464
    142  O         -3.9520   13.8830    9.8010 O.2   173  ASP173     -0.2730
    143  CB        -3.9800   10.8450   10.5560 C.3   173  ASP173      0.1450
    144  CG        -3.1690   11.3520   11.7520 C.2   173  ASP173      0.3671
    145  OD1       -3.7930   11.5880   12.8100 O.co2 173  ASP173     -0.2456
    146  OD2       -1.9330   11.4960   11.6390 O.co2 173  ASP173     -0.2456
    147  N         -5.3960   13.0400    8.3110 N.am  174  PRO174     -0.2715
    148  CA        -5.8280   14.3400    7.8390 C.3   174  PRO174      0.1536
    149  C         -6.8300   15.0110    8.7750 C.2   174  PRO174      0.2599
    150  O         -7.3340   14.4280    9.7350 O.2   174  PRO174     -0.2715
    151  CB        -6.4910   14.0340    6.4890 C.3   174  PRO174      0.0310
    152  CG        -6.3050   12.5480    6.2640 C.3   174  PRO174      0.0237
    153  CD        -6.1010   11.9470    7.6090 C.3   174  PRO174      0.0939
    154  N         -7.1070   16.2600    8.4600 N.am  175  THR175     -0.1951
    155  CA        -8.2270   16.9940    9.0190 C.3   175  THR175      0.1897
    156  C         -9.4330   16.8390    8.1130 C.2   175  THR175      0.2313
    157  O         -9.3340   16.2790    7.0140 O.2   175  THR175     -0.2863
    158  CB        -7.8510   18.4640    9.1740 C.3   175  THR175      0.1794
    159  OG1       -7.3410   18.9640    7.9320 O.3   175  THR175     -0.2208
    160  CG2       -6.8370   18.6360   10.2830 C.3   175  THR175      0.0378
    161  N        -10.7630   19.1960    6.3970 N.3   177  ASP177     -0.1225
    162  CA       -10.3780   19.8850    5.1690 C.3   177  ASP177      0.1805
    163  C         -9.4460   19.0190    4.3340 C.2   177  ASP177      0.2598
    164  O         -9.6330   18.8890    3.1170 O.2   177  ASP177     -0.2718
    165  CB        -9.7200   21.2240    5.4970 C.3   177  ASP177      0.1424
    166  CG       -10.6210   22.1350    6.2980 C.2   177  ASP177      0.3668
    167  OD1      -11.4240   21.6080    7.0950 O.co2 177  ASP177     -0.2456
    168  OD2      -10.5060   23.3730    6.1540 O.co2 177  ASP177     -0.2456
    169  N         -8.4390   18.4130    4.9760 N.am  178  GLY178     -0.1957
    170  CA        -7.5650   17.4920    4.2660 C.3   178  GLY178      0.1869
    171  C         -8.3260   16.3490    3.6220 C.2   178  GLY178      0.2309
    172  O         -8.0770   15.9990    2.4640 O.2   178  GLY178     -0.2863
    173  N        -11.6280   16.4930    2.8460 N.3   180  LEU180     -0.1231
    174  CA       -12.4200   17.1050    1.7850 C.3   180  LEU180      0.1693
    175  C        -11.5640   17.4620    0.5750 C.2   180  LEU180      0.2592
    176  O        -12.0710   17.5050   -0.5520 O.2   180  LEU180     -0.2718
    177  CB       -13.1490   18.3460    2.3140 C.3   180  LEU180      0.0284
    178  CG       -14.3790   18.8710    1.6030 C.3   180  LEU180      0.0019
    179  CD1      -15.5240   17.8670    1.6230 C.3   180  LEU180      0.0001
    180  CD2      -14.8190   20.1830    2.2590 C.3   180  LEU180      0.0001
    181  N        -10.2680   17.7130    0.7830 N.am  181  PHE181     -0.1976
    182  CA        -9.3610   17.9690   -0.3320 C.3   181  PHE181      0.1639
    183  C         -8.8600   16.6790   -0.9750 C.2   181  PHE181      0.2290
    184  O         -8.4360   16.6940   -2.1370 O.2   181  PHE181     -0.2864
    185  CB        -8.1720   18.8120    0.1410 C.3   181  PHE181      0.0560
    186  CG        -7.0920   18.9850   -0.8980 C.ar  181  PHE181     -0.0200
    187  CD1       -7.3580   19.6380   -2.0890 C.ar  181  PHE181     -0.0042
    188  CD2       -5.8150   18.5000   -0.6790 C.ar  181  PHE181     -0.0042
    189  CE1       -6.3830   19.8010   -3.0450 C.ar  181  PHE181     -0.0003
    190  CE2       -4.8230   18.6590   -1.6350 C.ar  181  PHE181     -0.0003
    191  CZ        -5.1090   19.3100   -2.8200 C.ar  181  PHE181     -0.0000
    192  N        -10.5440   13.5430   -1.4050 N.3   183  THR183     -0.1203
    193  CA       -11.5130   12.8910   -2.2780 C.3   183  THR183      0.1994
    194  C        -11.5980   13.5520   -3.6470 C.2   183  THR183      0.2617
    195  O        -12.1760   12.9730   -4.5670 O.2   183  THR183     -0.2717
    196  CB       -12.8840   12.8750   -1.6120 C.3   183  THR183      0.1784
    197  OG1      -13.3380   14.2200   -1.3960 O.3   183  THR183     -0.2211
    198  CG2      -12.7810   12.1540   -0.2710 C.3   183  THR183      0.0376
    199  N        -11.0640   14.7610   -3.7890 N.am  184  GLN184     -0.1979
    200  CA       -10.6780   15.2540   -5.1050 C.3   184  GLN184      0.1601
    201  C         -9.9440   14.1810   -5.8910 C.2   184  GLN184      0.2287
    202  O        -10.3070   13.8810   -7.0390 O.2   184  GLN184     -0.2864
    203  CB        -9.7810   16.4890   -4.9500 C.3   184  GLN184      0.0394
    204  CG        -9.0140   16.8290   -6.2190 C.3   184  GLN184      0.0908
    205  CD        -8.8710   18.3080   -6.4490 C.2   184  GLN184      0.2608
    206  OE1       -9.5840   19.1160   -5.8660 O.2   184  GLN184     -0.2717
    207  NE2       -7.8970   18.6750   -7.2650 N.am  184  GLN184     -0.0878
@<TRIPOS>BOND
     1    99    98    1
     2    99   100    1
     3    98    95    1
     4   101   102    1
     5   101   100    1
     6   119   118    2
     7    97    96    2
     8   207   205   am
     9   202   201    2
    10   120   121    1
    11   120   117    1
    12    88    87    2
    13   118   117    1
    14    95    96    1
    15    95    94    1
    16    96   103   am
    17   205   204    1
    18   205   206    2
    19    87    94   am
    20    87    86    1
    21   204   203    1
    22   117   116    1
    23   201   200    1
    24    91    92    1
    25    91    90    1
    26    86    89    1
    27    86    85    1
    28   109   107    1
    29   103   104    1
    30    92    93    1
    31    89    90    1
    32   104   107    1
    33   104   105    1
    34   200   203    1
    35   200   199    1
    36    77    76    2
    37   116   113   am
    38   195   194    2
    39   106   105    2
    40   107   108    1
    41   105   111   am
    42    85    76   am
    43    76    75    1
    44   114   113    2
    45   113   112    1
    46   199   194   am
    47   194   193    1
    48   111   112    1
    49    83    82    1
    50   108   110    1
    51   189   191   ar
    52   189   187   ar
    53   112   115    1
    54    75    78    1
    55    75    74    1
    56   191   190   ar
    57    78    79    1
    58    81    82    2
    59    81    80    1
    60    82    84    1
    61   193   196    1
    62   193   192    1
    63   184   183    2
    64   187   186   ar
    65    66    65    2
    66    74    65   am
    67   190   188   ar
    68   196   197    1
    69   196   198    1
    70    65    64    1
    71    79    80    1
    72   183   182    1
    73   186   188   ar
    74   186   185    1
    75   176   175    2
    76   182   185    1
    77   182   181    1
    78    64    63    1
    79    64    67    1
    80    16    14    1
    81    41    39    1
    82    61    60    1
    83   175   181   am
    84   175   174    1
    85    14    13    1
    86    60    62    1
    87    60    57    1
    88    67    68    1
    89    39    38    1
    90   178   179    1
    91   178   180    1
    92   178   177    1
    93   130   128   ar
    94   130   132   ar
    95   174   177    1
    96   174   173    1
    97   128   127   ar
    98    68    69    1
    99    13    15    1
   100    13    10    1
   101    57    58    1
   102    57    56    1
   103   172   171    2
   104   132   131   ar
   105    45    44    2
   106    38    40    1
   107    38    35    1
   108     9    10    1
   109   127   126    1
   110   127   129   ar
   111   164   163    2
   112    10    11    1
   113    58    59    2
   114    56    44   am
   115   122   123    1
   116    44    43    1
   117   126   123    1
   118    69    70    1
   119    35    36    1
   120    35    34    1
   121   171   170    1
   122   131   129   ar
   123    42    36   am
   124    42    43    1
   125    26    25    2
   126   123   124    1
   127    36    37    2
   128   170   169    1
   129   163   169   am
   130   163   162    1
   131    43    46    1
   132    70    71    2
   133    54    52   ar
   134    54    55   ar
   135    11    12    2
   136    11    17   am
   137    52    49   ar
   138    34    25   am
   139    25    24    1
   140    55    53   ar
   141   162   165    1
   142   162   161    1
   143    17    18    1
   144   124   125    2
   145   124   133   am
   146   165   166    1
   147    49    47   ar
   148    49    51   ar
   149    46    47    1
   150    71    72    1
   151    71    73    1
   152    53    51   ar
   153    47    48   ar
   154    23    24    1
   155    23    19   am
   156    51    50   ar
   157   168   166   ar
   158    24    27    1
   159   152   151    1
   160   152   153    1
   161   166   167   ar
   162   133   134    1
   163   151   148    1
   164    18    19    1
   165    18    21    1
   166    48    50   ar
   167    19    20    2
   168   157   156    2
   169    27    28    1
   170   136   135    2
   171    21    22    1
   172   153   147    1
   173   134   135    1
   174   134   137    1
   175   148   147    1
   176   148   149    1
   177   159   158    1
   178   135   139   am
   179   156   155    1
   180   138   137    1
   181   147   141   am
   182   154   149   am
   183   154   155    1
   184    28    29    1
   185   149   150    2
   186   155   158    1
   187   139   140    1
   188   141   140    1
   189   141   142    2
   190   158   160    1
   191   140   143    1
   192    29    30    1
   193     8     6    1
   194     7     6    1
   195    32    31    1
   196   143   144    1
   197    30    31    2
   198     6     5    1
   199    31    33    1
   200   146   144   ar
   201   144   145   ar
   202     5     2    1
   203     1     2    1
   204     2     3    1
   205     3     4    2
