@<TRIPOS>MOLECULE
tmp/5t54B00.pdb
 112 111 0 0 0
SMALL
GASTEIGER

@<TRIPOS>ATOM
      1  N         41.9510    8.5890    9.8650 N.3    43  GLN43      -0.1245
      2  CA        42.4680    9.6700    8.9980 C.3    43  GLN43       0.1566
      3  C         41.8010    9.7120    7.6240 C.2    43  GLN43       0.2260
      4  O         42.4260    9.5810    6.5660 O.2    43  GLN43      -0.2867
      5  CB        44.0210    9.6180    8.8660 C.3    43  GLN43       0.0367
      6  CG        44.6970    9.7920   10.2370 C.3    43  GLN43       0.0905
      7  CD        46.1850    9.8860   10.1500 C.2    43  GLN43       0.2608
      8  OE1       46.7580   10.8090   10.7010 O.2    43  GLN43      -0.2717
      9  NE2       46.7930    9.0460    9.3370 N.am   43  GLN43      -0.0878
     10  N         36.7850   10.1260   17.4550 N.3    77  ALA77      -0.1231
     11  CA        37.1880   11.3680   16.7660 C.3    77  ALA77       0.1694
     12  C         36.7960   11.2940   15.3190 C.2    77  ALA77       0.2592
     13  O         36.8300   10.1850   14.7480 O.2    77  ALA77      -0.2718
     14  CB        38.7210   11.5850   16.9390 C.3    77  ALA77       0.0304
     15  N         36.4100   12.4160   14.6400 N.am   78  ASP78      -0.1974
     16  CA        36.5200   13.8200   15.1030 C.3    78  ASP78       0.1709
     17  C         35.1980   14.6190   15.0980 C.2    78  ASP78       0.2293
     18  O         35.1470   15.6790   15.7180 O.2    78  ASP78      -0.2864
     19  CB        37.5410   14.5410   14.2260 C.3    78  ASP78       0.1436
     20  CG        38.9450   14.3150   14.7150 C.2    78  ASP78       0.3671
     21  OD1       39.4040   15.0450   15.6360 O.co2  78  ASP78      -0.2456
     22  OD2       39.5970   13.3940   14.1690 O.co2  78  ASP78      -0.2456
     23  N         41.5960   15.6210    7.0200 N.3    94  TYR94      -0.1227
     24  CA        41.0120   14.6770    8.0070 C.3    94  TYR94       0.1736
     25  C         41.3920   15.0610    9.4200 C.2    94  TYR94       0.2596
     26  O         42.0730   16.1100    9.6270 O.2    94  TYR94      -0.2718
     27  CB        41.4540   13.2400    7.6590 C.3    94  TYR94       0.0548
     28  CG        42.9310   13.0590    7.4710 C.ar   94  TYR94      -0.0200
     29  CD1       43.8000   13.1910    8.5120 C.ar   94  TYR94      -0.0009
     30  CD2       43.4460   12.8900    6.2030 C.ar   94  TYR94      -0.0009
     31  CE1       45.1650   13.1520    8.2960 C.ar   94  TYR94       0.0417
     32  CE2       44.8120   12.8090    5.9620 C.ar   94  TYR94       0.0417
     33  CZ        45.6720   12.9420    7.0170 C.ar   94  TYR94       0.1957
     34  OH        47.0560   12.8650    6.7540 O.3    94  TYR94      -0.2866
     35  N         40.9640   14.3080   10.4100 N.am   95  GLY95      -0.1942
     36  CA        41.3300   14.6810   11.7750 C.3    95  GLY95       0.2014
     37  C         40.5140   15.8530   12.2810 C.2    95  GLY95       0.2639
     38  O         39.3420   16.0600   11.8440 O.2    95  GLY95      -0.2714
     39  N         41.0590   16.6530   13.2050 N.am   96  GLY96      -0.1939
     40  CA        40.3080   17.6370   13.8330 C.3    96  GLY96       0.2014
     41  C         39.8950   18.8090   12.9300 C.2    96  GLY96       0.2638
     42  O         39.1260   19.6660   13.3290 O.2    96  GLY96      -0.2714
     43  N         40.4590   18.8290   11.7220 N.am   97  TYR97      -0.1973
     44  CA        40.1120   19.8150   10.6890 C.3    97  TYR97       0.1639
     45  C         38.7740   19.5630   10.0500 C.2    97  TYR97       0.2290
     46  O         38.2510   20.4490    9.3400 O.2    97  TYR97      -0.2864
     47  CB        41.2520   19.9370    9.5970 C.3    97  TYR97       0.0560
     48  CG        42.5810   20.2410   10.1750 C.ar   97  TYR97      -0.0198
     49  CD1       42.8770   21.4960   10.6570 C.ar   97  TYR97      -0.0009
     50  CD2       43.5100   19.2390   10.3530 C.ar   97  TYR97      -0.0009
     51  CE1       44.1070   21.7840   11.2500 C.ar   97  TYR97       0.0417
     52  CE2       44.7440   19.5190   10.9590 C.ar   97  TYR97       0.0417
     53  CZ        45.0250   20.7820   11.3730 C.ar   97  TYR97       0.1957
     54  OH        46.2720   21.0360   12.0010 O.3    97  TYR97      -0.2866
     55  N         36.0150   15.3390   19.5440 N.3   122  TRP122     -0.1241
     56  CA        37.3820   15.1350   20.0260 C.3   122  TRP122      0.1605
     57  C         37.9710   16.5110   20.4250 C.2   122  TRP122      0.2264
     58  O         38.1310   17.4370   19.6150 O.2   122  TRP122     -0.2867
     59  CB        38.2330   14.4990   18.9070 C.3   122  TRP122      0.0550
     60  CG        39.7470   14.4040   19.2870 C.ar  122  TRP122      0.0003
     61  CD1       40.7080   15.3680   19.0550 C.ar  122  TRP122      0.0946
     62  CD2       40.4290   13.2990   19.9080 C.ar  122  TRP122      0.0152
     63  NE1       41.9490   14.9320   19.5150 N.ar  122  TRP122     -0.2442
     64  CE2       41.7940   13.6850   20.0620 C.ar  122  TRP122      0.0810
     65  CE3       40.0160   12.0600   20.3960 C.ar  122  TRP122      0.0012
     66  CZ2       42.7510   12.8120   20.6330 C.ar  122  TRP122      0.0191
     67  CZ3       40.9850   11.1880   20.9450 C.ar  122  TRP122      0.0001
     68  CH2       42.3330   11.6240   21.0910 C.ar  122  TRP122      0.0015
     69  N         40.6210   19.0210   20.8180 N.3   124  ASN124     -0.1240
     70  CA        41.9250   19.3100   20.2210 C.3   124  ASN124      0.1653
     71  C         42.6440   20.3450   21.0460 C.2   124  ASN124      0.2266
     72  O         42.0820   21.3320   21.4950 O.2   124  ASN124     -0.2867
     73  CB        41.7340   19.8390   18.8130 C.3   124  ASN124      0.1155
     74  CG        41.4030   18.7360   17.8270 C.2   124  ASN124      0.2627
     75  OD1       40.2270   18.5440   17.4650 O.2   124  ASN124     -0.2716
     76  ND2       42.4290   18.0000   17.3840 N.am  124  ASN124     -0.0877
     77  N         45.6180   21.4560   19.6220 N.3   126  GLU126     -0.1231
     78  CA        46.4130   22.1380   18.5880 C.3   126  GLU126      0.1699
     79  C         45.9330   23.5610   18.2110 C.2   126  GLU126      0.2592
     80  O         46.6000   24.3160   17.5060 O.2   126  GLU126     -0.2718
     81  CB        46.4270   21.2590   17.3290 C.3   126  GLU126      0.0402
     82  CG        46.9880   19.8500   17.4370 C.3   126  GLU126      0.1161
     83  CD        46.0250   18.7370   17.8680 C.2   126  GLU126      0.3649
     84  OE1       44.9430   19.0300   18.4680 O.co2 126  GLU126     -0.2457
     85  OE2       46.2940   17.5440   17.5790 O.co2 126  GLU126     -0.2457
     86  N         44.7080   23.8750   18.6040 N.am  127  TRP127     -0.1976
     87  CA        44.0600   25.1910   18.4990 C.3   127  TRP127      0.1640
     88  C         43.1040   25.3220   19.7030 C.2   127  TRP127      0.2290
     89  O         42.8760   24.3410   20.4520 O.2   127  TRP127     -0.2864
     90  CB        43.2670   25.3500   17.1970 C.3   127  TRP127      0.0576
     91  CG        42.3720   24.2520   16.8990 C.ar  127  TRP127      0.0006
     92  CD1       41.0630   24.1230   17.3260 C.ar  127  TRP127      0.0946
     93  CD2       42.6330   23.1350   16.0670 C.ar  127  TRP127      0.0152
     94  NE1       40.5100   22.9640   16.8500 N.ar  127  TRP127     -0.2442
     95  CE2       41.4580   22.3390   16.0600 C.ar  127  TRP127      0.0810
     96  CE3       43.7400   22.7090   15.3210 C.ar  127  TRP127      0.0012
     97  CZ2       41.3990   21.1860   15.3470 C.ar  127  TRP127      0.0191
     98  CZ3       43.6640   21.5860   14.5980 C.ar  127  TRP127      0.0001
     99  CH2       42.5120   20.8040   14.6270 C.ar  127  TRP127      0.0015
    100  N         40.5260   10.8110   12.4800 N.3   211  GLY211     -0.1210
    101  CA        40.0440   10.2480   13.7150 C.3   211  GLY211      0.1956
    102  C         40.1170    8.7260   13.9050 C.2   211  GLY211      0.2611
    103  O         41.0330    8.0600   13.4560 O.2   211  GLY211     -0.2717
    104  N         39.1900    8.2210   14.6550 N.am  212  GLN212     -0.1979
    105  CA        39.2030    6.8350   15.1360 C.3   212  GLN212      0.1601
    106  C         37.8610    6.4670   15.7380 C.2   212  GLN212      0.2287
    107  O         37.1780    7.2890   16.3760 O.2   212  GLN212     -0.2864
    108  CB        40.3170    6.6820   16.1970 C.3   212  GLN212      0.0394
    109  CG        40.2760    7.6870   17.3370 C.3   212  GLN212      0.0908
    110  CD        41.3510    7.4800   18.3940 C.2   212  GLN212      0.2608
    111  OE1       42.4860    7.0910   18.0840 O.2   212  GLN212     -0.2717
    112  NE2       40.9870    7.6930   19.6670 N.am  212  GLN212     -0.0878
@<TRIPOS>BOND
     1    32    30   ar
     2    32    33   ar
     3    30    28   ar
     4     4     3    2
     5    34    33    1
     6    33    31   ar
     7    23    24    1
     8    28    27    1
     9    28    29   ar
    10     3     2    1
    11    27    24    1
    12    24    25    1
    13    31    29   ar
    14     5     2    1
    15     5     6    1
    16     2     1    1
    17     9     7   am
    18    46    45    2
    19    25    26    2
    20    25    35   am
    21    47    48    1
    22    47    44    1
    23    45    44    1
    24     7     6    1
    25     7     8    2
    26    48    50   ar
    27    48    49   ar
    28    50    52   ar
    29    35    36    1
    30    49    51   ar
    31    44    43    1
    32    52    53   ar
    33    51    53   ar
    34    53    54    1
    35    43    41   am
    36    36    37    1
    37    38    37    2
    38    37    39   am
    39   100   101    1
    40    41    42    2
    41    41    40    1
    42    39    40    1
    43   103   102    2
    44   101   102    1
    45   102   104   am
    46    22    20   ar
    47    19    20    1
    48    19    16    1
    49    98    99   ar
    50    98    96   ar
    51    99    97   ar
    52    15    16    1
    53    15    12   am
    54   104   105    1
    55    20    21   ar
    56    13    12    2
    57    17    16    1
    58    17    18    2
    59   105   106    1
    60   105   108    1
    61    12    11    1
    62    96    93   ar
    63    97    95   ar
    64   106   107    2
    65    95    93   ar
    66    95    94   ar
    67    93    91   ar
    68   108   109    1
    69    11    14    1
    70    11    10    1
    71    94    92   ar
    72    91    90    1
    73    91    92   ar
    74    90    87    1
    75    81    82    1
    76    81    78    1
    77   109   110    1
    78    76    74   am
    79    82    83    1
    80    75    74    2
    81    80    79    2
    82    85    83   ar
    83    74    73    1
    84    83    84   ar
    85   111   110    2
    86    79    78    1
    87    79    86   am
    88   110   112   am
    89    87    86    1
    90    87    88    1
    91    78    77    1
    92    73    70    1
    93    59    60    1
    94    59    56    1
    95    61    60   ar
    96    61    63   ar
    97    60    62   ar
    98    63    64   ar
    99    55    56    1
   100    58    57    2
   101    88    89    2
   102    62    64   ar
   103    62    65   ar
   104    56    57    1
   105    64    66   ar
   106    70    69    1
   107    70    71    1
   108    65    67   ar
   109    66    68   ar
   110    67    68   ar
   111    71    72    2
