@<TRIPOS>MOLECULE
tmp/5t57A00.pdb
 186 182 0 0 0
SMALL
GASTEIGER

@<TRIPOS>ATOM
      1  N        -12.3620   10.4030  -15.0850 N.3     8  PHE8       -0.1227
      2  CA       -11.7080    9.5100  -14.1600 C.3     8  PHE8        0.1736
      3  C        -12.6870    8.3700  -13.8230 C.2     8  PHE8        0.2596
      4  O        -13.8790    8.5790  -13.6600 O.2     8  PHE8       -0.2718
      5  CB       -11.2830   10.2090  -12.8840 C.3     8  PHE8        0.0547
      6  CG       -10.1510   11.1640  -13.0840 C.ar    8  PHE8       -0.0202
      7  CD1      -10.3790   12.4240  -13.6160 C.ar    8  PHE8       -0.0042
      8  CD2       -8.8620   10.7580  -12.7930 C.ar    8  PHE8       -0.0042
      9  CE1       -9.3110   13.2950  -13.9130 C.ar    8  PHE8       -0.0003
     10  CE2       -7.7810   11.6280  -13.0440 C.ar    8  PHE8       -0.0003
     11  CZ        -8.0120   12.8960  -13.5920 C.ar    8  PHE8       -0.0000
     12  N        -12.1510    7.1710  -13.7010 N.am    9  GLY9       -0.1957
     13  CA       -12.9930    5.9690  -13.5340 C.3     9  GLY9        0.1869
     14  C        -13.6400    5.5560  -14.8430 C.2     9  GLY9        0.2309
     15  O        -14.7390    4.9870  -14.8370 O.2     9  GLY9       -0.2863
     16  N        -13.3190    3.2660  -16.9300 N.3    11  GLY11      -0.1210
     17  CA       -13.6060    1.8670  -17.1700 C.3    11  GLY11       0.1956
     18  C        -14.5790    1.1750  -16.2300 C.2    11  GLY11       0.2612
     19  O        -14.8270   -0.0330  -16.3790 O.2    11  GLY11      -0.2717
     20  N        -15.2390    1.9530  -15.3780 N.am   12  GLY12      -0.1942
     21  CA       -16.2340    1.4480  -14.4290 C.3    12  GLY12       0.2014
     22  C        -17.6500    1.3630  -14.9980 C.2    12  GLY12       0.2639
     23  O        -17.8660    1.5300  -16.2170 O.2    12  GLY12      -0.2714
     24  N        -18.6180    1.0500  -14.1430 N.am   13  LYS13      -0.1963
     25  CA       -19.9680    0.8650  -14.6490 C.3    13  LYS13       0.1728
     26  C        -20.4860    2.1430  -15.3170 C.2    13  LYS13       0.2616
     27  O        -20.9730    2.0790  -16.4470 O.2    13  LYS13      -0.2715
     28  CB       -20.9560    0.4220  -13.5530 C.3    13  LYS13       0.0311
     29  CG       -20.8820   -1.0690  -13.1970 C.3    13  LYS13       0.0038
     30  CD       -21.9530   -1.4900  -12.1860 C.3    13  LYS13       0.0206
     31  CE       -21.7660   -0.8400  -10.8010 C.3    13  LYS13       0.1093
     32  NZ       -20.4140   -1.0880  -10.1690 N.3    13  LYS13      -0.1314
     33  N        -20.4070    3.2950  -14.6250 N.am   14  MET14      -0.1963
     34  CA       -20.8430    4.5410  -15.2580 C.3    14  MET14       0.1736
     35  C        -19.7990    5.0400  -16.2580 C.2    14  MET14       0.2617
     36  O        -20.1480    5.6480  -17.2800 O.2    14  MET14      -0.2715
     37  CB       -21.1850    5.6300  -14.2410 C.3    14  MET14       0.0427
     38  CG       -22.3880    5.3160  -13.3840 C.3    14  MET14       0.0599
     39  SD       -23.9360    4.9940  -14.2860 S.3    14  MET14      -0.1393
     40  CE       -24.2780    6.6370  -14.8520 C.3    14  MET14       0.0692
     41  N        -18.5260    4.7430  -16.0040 N.am   15  GLY15      -0.1955
     42  CA       -17.4490    5.2800  -16.8570 C.3    15  GLY15       0.1869
     43  C        -17.6440    4.9000  -18.3040 C.2    15  GLY15       0.2309
     44  O        -17.5530    5.7510  -19.2190 O.2    15  GLY15      -0.2863
     45  N         -9.0970    8.3830  -17.8230 N.3    32  VAL32      -0.1231
     46  CA        -8.1720    7.8920  -16.8050 C.3    32  VAL32       0.1692
     47  C         -8.7580    6.7310  -16.0650 C.2    32  VAL32       0.2592
     48  O         -9.8460    6.8250  -15.5060 O.2    32  VAL32      -0.2718
     49  CB        -7.7760    9.0120  -15.8060 C.3    32  VAL32       0.0266
     50  CG1       -6.6850    8.5300  -14.8480 C.3    32  VAL32       0.0020
     51  CG2       -7.2740   10.2220  -16.5520 C.3    32  VAL32       0.0020
     52  N         -8.0450    5.6070  -16.0410 N.am   33  GLU33      -0.1966
     53  CA        -8.5290    4.3950  -15.3790 C.3    33  GLU33       0.1733
     54  C         -7.3400    3.6190  -14.8120 C.2    33  GLU33       0.2616
     55  O         -6.3730    3.3930  -15.5290 O.2    33  GLU33      -0.2715
     56  CB        -9.3290    3.5470  -16.3700 C.3    33  GLU33       0.0429
     57  CG        -9.8820    2.2120  -15.7970 C.3    33  GLU33       0.1163
     58  CD       -10.7050    2.3350  -14.4670 C.2    33  GLU33       0.3649
     59  OE1      -11.8980    2.7850  -14.4450 O.co2  33  GLU33      -0.2457
     60  OE2      -10.1760    1.8700  -13.4530 O.co2  33  GLU33      -0.2457
     61  N         -7.4280    3.2400  -13.5320 N.am   34  VAL34      -0.1963
     62  CA        -6.3810    2.5080  -12.8290 C.3    34  VAL34       0.1727
     63  C         -6.4180    0.9770  -12.9870 C.2    34  VAL34       0.2616
     64  O         -5.3680    0.3570  -12.9150 O.2    34  VAL34      -0.2715
     65  CB        -6.3050    2.8480  -11.3120 C.3    34  VAL34       0.0290
     66  CG1       -5.9340    4.3050  -11.1470 C.3    34  VAL34       0.0023
     67  CG2       -7.5670    2.4250  -10.5480 C.3    34  VAL34       0.0023
     68  N         -7.5880    0.3650  -13.1420 N.am   35  SER35      -0.1950
     69  CA        -7.6680   -1.1020  -13.2470 C.3    35  SER35       0.1924
     70  C         -7.4000   -1.6080  -14.6760 C.2    35  SER35       0.2314
     71  O         -7.8900   -1.0410  -15.6770 O.2    35  SER35      -0.2863
     72  CB        -9.0030   -1.6380  -12.7200 C.3    35  SER35       0.2116
     73  OG       -10.0360   -1.5980  -13.6960 O.3    35  SER35      -0.2180
     74  N        -15.6910   12.8530  -12.0330 N.3    65  LEU65      -0.1231
     75  CA       -15.1820   11.8390  -11.1420 C.3    65  LEU65       0.1693
     76  C        -16.1600   10.6450  -11.1120 C.2    65  LEU65       0.2592
     77  O        -16.9300   10.5100  -10.1690 O.2    65  LEU65      -0.2718
     78  CB       -14.9690   12.3870   -9.7170 C.3    65  LEU65       0.0284
     79  CG       -13.9180   13.5060   -9.6560 C.3    65  LEU65       0.0019
     80  CD1      -13.8550   14.0420   -8.2250 C.3    65  LEU65       0.0001
     81  CD2      -12.5670   12.9690  -10.1180 C.3    65  LEU65       0.0001
     82  N        -16.0670    9.7510  -12.1110 N.am   66  ALA66      -0.1966
     83  CA       -16.9040    8.5610  -12.1460 C.3    66  ALA66       0.1728
     84  C        -16.2430    7.4260  -11.3600 C.2    66  ALA66       0.2616
     85  O        -16.0550    6.3150  -11.8620 O.2    66  ALA66      -0.2715
     86  CB       -17.2120    8.1390  -13.5980 C.3    66  ALA66       0.0334
     87  N        -15.9740    7.7070  -10.0810 N.am   67  VAL67      -0.1964
     88  CA       -15.2850    6.8010   -9.1800 C.3    67  VAL67       0.1712
     89  C        -16.2100    6.5160   -8.0000 C.2    67  VAL67       0.2458
     90  O        -17.1980    7.2320   -7.7880 O.2    67  VAL67      -0.2730
     91  CB       -13.9230    7.3880   -8.7190 C.3    67  VAL67       0.0289
     92  CG1      -13.0060    7.6280   -9.9340 C.3    67  VAL67       0.0023
     93  CG2      -14.1420    8.6550   -7.9130 C.3    67  VAL67       0.0023
     94  N        -15.8680    5.5470   -7.1500 N.am   68  PRO68      -0.2716
     95  CA       -16.8270    5.2980   -6.1060 C.3    68  PRO68       0.1536
     96  C        -16.9850    6.4210   -5.1120 C.2    68  PRO68       0.2598
     97  O        -16.0060    7.1020   -4.7890 O.2    68  PRO68      -0.2715
     98  CB       -16.3020    3.9990   -5.4140 C.3    68  PRO68       0.0310
     99  CG       -15.3590    3.3970   -6.3760 C.3    68  PRO68       0.0237
    100  CD       -14.8050    4.5160   -7.2170 C.3    68  PRO68       0.0939
    101  N        -18.1760    6.5670   -4.5760 N.am   69  ASP69      -0.1972
    102  CA       -18.4800    7.6920   -3.6710 C.3    69  ASP69       0.1709
    103  C        -17.5730    7.7430   -2.4100 C.2    69  ASP69       0.2293
    104  O        -17.2700    8.8350   -1.9220 O.2    69  ASP69      -0.2864
    105  CB       -19.9880    7.6690   -3.3030 C.3    69  ASP69       0.1436
    106  CG       -20.8540    7.8020   -4.5730 C.2    69  ASP69       0.3671
    107  OD1      -20.7300    8.8280   -5.2530 O.co2  69  ASP69      -0.2456
    108  OD2      -21.5380    6.8210   -4.9550 O.co2  69  ASP69      -0.2456
    109  N        -14.5460    7.1730   -2.2470 N.3    71  ILE71      -0.1231
    110  CA       -13.2120    7.7570   -2.5390 C.3    71  ILE71       0.1692
    111  C        -13.2220    9.0320   -3.3770 C.2    71  ILE71       0.2591
    112  O        -12.1560    9.5310   -3.7760 O.2    71  ILE71      -0.2718
    113  CB       -12.2890    6.6960   -3.1180 C.3    71  ILE71       0.0266
    114  CG1      -12.7780    6.2240   -4.4780 C.3    71  ILE71       0.0019
    115  CG2      -12.0700    5.5760   -2.1100 C.3    71  ILE71       0.0020
    116  CD1      -11.7220    5.4220   -5.1970 C.3    71  ILE71       0.0001
    117  N        -14.3950    9.6220   -3.5770 N.am   72  ILE72      -0.1980
    118  CA       -14.4190   10.9050   -4.2880 C.3    72  ILE72       0.1595
    119  C        -13.5970   11.9300   -3.5380 C.2    72  ILE72       0.2287
    120  O        -12.8410   12.7170   -4.1750 O.2    72  ILE72      -0.2864
    121  CB       -15.8660   11.4050   -4.5060 C.3    72  ILE72       0.0276
    122  CG1      -16.4650   10.6070   -5.6750 C.3    72  ILE72       0.0022
    123  CG2      -15.8830   12.9090   -4.8150 C.3    72  ILE72       0.0022
    124  CD1      -17.9040   10.8790   -5.9360 C.3    72  ILE72       0.0001
    125  N         -9.7140   11.1810   -4.0330 N.3    75  ILE75      -0.1245
    126  CA        -9.2980   11.4220   -5.3890 C.3    75  ILE75       0.1561
    127  C         -9.3510   12.8730   -5.7710 C.2    75  ILE75       0.2260
    128  O         -8.4270   13.3170   -6.4210 O.2    75  ILE75      -0.2867
    129  CB       -10.0680   10.5640   -6.4000 C.3    75  ILE75       0.0252
    130  CG1       -9.8620    9.0610   -6.1040 C.3    75  ILE75       0.0019
    131  CG2       -9.6940   10.8970   -7.8620 C.3    75  ILE75       0.0019
    132  CD1       -8.4830    8.6370   -5.6570 C.3    75  ILE75       0.0001
    133  N        -21.3580   12.4300  -10.1580 N.3    92  LEU92      -0.1231
    134  CA       -22.6100   11.8390  -10.7010 C.3    92  LEU92       0.1693
    135  C        -23.6220   11.4930   -9.6280 C.2    92  LEU92       0.2592
    136  O        -24.6060   10.7850   -9.8870 O.2    92  LEU92      -0.2718
    137  CB       -22.2420   10.5890  -11.5260 C.3    92  LEU92       0.0284
    138  CG       -21.1020   10.7260  -12.5570 C.3    92  LEU92       0.0019
    139  CD1      -20.8050    9.4410  -13.3040 C.3    92  LEU92       0.0001
    140  CD2      -21.4410   11.7810  -13.5540 C.3    92  LEU92       0.0001
    141  N        -23.3820   11.9560   -8.3940 N.am   93  ASP93      -0.1974
    142  CA       -24.1820   11.5910   -7.2420 C.3    93  ASP93       0.1709
    143  C        -23.9560   12.6270   -6.2010 C.2    93  ASP93       0.2293
    144  O        -22.7820   13.1010   -6.0170 O.2    93  ASP93      -0.2864
    145  CB       -23.7810   10.2010   -6.7410 C.3    93  ASP93       0.1436
    146  CG       -24.6730    9.7120   -5.7050 C.2    93  ASP93       0.3671
    147  OD1      -24.5440   10.0470   -4.4660 O.co2  93  ASP93      -0.2456
    148  OD2      -25.6030    8.9500   -6.0950 O.co2  93  ASP93      -0.2456
    149  N        -27.2640   13.7420  -11.8270 N.3   114  HIS114     -0.1227
    150  CA       -27.6950   12.4040  -11.5000 C.3   114  HIS114      0.1737
    151  C        -28.9000   12.1370  -12.4090 C.2   114  HIS114      0.2438
    152  O        -29.7710   13.0360  -12.6010 O.2   114  HIS114     -0.2733
    153  CB       -28.0960   12.2920  -10.0000 C.3   114  HIS114      0.0758
    154  CG       -28.2550   10.8940   -9.5260 C.ar  114  HIS114      0.0818
    155  ND1      -27.2010   10.0290   -9.2300 N.ar  114  HIS114     -0.2268
    156  CD2      -29.3680   10.1760   -9.3390 C.ar  114  HIS114      0.1154
    157  CE1      -27.6790    8.8660   -8.8210 C.ar  114  HIS114      0.1986
    158  NE2      -28.9850    8.9240   -8.9240 N.ar  114  HIS114     -0.2212
    159  N        -28.9500   10.9690  -12.9820 N.am  115  PRO115     -0.2729
    160  CA       -30.0560   10.6670  -13.9040 C.3   115  PRO115      0.1401
    161  C        -31.3200   10.1560  -13.1590 C.2   115  PRO115      0.2269
    162  O        -31.1830    9.5330  -12.1160 O.2   115  PRO115     -0.2865
    163  CB       -29.4690    9.5570  -14.7410 C.3   115  PRO115      0.0296
    164  CG       -28.5850    8.7950  -13.8030 C.3   115  PRO115      0.0237
    165  CD       -28.0460    9.8140  -12.8170 C.3   115  PRO115      0.0939
    166  N        -33.3670    7.8890  -14.7460 N.3   117  HIS117     -0.1241
    167  CA       -33.7050    6.6620  -15.4680 C.3   117  HIS117      0.1621
    168  C        -35.0430    6.8350  -16.2040 C.2   117  HIS117      0.2264
    169  O        -35.8990    7.6820  -15.8520 O.2   117  HIS117     -0.2867
    170  CB       -33.6710    5.3920  -14.5660 C.3   117  HIS117      0.0745
    171  CG       -32.4430    5.2660  -13.7230 C.ar  117  HIS117      0.0817
    172  ND1      -31.2370    4.8200  -14.2310 N.ar  117  HIS117     -0.2268
    173  CD2      -32.2270    5.5020  -12.4080 C.ar  117  HIS117      0.1154
    174  CE1      -30.3310    4.7830  -13.2740 C.ar  117  HIS117      0.1986
    175  NE2      -30.9140    5.1510  -12.1490 N.ar  117  HIS117     -0.2212
    176  N        -32.2100    1.3370  -17.9200 N.3   134  PHE134     -0.1241
    177  CA       -31.1900    2.1370  -17.2340 C.3   134  PHE134      0.1605
    178  C        -31.0950    3.5610  -17.7340 C.2   134  PHE134      0.2264
    179  O        -30.8380    4.4950  -16.9670 O.2   134  PHE134     -0.2867
    180  CB       -29.8150    1.4480  -17.3300 C.3   134  PHE134      0.0534
    181  CG       -28.8230    1.9780  -16.3230 C.ar  134  PHE134     -0.0203
    182  CD1      -28.7580    1.4160  -15.0260 C.ar  134  PHE134     -0.0042
    183  CD2      -27.9870    3.0710  -16.6520 C.ar  134  PHE134     -0.0042
    184  CE1      -27.8810    1.9600  -14.0490 C.ar  134  PHE134     -0.0003
    185  CE2      -27.0600    3.5620  -15.7120 C.ar  134  PHE134     -0.0003
    186  CZ       -27.0170    3.0130  -14.4330 C.ar  134  PHE134     -0.0000
@<TRIPOS>BOND
     1    44    43    2
     2    43    42    1
     3   176   177    1
     4    45    46    1
     5   178   177    1
     6   178   179    2
     7   180   177    1
     8   180   181    1
     9    36    35    2
    10    17    16    1
    11    17    18    1
    12    42    41    1
    13    46    47    1
    14    46    49    1
    15   183   181   ar
    16   183   185   ar
    17    51    49    1
    18    27    26    2
    19    19    18    2
    20    56    57    1
    21    56    53    1
    22   181   182   ar
    23    35    41   am
    24    35    34    1
    25    18    20   am
    26    23    22    2
    27   168   169    2
    28   168   167    1
    29    47    52   am
    30    47    48    2
    31    52    53    1
    32    49    50    1
    33    57    58    1
    34   185   186   ar
    35    71    70    2
    36    55    54    2
    37   167   166    1
    38   167   170    1
    39    53    54    1
    40    20    21    1
    41    26    25    1
    42    26    33   am
    43    34    33    1
    44    34    37    1
    45     1     2    1
    46   182   184   ar
    47    22    21    1
    48    22    24   am
    49    40    39    1
    50    14    15    2
    51    14    13    1
    52    54    61   am
    53   163   160    1
    54   163   164    1
    55    70    69    1
    56    25    24    1
    57    25    28    1
    58   170   171    1
    59    58    59   ar
    60    58    60   ar
    61   186   184   ar
    62    39    38    1
    63    37    38    1
    64   172   171   ar
    65   172   174   ar
    66     2     3    1
    67     2     5    1
    68     9     7   ar
    69     9    11   ar
    70   160   161    1
    71   160   159    1
    72     3    12   am
    73     3     4    2
    74   164   165    1
    75   171   173   ar
    76    12    13    1
    77    73    72    1
    78     7     6   ar
    79    86    83    1
    80    11    10   ar
    81   140   138    1
    82    28    29    1
    83    61    62    1
    84   139   138    1
    85   174   175   ar
    86    69    68    1
    87    69    72    1
    88    29    30    1
    89   161   162    2
    90    68    63   am
    91     6     5    1
    92     6     8   ar
    93    10     8   ar
    94    63    64    2
    95    63    62    1
    96   159   165    1
    97   159   151   am
    98    62    65    1
    99   152   151    2
   100   138   137    1
   101   151   150    1
   102   173   175   ar
   103    30    31    1
   104    83    82    1
   105    83    84    1
   106    82    76   am
   107    74    75    1
   108    85    84    2
   109   149   150    1
   110   137   134    1
   111   150   153    1
   112    84    87   am
   113    65    66    1
   114    65    67    1
   115    75    76    1
   116    75    78    1
   117    76    77    2
   118    31    32    1
   119   134   133    1
   120   134   135    1
   121    81    79    1
   122    87    88    1
   123   153   154    1
   124    92    91    1
   125   136   135    2
   126    78    79    1
   127    79    80    1
   128   135   141   am
   129   154   156   ar
   130   154   155   ar
   131   156   158   ar
   132   155   157   ar
   133    88    91    1
   134    88    89    1
   135   158   157   ar
   136    91    93    1
   137   141   142    1
   138    89    90    2
   139    89    94   am
   140   131   129    1
   141   142   145    1
   142   142   143    1
   143   100    94    1
   144   100    99    1
   145    94    95    1
   146   145   146    1
   147   128   127    2
   148   129   130    1
   149   129   126    1
   150    99    98    1
   151   143   144    2
   152    95    98    1
   153    95    96    1
   154   130   132    1
   155   148   146   ar
   156   124   122    1
   157   127   126    1
   158   146   147   ar
   159   122   121    1
   160   126   125    1
   161   107   106   ar
   162   116   114    1
   163    96    97    2
   164    96   101   am
   165   108   106   ar
   166   123   121    1
   167   101   102    1
   168   106   105    1
   169   121   118    1
   170   114   113    1
   171   118   117    1
   172   118   119    1
   173   120   119    2
   174   112   111    2
   175   102   105    1
   176   102   103    1
   177   117   111   am
   178   111   110    1
   179   113   110    1
   180   113   115    1
   181   110   109    1
   182   103   104    2
