@<TRIPOS>MOLECULE
tmp/5t5gA00.pdb
 161 158 0 0 0
SMALL
GASTEIGER

@<TRIPOS>ATOM
      1  N         52.5660   60.4260    5.7900 N.3    35  ARG35      -0.1245
      2  CA        51.9020   60.6930    4.5000 C.3    35  ARG35       0.1563
      3  C         52.0010   59.5110    3.4950 C.2    35  ARG35       0.2260
      4  O         51.5350   59.6150    2.3570 O.2    35  ARG35      -0.2867
      5  CB        52.3790   62.0350    3.9340 C.3    35  ARG35       0.0307
      6  CG        53.8940   62.2160    3.8930 C.3    35  ARG35       0.0489
      7  CD        54.5800   61.2680    2.9150 C.3    35  ARG35       0.2205
      8  NE        53.9600   61.3760    1.5960 N.pl3  35  ARG35      -0.0865
      9  CZ        54.0250   60.4730    0.6070 C.cat  35  ARG35       0.5346
     10  NH1       54.6960   59.2980    0.7170 N.pl3  35  ARG35       0.1354
     11  NH2       53.3880   60.7460   -0.5180 N.pl3  35  ARG35       0.1354
     12  N         44.1330   46.1500    5.8790 N.3    52  TYR52      -0.1241
     13  CA        43.4510   47.4490    5.9680 C.3    52  TYR52       0.1605
     14  C         42.5260   47.3600    7.1680 C.2    52  TYR52       0.2264
     15  O         41.4250   46.8680    7.0730 O.2    52  TYR52      -0.2867
     16  CB        42.6540   47.7380    4.7280 C.3    52  TYR52       0.0534
     17  CG        41.9200   49.0810    4.7280 C.ar   52  TYR52      -0.0201
     18  CD1       42.6100   50.2680    4.5570 C.ar   52  TYR52      -0.0009
     19  CD2       40.5470   49.1490    4.8290 C.ar   52  TYR52      -0.0009
     20  CE1       41.9450   51.5000    4.4970 C.ar   52  TYR52       0.0417
     21  CE2       39.8790   50.3610    4.7670 C.ar   52  TYR52       0.0417
     22  CZ        40.5810   51.5370    4.5990 C.ar   52  TYR52       0.1957
     23  OH        39.9200   52.7430    4.5350 O.3    52  TYR52      -0.2866
     24  N         38.1180   62.3250    5.6830 N.3    76  GLY76      -0.1210
     25  CA        38.3810   61.4500    4.5750 C.3    76  GLY76       0.1956
     26  C         37.3240   60.3600    4.4400 C.2    76  GLY76       0.2612
     27  O         36.5790   60.0400    5.3930 O.2    76  GLY76      -0.2717
     28  N         37.2730   59.7990    3.2340 N.am   77  CYS77      -0.1956
     29  CA        36.4100   58.6710    2.9010 C.3    77  CYS77       0.1843
     30  C         37.2240   57.3820    3.0760 C.2    77  CYS77       0.2625
     31  O         37.9820   56.9610    2.1680 O.2    77  CYS77      -0.2714
     32  CB        35.9150   58.8490    1.4640 C.3    77  CYS77       0.0997
     33  SG        35.3820   60.5700    1.1570 S.3    77  CYS77      -0.0797
     34  N         37.1010   56.7770    4.2440 N.am   78  TYR78      -0.1960
     35  CA        37.8820   55.5900    4.5980 C.3    78  TYR78       0.1771
     36  C         37.0070   54.3560    4.6660 C.2    78  TYR78       0.2619
     37  O         37.4390   53.3180    5.1590 O.2    78  TYR78      -0.2715
     38  CB        38.5770   55.7910    5.9430 C.3    78  TYR78       0.0574
     39  CG        39.7540   56.7230    5.8940 C.ar   78  TYR78      -0.0198
     40  CD1       41.0140   56.2590    5.5460 C.ar   78  TYR78      -0.0009
     41  CD2       39.6030   58.0750    6.2170 C.ar   78  TYR78      -0.0009
     42  CE1       42.1110   57.1070    5.5170 C.ar   78  TYR78       0.0417
     43  CE2       40.6680   58.9360    6.1890 C.ar   78  TYR78       0.0417
     44  CZ        41.9220   58.4520    5.8320 C.ar   78  TYR78       0.1957
     45  OH        42.9620   59.3120    5.8060 O.3    78  TYR78      -0.2866
     46  N         35.7610   54.4760    4.2240 N.am   79  MET79      -0.1963
     47  CA        34.8020   53.3900    4.3680 C.3    79  MET79       0.1736
     48  C         34.8790   52.5440    3.1100 C.2    79  MET79       0.2616
     49  O         34.6160   53.0590    2.0190 O.2    79  MET79      -0.2715
     50  CB        33.3930   53.9670    4.5860 C.3    79  MET79       0.0427
     51  CG        33.3240   54.8290    5.8560 C.3    79  MET79       0.0599
     52  SD        31.6810   55.4440    6.2970 S.3    79  MET79      -0.1393
     53  CE        30.8910   53.9360    6.8820 C.3    79  MET79       0.0692
     54  N         35.2600   51.2710    3.2510 N.am   80  TYR80      -0.1974
     55  CA        35.4110   50.3560    2.1020 C.3    80  TYR80       0.1639
     56  C         34.3060   49.3060    2.2190 C.2    80  TYR80       0.2290
     57  O         34.3150   48.5240    3.1500 O.2    80  TYR80      -0.2864
     58  CB        36.8040   49.6980    2.0980 C.3    80  TYR80       0.0560
     59  CG        37.0340   48.7390    0.9430 C.ar   80  TYR80      -0.0198
     60  CD1       37.4620   49.1950   -0.3260 C.ar   80  TYR80      -0.0009
     61  CD2       36.7820   47.3790    1.0900 C.ar   80  TYR80      -0.0009
     62  CE1       37.6640   48.3000   -1.3850 C.ar   80  TYR80       0.0417
     63  CE2       36.9770   46.4820    0.0260 C.ar   80  TYR80       0.0417
     64  CZ        37.4330   46.9470   -1.2000 C.ar   80  TYR80       0.1957
     65  OH        37.6130   46.0770   -2.2350 O.3    80  TYR80      -0.2866
     66  N         48.0660   50.1710    7.4650 N.3   101  GLY101     -0.1210
     67  CA        47.3200   49.8430    6.2680 C.3   101  GLY101      0.1956
     68  C         46.5980   51.0350    5.6730 C.2   101  GLY101      0.2612
     69  O         46.6290   51.2710    4.4470 O.2   101  GLY101     -0.2717
     70  N         45.9910   51.8220    6.5460 N.am  102  ARG102     -0.1965
     71  CA        45.1840   52.9760    6.1300 C.3   102  ARG102      0.1729
     72  C         46.0160   54.2150    5.6650 C.2   102  ARG102      0.2616
     73  O         45.4520   55.1950    5.2550 O.2   102  ARG102     -0.2715
     74  CB        44.2250   53.3710    7.2770 C.3   102  ARG102      0.0348
     75  CG        44.8930   53.8220    8.5620 C.3   102  ARG102      0.0492
     76  CD        43.8940   53.9860    9.7000 C.3   102  ARG102      0.2205
     77  NE        43.0130   55.1190    9.4490 N.pl3 102  ARG102     -0.0865
     78  CZ        43.3590   56.3980    9.5630 C.cat 102  ARG102      0.5346
     79  NH1       44.5810   56.7550    9.9740 N.pl3 102  ARG102      0.1354
     80  NH2       42.4620   57.3320    9.2820 N.pl3 102  ARG102      0.1354
     81  N         47.3430   54.1530    5.7850 N.am  103  LEU103     -0.1963
     82  CA        48.2440   55.2580    5.3880 C.3   103  LEU103      0.1728
     83  C         48.9280   55.0350    4.0420 C.2   103  LEU103      0.2616
     84  O         49.5950   55.9410    3.5420 O.2   103  LEU103     -0.2715
     85  CB        49.2900   55.4890    6.4780 C.3   103  LEU103      0.0311
     86  CG        48.7420   55.7630    7.9090 C.3   103  LEU103      0.0022
     87  CD1       49.9070   55.9520    8.8810 C.3   103  LEU103      0.0001
     88  CD2       47.8100   56.9720    8.0090 C.3   103  LEU103      0.0001
     89  N         48.7600   53.8360    3.4590 N.am  104  ILE104     -0.1963
     90  CA        49.3400   53.4610    2.1820 C.3   104  ILE104      0.1727
     91  C         48.5720   54.1830    1.0850 C.2   104  ILE104      0.2616
     92  O         47.3430   54.0500    0.9580 O.2   104  ILE104     -0.2715
     93  CB        49.2220   51.9150    1.9440 C.3   104  ILE104      0.0290
     94  CG1       50.0880   51.1820    2.9510 C.3   104  ILE104      0.0022
     95  CG2       49.5810   51.5170    0.5240 C.3   104  ILE104      0.0023
     96  CD1       50.1340   49.7020    2.8590 C.3   104  ILE104      0.0001
     97  N         49.2830   54.9360    0.2890 N.am  105  ASN105     -0.1958
     98  CA        48.6500   55.6370   -0.8210 C.3   105  ASN105      0.1819
     99  C         48.2390   54.7280   -1.9500 C.2   105  ASN105      0.2621
    100  O         48.7600   53.6150   -2.1190 O.2   105  ASN105     -0.2715
    101  CB        49.5940   56.7010   -1.3740 C.3   105  ASN105      0.1195
    102  CG        49.8130   57.8220   -0.3900 C.2   105  ASN105      0.2630
    103  OD1       48.8570   58.3880    0.1190 O.2   105  ASN105     -0.2716
    104  ND2       51.0500   58.1560   -0.1330 N.am  105  ASN105     -0.0877
    105  N         47.3210   55.2360   -2.7560 N.am  106  HIS106     -0.1973
    106  CA        46.8260   54.5580   -3.9460 C.3   106  HIS106      0.1656
    107  C         47.6960   54.8940   -5.1510 C.2   106  HIS106      0.2291
    108  O         48.1560   55.9930   -5.2810 O.2   106  HIS106     -0.2864
    109  CB        45.3940   54.9990   -4.2520 C.3   106  HIS106      0.0771
    110  CG        44.8650   54.4420   -5.5300 C.ar  106  HIS106      0.0820
    111  ND1       45.0250   55.0860   -6.7440 N.ar  106  HIS106     -0.2267
    112  CD2       44.2340   53.2730   -5.8030 C.ar  106  HIS106      0.1154
    113  CE1       44.4690   54.3610   -7.6990 C.ar  106  HIS106      0.1986
    114  NE2       43.9900   53.2520   -7.1590 N.ar  106  HIS106     -0.2212
    115  N         44.2990   44.3540   -3.2340 N.3   114  THR114     -0.1218
    116  CA        43.3690   43.8810   -2.2290 C.3   114  THR114      0.1862
    117  C         43.0350   42.3970   -2.3970 C.2   114  THR114      0.2287
    118  O         43.0000   41.8810   -3.5040 O.2   114  THR114     -0.2866
    119  CB        42.0510   44.6670   -2.2480 C.3   114  THR114      0.1770
    120  OG1       41.4620   44.5850   -3.5510 O.3   114  THR114     -0.2211
    121  CG2       42.3060   46.1040   -1.8920 C.3   114  THR114      0.0375
    122  N         40.1120   42.4070    5.1060 N.3   125  LEU125     -0.1245
    123  CA        40.6400   42.9910    3.8630 C.3   125  LEU125      0.1561
    124  C         42.1270   43.2570    4.0740 C.2   125  LEU125      0.2260
    125  O         42.5020   44.0230    4.9600 O.2   125  LEU125     -0.2867
    126  CB        39.9010   44.2590    3.5070 C.3   125  LEU125      0.0270
    127  CG        40.1530   44.7930    2.0970 C.3   125  LEU125      0.0019
    128  CD1       39.6150   43.9190    0.9730 C.3   125  LEU125      0.0001
    129  CD2       39.5320   46.1670    2.0510 C.3   125  LEU125      0.0001
    130  N         46.1970   43.5090    2.1160 N.3   127  LEU127     -0.1245
    131  CA        46.9440   43.8950    0.9760 C.3   127  LEU127      0.1561
    132  C         48.0480   42.8840    0.8230 C.2   127  LEU127      0.2260
    133  O         48.7540   42.5750    1.7870 O.2   127  LEU127     -0.2867
    134  CB        47.5090   45.2890    1.2180 C.3   127  LEU127      0.0270
    135  CG        46.5480   46.4880    1.1360 C.3   127  LEU127      0.0019
    136  CD1       47.3310   47.7450    1.4700 C.3   127  LEU127      0.0001
    137  CD2       45.9680   46.6360   -0.2560 C.3   127  LEU127      0.0001
    138  N         48.8250   50.9390   -3.1810 N.3   141  TYR141     -0.1241
    139  CA        47.7520   49.9730   -3.4450 C.3   141  TYR141      0.1605
    140  C         46.8720   50.3220   -4.6780 C.2   141  TYR141      0.2264
    141  O         46.7260   51.4610   -5.0340 O.2   141  TYR141     -0.2867
    142  CB        46.8820   49.7970   -2.1910 C.3   141  TYR141      0.0534
    143  CG        45.7640   50.8150   -2.0510 C.ar  141  TYR141     -0.0201
    144  CD1       44.5280   50.5820   -2.5970 C.ar  141  TYR141     -0.0009
    145  CD2       45.9610   52.0020   -1.3930 C.ar  141  TYR141     -0.0009
    146  CE1       43.5100   51.5010   -2.4880 C.ar  141  TYR141      0.0417
    147  CE2       44.9530   52.9240   -1.2560 C.ar  141  TYR141      0.0417
    148  CZ        43.7230   52.6630   -1.8130 C.ar  141  TYR141      0.1957
    149  OH        42.7010   53.5760   -1.6900 O.3   141  TYR141     -0.2866
    150  N         42.9940   48.1990   -6.4320 N.3   143  TYR143     -0.1241
    151  CA        41.9230   47.2180   -6.0910 C.3   143  TYR143      0.1605
    152  C         41.9600   45.8850   -6.8680 C.2   143  TYR143      0.2264
    153  O         42.5610   45.7800   -7.9490 O.2   143  TYR143     -0.2867
    154  CB        40.5550   47.8790   -6.2780 C.3   143  TYR143      0.0534
    155  CG        40.3580   49.0930   -5.3800 C.ar  143  TYR143     -0.0201
    156  CD1       39.9650   48.9540   -4.0530 C.ar  143  TYR143     -0.0009
    157  CD2       40.5950   50.3790   -5.8420 C.ar  143  TYR143     -0.0009
    158  CE1       39.7690   50.0760   -3.2320 C.ar  143  TYR143      0.0417
    159  CE2       40.4110   51.4960   -5.0170 C.ar  143  TYR143      0.0417
    160  CZ        39.9800   51.3290   -3.7120 C.ar  143  TYR143      0.1957
    161  OH        39.7990   52.4120   -2.8700 O.3   143  TYR143     -0.2866
@<TRIPOS>BOND
     1   153   152    2
     2   113   114   ar
     3   113   111   ar
     4   114   112   ar
     5   152   151    1
     6   111   110   ar
     7   150   151    1
     8   154   151    1
     9   154   155    1
    10   157   155   ar
    11   157   159   ar
    12   112   110   ar
    13   110   109    1
    14   155   156   ar
    15   108   107    2
    16   107   106    1
    17   141   140    2
    18   159   160   ar
    19   140   139    1
    20   109   106    1
    21   156   158   ar
    22   106   105    1
    23   160   158   ar
    24   160   161    1
    25   120   119    1
    26   118   117    2
    27   139   138    1
    28   139   142    1
    29   115   116    1
    30   105    99   am
    31   144   146   ar
    32   144   143   ar
    33   146   148   ar
    34   117   116    1
    35   119   116    1
    36   119   121    1
    37    65    64    1
    38   142   143    1
    39   100    99    2
    40   143   145   ar
    41    99    98    1
    42   148   149    1
    43   148   147   ar
    44   145   147   ar
    45    62    64   ar
    46    62    60   ar
    47   101    98    1
    48   101   102    1
    49    64    63   ar
    50    98    97    1
    51    11     9    1
    52   102   104   am
    53   102   103    2
    54    60    59   ar
    55   137   135    1
    56    63    61   ar
    57    97    91   am
    58    95    93    1
    59     9    10    1
    60     9     8    2
    61   132   131    1
    62   132   133    2
    63    59    61   ar
    64    59    58    1
    65    92    91    2
    66   128   127    1
    67   131   134    1
    68   131   130    1
    69    91    90    1
    70   135   134    1
    71   135   136    1
    72    33    32    1
    73    32    29    1
    74     8     7    1
    75    93    90    1
    76    93    94    1
    77    49    48    2
    78   129   127    1
    79   127   126    1
    80    58    55    1
    81    55    56    1
    82    55    54    1
    83    31    30    2
    84    90    89    1
    85    56    57    2
    86     4     3    2
    87    96    94    1
    88    29    30    1
    89    29    28    1
    90     7     6    1
    91    30    34   am
    92    48    54   am
    93    48    47    1
    94    28    26   am
    95    89    83   am
    96     3     2    1
    97   126   123    1
    98    84    83    2
    99   123   124    1
   100   123   122    1
   101     6     5    1
   102     5     2    1
   103    83    82    1
   104   124   125    2
   105    46    47    1
   106    46    36   am
   107    34    35    1
   108    47    50    1
   109    26    25    1
   110    26    27    2
   111    69    68    2
   112    20    18   ar
   113    20    22   ar
   114     2     1    1
   115    23    22    1
   116    18    17   ar
   117    25    24    1
   118    50    51    1
   119    35    36    1
   120    35    38    1
   121    22    21   ar
   122    36    37    2
   123    17    16    1
   124    17    19   ar
   125    16    13    1
   126    21    19   ar
   127    73    72    2
   128    82    81    1
   129    82    85    1
   130    42    40   ar
   131    42    44   ar
   132    40    39   ar
   133    72    81   am
   134    72    71    1
   135    68    67    1
   136    68    70   am
   137    45    44    1
   138    44    43   ar
   139    51    52    1
   140    12    13    1
   141    39    38    1
   142    39    41   ar
   143    13    14    1
   144    71    70    1
   145    71    74    1
   146    43    41   ar
   147    67    66    1
   148    52    53    1
   149    85    86    1
   150    15    14    2
   151    74    75    1
   152    86    88    1
   153    86    87    1
   154    75    76    1
   155    80    78    1
   156    77    78    2
   157    77    76    1
   158    78    79    1
