@<TRIPOS>MOLECULE
tmp/5t5iD01.pdb
 104 97 0 0 0
SMALL
GASTEIGER

@<TRIPOS>ATOM
      1  N         -5.1790  157.4580    6.9570 N.3     6  ASN6       -0.1240
      2  CA        -4.4740  156.6950    7.9880 C.3     6  ASN6        0.1653
      3  C         -5.5600  156.2210    8.9850 C.2     6  ASN6        0.2266
      4  O         -6.5920  156.8610    9.1020 O.2     6  ASN6       -0.2867
      5  CB        -3.4100  157.6020    8.6370 C.3     6  ASN6        0.1155
      6  CG        -2.5490  157.0010    9.7280 C.2     6  ASN6        0.2627
      7  OD1       -2.5880  155.8090   10.0340 O.2     6  ASN6       -0.2716
      8  ND2       -1.7290  157.8450   10.3390 N.am    6  ASN6       -0.0877
      9  N         -6.2950  153.7620   12.8700 N.3     8  GLY8       -0.1210
     10  CA        -5.7080  153.1670   14.0660 C.3     8  GLY8        0.1956
     11  C         -6.4730  153.4630   15.3510 C.2     8  GLY8        0.2612
     12  O         -7.6820  153.7180   15.3270 O.2     8  GLY8       -0.2717
     13  N         -5.7580  153.4430   16.4850 N.am    9  ARG9       -0.1965
     14  CA        -6.3820  153.6010   17.7970 C.3     9  ARG9        0.1729
     15  C         -6.5750  155.0470   18.2060 C.2     9  ARG9        0.2617
     16  O         -5.8330  155.9330   17.7770 O.2     9  ARG9       -0.2715
     17  CB        -5.5350  152.9110   18.9040 C.3     9  ARG9        0.0348
     18  CG        -5.6290  151.3850   18.9330 C.3     9  ARG9        0.0492
     19  CD        -4.8750  150.6960   17.8170 C.3     9  ARG9        0.2205
     20  NE        -5.2460  149.2840   17.7640 N.pl3   9  ARG9       -0.0865
     21  CZ        -5.0790  148.4740   16.7240 C.cat   9  ARG9        0.5346
     22  NH1       -5.5190  147.2300   16.7750 N.pl3   9  ARG9        0.1354
     23  NH2       -4.4920  148.9120   15.6130 N.pl3   9  ARG9        0.1354
     24  N         -7.5820  155.2560   19.0660 N.am   10  THR10      -0.1937
     25  CA        -7.7630  156.4280   19.9120 C.3    10  THR10       0.2028
     26  C         -8.1670  155.8660   21.2800 C.2    10  THR10       0.2642
     27  O         -8.8550  154.8440   21.3490 O.2    10  THR10      -0.2714
     28  CB        -8.7740  157.4780   19.4090 C.3    10  THR10       0.1808
     29  OG1      -10.1070  157.0390   19.6830 O.3    10  THR10      -0.2208
     30  CG2       -8.5770  157.8470   17.9590 C.3    10  THR10       0.0379
     31  N         -7.8220  156.5610   22.3560 N.am   11  ILE11      -0.1977
     32  CA        -8.2170  156.1320   23.7030 C.3    11  ILE11       0.1596
     33  C         -9.7810  156.0590   23.8080 C.2    11  ILE11       0.2287
     34  O        -10.3000  155.1860   24.4850 O.2    11  ILE11      -0.2864
     35  CB        -7.6230  157.0760   24.7900 C.3    11  ILE11       0.0276
     36  CG1       -7.7250  156.4710   26.2060 C.3    11  ILE11       0.0022
     37  CG2       -8.2680  158.4550   24.7550 C.3    11  ILE11       0.0022
     38  CD1       -6.6580  155.6050   26.5640 C.3    11  ILE11       0.0001
     39  N        -11.9320  155.4480   21.2290 N.3    13  GLN13      -0.1231
     40  CA       -12.3870  154.2640   20.5110 C.3    13  GLN13       0.1698
     41  C        -12.1560  153.0180   21.4250 C.2    13  GLN13       0.2592
     42  O        -12.9760  152.1110   21.4180 O.2    13  GLN13      -0.2718
     43  CB       -11.7150  154.1720   19.1200 C.3    13  GLN13       0.0381
     44  CG       -11.8180  152.7940   18.4530 C.3    13  GLN13       0.0905
     45  CD       -10.7020  151.8590   18.8450 C.2    13  GLN13       0.2608
     46  OE1       -9.6510  152.2710   19.3600 O.2    13  GLN13      -0.2717
     47  NE2      -10.8850  150.5810   18.6050 N.am   13  GLN13      -0.0878
     48  N        -11.0780  153.0150   22.2250 N.am   14  GLY14      -0.1957
     49  CA       -10.7980  151.9370   23.1730 C.3    14  GLY14       0.1869
     50  C        -11.8500  151.8470   24.2650 C.2    14  GLY14       0.2309
     51  O        -12.3810  150.7700   24.5550 O.2    14  GLY14      -0.2863
     52  N        -15.2000  150.5100   22.5510 N.3    17  ILE17      -0.1245
     53  CA       -15.2920  149.0630   22.2540 C.3    17  ILE17       0.1561
     54  C        -15.4920  148.2440   23.5350 C.2    17  ILE17       0.2260
     55  O        -16.2340  147.2610   23.5240 O.2    17  ILE17      -0.2867
     56  CB       -14.1480  148.4980   21.3760 C.3    17  ILE17       0.0252
     57  CG1      -12.7680  148.5270   22.0740 C.3    17  ILE17       0.0019
     58  CG2      -14.1230  149.2130   20.0270 C.3    17  ILE17       0.0019
     59  CD1      -11.6570  147.7960   21.3050 C.3    17  ILE17       0.0001
     60  N         -3.0940  164.4260    4.9720 N.3    75  MET75      -0.1245
     61  CA        -3.4850  163.1690    5.6250 C.3    75  MET75       0.1570
     62  C         -4.6990  163.3870    6.5230 C.2    75  MET75       0.2261
     63  O         -4.8300  164.4360    7.1630 O.2    75  MET75      -0.2867
     64  CB        -2.3120  162.5950    6.4520 C.3    75  MET75       0.0387
     65  CG        -2.5820  161.2220    7.0840 C.3    75  MET75       0.0595
     66  SD        -1.1980  160.6490    8.1050 S.3    75  MET75      -0.1393
     67  CE        -0.1980  159.8720    6.8660 C.3    75  MET75       0.0692
     68  N         -7.4700  160.9390    9.3410 N.3    77  TYR77      -0.1241
     69  CA        -7.4540  159.7940   10.2410 C.3    77  TYR77       0.1605
     70  C         -8.8490  159.3340   10.6390 C.2    77  TYR77       0.2264
     71  O         -9.5960  160.1020   11.2370 O.2    77  TYR77      -0.2867
     72  CB        -6.6300  160.1390   11.4920 C.3    77  TYR77       0.0534
     73  CG        -6.2390  158.9720   12.3700 C.ar   77  TYR77      -0.0201
     74  CD1       -5.1080  158.2090   12.0860 C.ar   77  TYR77      -0.0009
     75  CD2       -6.9030  158.7240   13.5650 C.ar   77  TYR77      -0.0009
     76  CE1       -4.6900  157.1860   12.9390 C.ar   77  TYR77       0.0417
     77  CE2       -6.4670  157.7330   14.4500 C.ar   77  TYR77       0.0417
     78  CZ        -5.3510  156.9760   14.1380 C.ar   77  TYR77       0.1957
     79  OH        -4.9110  155.9760   14.9690 O.3    77  TYR77      -0.2866
     80  N         -9.9410  152.9350   13.7780 N.3    80  MET80      -0.1245
     81  CA       -10.2450  151.5490   13.4070 C.3    80  MET80       0.1570
     82  C        -11.6830  151.2010   13.8060 C.2    80  MET80       0.2261
     83  O        -12.1690  151.6320   14.8520 O.2    80  MET80      -0.2867
     84  CB        -9.2690  150.5600   14.0640 C.3    80  MET80       0.0387
     85  CG        -9.3180  150.5550   15.6050 C.3    80  MET80       0.0595
     86  SD        -8.0990  149.4290   16.2960 S.3    80  MET80      -0.1393
     87  CE        -9.0380  147.8940   16.2720 C.3    80  MET80       0.0692
     88  N         -3.5140  150.9720    6.6220 N.3   101  LYS101     -0.1231
     89  CA        -2.9870  152.3360    6.7410 C.3   101  LYS101      0.1693
     90  C         -2.4150  152.9280    5.4390 C.2   101  LYS101      0.2592
     91  O         -1.7170  152.2450    4.6950 O.2   101  LYS101     -0.2718
     92  CB        -1.8820  152.3610    7.8130 C.3   101  LYS101      0.0285
     93  CG        -2.3710  152.0290    9.2390 C.3   101  LYS101      0.0035
     94  CD        -1.2310  152.0530   10.2430 C.3   101  LYS101      0.0206
     95  CE        -1.6140  152.1100   11.7090 C.3   101  LYS101      0.1093
     96  NZ        -2.7330  151.1860   12.0540 N.3   101  LYS101     -0.1314
     97  N         -2.7000  154.2300    5.2220 N.am  102  ASN102     -0.1974
     98  CA        -2.1620  155.1230    4.1960 C.3   102  ASN102      0.1688
     99  C         -2.6630  154.8110    2.7850 C.2   102  ASN102      0.2292
    100  O         -1.8780  154.5590    1.8670 O.2   102  ASN102     -0.2864
    101  CB        -0.6350  155.1760    4.2740 C.3   102  ASN102      0.1181
    102  CG        -0.1500  155.4880    5.6850 C.2   102  ASN102      0.2629
    103  OD1       -0.7370  156.3050    6.3930 O.2   102  ASN102     -0.2716
    104  ND2        0.8970  154.8200    6.1450 N.am  102  ASN102     -0.0877
@<TRIPOS>BOND
     1   100    99    2
     2    99    98    1
     3    98   101    1
     4    98    97    1
     5   101   102    1
     6    91    90    2
     7    60    61    1
     8    97    90   am
     9    90    89    1
    10    61    64    1
    11    61    62    1
    12   102   104   am
    13   102   103    2
    14    64    65    1
    15    62    63    2
    16    88    89    1
    17    89    92    1
    18    67    66    1
    19     1     2    1
    20    65    66    1
    21    92    93    1
    22     2     5    1
    23     2     3    1
    24     5     6    1
    25     3     4    2
    26    93    94    1
    27    68    69    1
    28     6     7    2
    29     6     8   am
    30    69    70    1
    31    69    72    1
    32    94    95    1
    33    70    71    2
    34    72    73    1
    35    95    96    1
    36    74    73   ar
    37    74    76   ar
    38    73    75   ar
    39     9    10    1
    40    76    78   ar
    41    81    80    1
    42    81    82    1
    43    81    84    1
    44    75    77   ar
    45    82    83    2
    46    84    85    1
    47    10    11    1
    48    78    77   ar
    49    78    79    1
    50    12    11    2
    51    11    13   am
    52    85    86    1
    53    23    21    1
    54    87    86    1
    55    13    14    1
    56    21    22    1
    57    21    20    2
    58    20    19    1
    59    16    15    2
    60    14    15    1
    61    14    17    1
    62    19    18    1
    63    30    28    1
    64    15    24   am
    65    44    45    1
    66    44    43    1
    67    47    45   am
    68    45    46    2
    69    17    18    1
    70    24    25    1
    71    43    40    1
    72    28    29    1
    73    28    25    1
    74    25    26    1
    75    58    56    1
    76    40    39    1
    77    40    41    1
    78    26    27    2
    79    26    31   am
    80    59    57    1
    81    56    57    1
    82    56    53    1
    83    42    41    2
    84    41    48   am
    85    48    49    1
    86    53    52    1
    87    53    54    1
    88    31    32    1
    89    49    50    1
    90    55    54    2
    91    32    33    1
    92    32    35    1
    93    33    34    2
    94    50    51    2
    95    37    35    1
    96    35    36    1
    97    36    38    1
