@<TRIPOS>MOLECULE
tmp/5t5iH01.pdb
 210 203 0 0 0
SMALL
GASTEIGER

@<TRIPOS>ATOM
      1  N        -12.9900  205.0600  -28.3560 N.3    11  PHE11      -0.1241
      2  CA       -13.2000  204.2620  -27.1300 C.3    11  PHE11       0.1605
      3  C        -11.9990  204.3360  -26.1790 C.2    11  PHE11       0.2264
      4  O        -12.1180  205.0480  -25.1850 O.2    11  PHE11      -0.2867
      5  CB       -13.6390  202.8120  -27.3970 C.3    11  PHE11       0.0534
      6  CG       -13.9440  202.0940  -26.0990 C.ar   11  PHE11      -0.0203
      7  CD1      -15.1160  202.3630  -25.3950 C.ar   11  PHE11      -0.0042
      8  CD2      -12.9830  201.2970  -25.4860 C.ar   11  PHE11      -0.0042
      9  CE1      -15.3310  201.8120  -24.1270 C.ar   11  PHE11      -0.0003
     10  CE2      -13.1900  200.7800  -24.2080 C.ar   11  PHE11      -0.0003
     11  CZ       -14.3820  201.0040  -23.5600 C.ar   11  PHE11      -0.0000
     12  N        -19.1390  200.3220  -29.9620 N.3    41  LYS41      -0.1245
     13  CA       -19.4190  201.7560  -29.8690 C.3    41  LYS41       0.1561
     14  C        -19.9490  202.2860  -31.1920 C.2    41  LYS41       0.2260
     15  O        -20.9160  203.0430  -31.2080 O.2    41  LYS41      -0.2867
     16  CB       -18.1980  202.5780  -29.4350 C.3    41  LYS41       0.0271
     17  CG       -18.6080  204.0670  -29.2960 C.3    41  LYS41       0.0035
     18  CD       -17.7250  204.8780  -28.4660 C.3    41  LYS41       0.0206
     19  CE       -18.2510  206.2940  -28.3860 C.3    41  LYS41       0.1093
     20  NZ       -17.4300  207.1160  -27.4860 N.3    41  LYS41      -0.1314
     21  N        -17.8430  217.6800  -13.9090 N.3    87  TYR87      -0.1241
     22  CA       -17.0730  216.4400  -14.0350 C.3    87  TYR87       0.1605
     23  C        -17.3060  215.5940  -15.2970 C.2    87  TYR87       0.2264
     24  O        -18.4160  215.5180  -15.7810 O.2    87  TYR87      -0.2867
     25  CB       -17.3730  215.5650  -12.7850 C.3    87  TYR87       0.0534
     26  CG       -16.7990  214.1630  -12.8350 C.ar   87  TYR87      -0.0201
     27  CD1      -15.4540  213.9300  -12.5600 C.ar   87  TYR87      -0.0009
     28  CD2      -17.5630  213.0930  -13.2950 C.ar   87  TYR87      -0.0009
     29  CE1      -14.8930  212.6610  -12.7080 C.ar   87  TYR87       0.0417
     30  CE2      -17.0220  211.8120  -13.4090 C.ar   87  TYR87       0.0417
     31  CZ       -15.6770  211.6060  -13.1480 C.ar   87  TYR87       0.1957
     32  OH       -15.1330  210.3550  -13.2970 O.3    87  TYR87      -0.2866
     33  N        -14.7340  211.5010  -22.6740 N.3    91  CYS91      -0.1235
     34  CA       -15.3150  210.9560  -23.8920 C.3    91  CYS91       0.1677
     35  C        -15.9150  212.0400  -24.8040 C.2    91  CYS91       0.2270
     36  O        -16.8280  211.7530  -25.5620 O.2    91  CYS91      -0.2867
     37  CB       -16.3050  209.8310  -23.5980 C.3    91  CYS91       0.0956
     38  SG       -15.5110  208.2930  -23.0640 S.3    91  CYS91      -0.0801
     39  N        -12.0770  212.2390  -15.4950 N.3   114  THR114     -0.1218
     40  CA       -11.9460  210.8500  -15.0220 C.3   114  THR114      0.1862
     41  C        -10.5470  210.4980  -14.4950 C.2   114  THR114      0.2287
     42  O        -10.4340  209.4700  -13.8350 O.2   114  THR114     -0.2866
     43  CB       -12.3820  209.8230  -16.0780 C.3   114  THR114      0.1770
     44  OG1      -11.4670  209.8490  -17.1660 O.3   114  THR114     -0.2211
     45  CG2      -13.7970  210.0390  -16.5780 C.3   114  THR114      0.0375
     46  N        -10.3580  209.2430  -10.8960 N.3   117  VAL117     -0.1231
     47  CA       -10.6820  207.8440  -10.5550 C.3   117  VAL117      0.1692
     48  C         -9.7770  206.8770  -11.3430 C.2   117  VAL117      0.2592
     49  O         -9.9920  205.6760  -11.2640 O.2   117  VAL117     -0.2718
     50  CB       -12.1890  207.5150  -10.7790 C.3   117  VAL117      0.0266
     51  CG1      -13.0650  208.2880   -9.8060 C.3   117  VAL117      0.0020
     52  CG2      -12.6390  207.7210  -12.2340 C.3   117  VAL117      0.0020
     53  N         -8.7190  207.3890  -12.0300 N.am  118  CYS118     -0.1970
     54  CA        -7.9190  206.6090  -12.9510 C.3   118  CYS118      0.1712
     55  C         -6.3880  206.7670  -12.8220 C.2   118  CYS118      0.2296
     56  O         -5.7920  206.1600  -11.9150 O.2   118  CYS118     -0.2864
     57  CB        -8.3770  206.9320  -14.3670 C.3   118  CYS118      0.0983
     58  SG        -7.5820  205.9080  -15.6160 S.3   118  CYS118     -0.0798
     59  N         -4.3310  200.2500  -13.8400 N.3   254  MET254     -0.1245
     60  CA        -5.1380  200.3690  -12.6430 C.3   254  MET254      0.1570
     61  C         -4.7300  199.4520  -11.5150 C.2   254  MET254      0.2261
     62  O         -5.0140  199.7810  -10.3700 O.2   254  MET254     -0.2867
     63  CB        -6.6410  200.2070  -12.9440 C.3   254  MET254      0.0387
     64  CG        -7.1960  201.2320  -13.9220 C.3   254  MET254      0.0595
     65  SD        -7.0320  202.9570  -13.4250 S.3   254  MET254     -0.1393
     66  CE        -5.6110  203.4280  -14.3240 C.3   254  MET254      0.0692
     67  N         -5.0630  202.0440   -8.4130 N.3   258  HIS258     -0.1241
     68  CA        -6.1880  201.8100   -7.4970 C.3   258  HIS258      0.1621
     69  C         -5.8120  201.0630   -6.2090 C.2   258  HIS258      0.2264
     70  O         -6.5460  201.1350   -5.2230 O.2   258  HIS258     -0.2867
     71  CB        -7.2940  200.9910   -8.1850 C.3   258  HIS258      0.0745
     72  CG        -8.0160  201.6740   -9.2920 C.ar  258  HIS258      0.0817
     73  ND1       -8.8460  200.9560  -10.1500 N.ar  258  HIS258     -0.2268
     74  CD2       -8.0690  202.9880   -9.6270 C.ar  258  HIS258      0.1154
     75  CE1       -9.3510  201.8500  -10.9850 C.ar  258  HIS258      0.1986
     76  NE2       -8.9360  203.0880  -10.6920 N.ar  258  HIS258     -0.2212
     77  N         -6.8670  205.4860  -20.1050 N.3   289  GLY289     -0.1210
     78  CA        -8.1350  204.8030  -20.3140 C.3   289  GLY289      0.1956
     79  C         -9.0350  205.1830  -21.4630 C.2   289  GLY289      0.2612
     80  O         -9.1150  204.4500  -22.4520 O.2   289  GLY289     -0.2717
     81  N         -9.7870  206.2750  -21.3010 N.am  290  HIS290     -0.1961
     82  CA       -10.6620  206.7530  -22.3780 C.3   290  HIS290      0.1787
     83  C         -9.8210  207.3570  -23.5220 C.2   290  HIS290      0.2620
     84  O         -8.6840  207.7890  -23.3110 O.2   290  HIS290     -0.2715
     85  CB       -11.6970  207.7720  -21.8660 C.3   290  HIS290      0.0785
     86  CG       -12.5850  207.2160  -20.7930 C.ar  290  HIS290      0.0821
     87  ND1      -13.4530  206.1750  -21.0470 N.ar  290  HIS290     -0.2267
     88  CD2      -12.7270  207.5920  -19.5060 C.ar  290  HIS290      0.1154
     89  CE1      -14.0910  205.9460  -19.9150 C.ar  290  HIS290      0.1986
     90  NE2      -13.6330  206.7230  -18.9370 N.ar  290  HIS290     -0.2212
     91  N        -10.3800  207.3400  -24.7370 N.am  291  TYR291     -0.1974
     92  CA        -9.7410  207.8760  -25.9440 C.3   291  TYR291      0.1639
     93  C         -9.3470  209.3640  -25.8080 C.2   291  TYR291      0.2290
     94  O         -8.4270  209.7950  -26.4870 O.2   291  TYR291     -0.2864
     95  CB       -10.6350  207.6480  -27.1800 C.3   291  TYR291      0.0560
     96  CG       -11.7660  208.6430  -27.3240 C.ar  291  TYR291     -0.0198
     97  CD1      -12.9940  208.4240  -26.7150 C.ar  291  TYR291     -0.0009
     98  CD2      -11.6290  209.7680  -28.1270 C.ar  291  TYR291     -0.0009
     99  CE1      -14.0470  209.3210  -26.8660 C.ar  291  TYR291      0.0417
    100  CE2      -12.6790  210.6710  -28.2960 C.ar  291  TYR291      0.0417
    101  CZ       -13.8880  210.4430  -27.6680 C.ar  291  TYR291      0.1957
    102  OH       -14.9160  211.3370  -27.8130 O.3   291  TYR291     -0.2866
    103  N        -20.5850  215.4700  -17.8740 N.3   341  ILE341     -0.1231
    104  CA       -20.4640  215.4540  -19.3230 C.3   341  ILE341      0.1692
    105  C        -19.5910  214.3070  -19.7450 C.2   341  ILE341      0.2592
    106  O        -18.4740  214.1540  -19.2400 O.2   341  ILE341     -0.2718
    107  CB       -19.9870  216.8110  -19.9090 C.3   341  ILE341      0.0266
    108  CG1      -19.8690  216.7200  -21.4480 C.3   341  ILE341      0.0019
    109  CG2      -18.6780  217.2830  -19.2900 C.3   341  ILE341      0.0020
    110  CD1      -19.8200  217.9760  -22.1020 C.3   341  ILE341      0.0001
    111  N        -20.1100  213.4820  -20.6510 N.am  342  ALA342     -0.1966
    112  CA       -19.3780  212.3840  -21.2910 C.3   342  ALA342      0.1728
    113  C        -18.6730  211.4440  -20.3030 C.2   342  ALA342      0.2617
    114  O        -17.5040  211.0950  -20.4750 O.2   342  ALA342     -0.2715
    115  CB       -18.3720  212.9680  -22.2820 C.3   342  ALA342      0.0334
    116  N        -19.4070  211.0530  -19.2630 N.am  343  SER343     -0.1936
    117  CA       -18.9180  210.1800  -18.1990 C.3   343  SER343      0.2055
    118  C        -20.1170  209.5730  -17.4640 C.2   343  SER343      0.2643
    119  O        -21.2510  210.0440  -17.6290 O.2   343  SER343     -0.2714
    120  CB       -18.0280  210.9510  -17.2270 C.3   343  SER343      0.2130
    121  OG       -17.3480  210.0860  -16.3330 O.3   343  SER343     -0.2179
    122  N        -19.8660  208.5350  -16.6630 N.am  344  ASP344     -0.1971
    123  CA       -20.9230  207.8300  -15.9610 C.3   344  ASP344      0.1709
    124  C        -20.5570  207.5750  -14.4690 C.2   344  ASP344      0.2293
    125  O        -20.3870  206.4310  -14.0500 O.2   344  ASP344     -0.2864
    126  CB       -21.2900  206.5410  -16.7110 C.3   344  ASP344      0.1436
    127  CG       -22.5850  205.8660  -16.2730 C.2   344  ASP344      0.3671
    128  OD1      -23.2540  206.3740  -15.3240 O.co2 344  ASP344     -0.2456
    129  OD2      -22.9210  204.8240  -16.8420 O.co2 344  ASP344     -0.2456
    130  N        -19.8770  204.2480  -11.9510 N.3   348  HIS348     -0.1241
    131  CA       -18.4700  204.0930  -11.6980 C.3   348  HIS348      0.1621
    132  C        -17.8990  204.8480  -10.4930 C.2   348  HIS348      0.2264
    133  O        -16.7000  204.7480  -10.2480 O.2   348  HIS348     -0.2867
    134  CB       -17.7800  204.4530  -13.0180 C.3   348  HIS348      0.0745
    135  CG       -18.1120  203.4430  -14.0880 C.ar  348  HIS348      0.0817
    136  ND1      -18.4980  203.8270  -15.3540 N.ar  348  HIS348     -0.2268
    137  CD2      -18.1900  202.0890  -14.0040 C.ar  348  HIS348      0.1154
    138  CE1      -18.7470  202.6970  -16.0150 C.ar  348  HIS348      0.1986
    139  NE2      -18.5740  201.6300  -15.2360 N.ar  348  HIS348     -0.2212
    140  N        -25.0050  215.6090  -19.5500 N.3   365  ILE365     -0.1231
    141  CA       -24.8860  215.8250  -21.0020 C.3   365  ILE365      0.1692
    142  C        -24.4490  214.4640  -21.5090 C.2   365  ILE365      0.2592
    143  O        -23.2760  214.0920  -21.4110 O.2   365  ILE365     -0.2718
    144  CB       -23.9220  216.9710  -21.3700 C.3   365  ILE365      0.0266
    145  CG1      -24.3860  218.2950  -20.7010 C.3   365  ILE365      0.0019
    146  CG2      -23.8500  217.1190  -22.9060 C.3   365  ILE365      0.0020
    147  CD1      -23.4350  219.4340  -20.8280 C.3   365  ILE365      0.0001
    148  N        -25.4270  213.6750  -21.9210 N.am  366  GLU366     -0.1966
    149  CA       -25.2460  212.2640  -22.2090 C.3   366  GLU366      0.1718
    150  C        -26.2100  211.7620  -23.3130 C.2   366  GLU366      0.2458
    151  O        -27.4210  211.9940  -23.2010 O.2   366  GLU366     -0.2730
    152  CB       -25.5260  211.5430  -20.8670 C.3   366  GLU366      0.0428
    153  CG       -25.7680  210.0510  -20.8920 C.3   366  GLU366      0.1163
    154  CD       -24.5990  209.2160  -21.3400 C.2   366  GLU366      0.3649
    155  OE1      -23.5280  209.2950  -20.6960 O.co2 366  GLU366     -0.2457
    156  OE2      -24.7630  208.4580  -22.3210 O.co2 366  GLU366     -0.2457
    157  N        -25.7100  210.9550  -24.2820 N.am  367  PRO367     -0.2716
    158  CA       -26.5940  210.4510  -25.3520 C.3   367  PRO367      0.1536
    159  C        -27.4450  209.2160  -25.0150 C.2   367  PRO367      0.2598
    160  O        -28.4370  208.9730  -25.7000 O.2   367  PRO367     -0.2715
    161  CB       -25.6070  210.0950  -26.4740 C.3   367  PRO367      0.0310
    162  CG       -24.3390  209.7250  -25.7540 C.3   367  PRO367      0.0237
    163  CD       -24.2880  210.6600  -24.5860 C.3   367  PRO367      0.0939
    164  N        -27.0090  208.3820  -24.0460 N.am  368  HIS368     -0.1974
    165  CA       -27.6450  207.0940  -23.7390 C.3   368  HIS368      0.1656
    166  C        -28.1770  206.9890  -22.3050 C.2   368  HIS368      0.2291
    167  O        -27.8330  207.7990  -21.4490 O.2   368  HIS368     -0.2864
    168  CB       -26.6220  205.9800  -23.9800 C.3   368  HIS368      0.0771
    169  CG       -26.0710  205.9480  -25.3680 C.ar  368  HIS368      0.0820
    170  ND1      -26.8860  205.7120  -26.4690 N.ar  368  HIS368     -0.2267
    171  CD2      -24.7930  206.0440  -25.7950 C.ar  368  HIS368      0.1154
    172  CE1      -26.0890  205.7200  -27.5230 C.ar  368  HIS368      0.1986
    173  NE2      -24.8240  205.9400  -27.1710 N.ar  368  HIS368     -0.2212
    174  N        -28.1870  205.5780  -18.7070 N.3   370  THR370     -0.1218
    175  CA       -27.1630  205.0460  -17.8230 C.3   370  THR370      0.1862
    176  C        -27.5700  205.1890  -16.3390 C.2   370  THR370      0.2287
    177  O        -28.4670  205.9710  -16.0180 O.2   370  THR370     -0.2866
    178  CB       -25.8790  205.9040  -18.0070 C.3   370  THR370      0.1770
    179  OG1      -26.1490  207.2560  -17.5850 O.3   370  THR370     -0.2211
    180  CG2      -25.3270  205.8880  -19.4220 C.3   370  THR370      0.0375
    181  N        -26.2580  214.8780  -26.7440 N.3   382  PRO382     -0.2116
    182  CA       -25.4300  215.4560  -27.8230 C.3   382  PRO382      0.1372
    183  C        -25.1880  214.5060  -29.0160 C.2   382  PRO382      0.2244
    184  O        -25.4370  213.2960  -28.9200 O.2   382  PRO382     -0.2868
    185  CB       -24.0940  215.6360  -27.1050 C.3   382  PRO382      0.0268
    186  CG       -24.0020  214.3750  -26.2540 C.3   382  PRO382      0.0207
    187  CD       -25.4340  213.9740  -25.9120 C.3   382  PRO382      0.0892
    188  N        -22.4530  212.3890  -31.0720 N.3   384  ILE384     -0.1231
    189  CA       -21.2980  211.6300  -30.5480 C.3   384  ILE384      0.1692
    190  C        -19.9920  211.9030  -31.3020 C.2   384  ILE384      0.2591
    191  O        -19.9160  211.6800  -32.5160 O.2   384  ILE384     -0.2718
    192  CB       -21.6510  210.1100  -30.5100 C.3   384  ILE384      0.0266
    193  CG1      -22.8770  209.8920  -29.5710 C.3   384  ILE384      0.0019
    194  CG2      -20.4370  209.2480  -30.0370 C.3   384  ILE384      0.0020
    195  CD1      -23.4080  208.4930  -29.5830 C.3   384  ILE384      0.0001
    196  N        -18.9490  212.2890  -30.5700 N.am  385  VAL385     -0.1980
    197  CA       -17.6160  212.5540  -31.1350 C.3   385  VAL385      0.1595
    198  C        -17.0240  211.2600  -31.7460 C.2   385  VAL385      0.2287
    199  O        -17.0870  210.1930  -31.1240 O.2   385  VAL385     -0.2864
    200  CB       -16.6550  213.1500  -30.0790 C.3   385  VAL385      0.0276
    201  CG1      -15.2000  213.1920  -30.5870 C.3   385  VAL385      0.0022
    202  CG2      -17.1100  214.5460  -29.6550 C.3   385  VAL385      0.0022
    203  N        -21.5230  218.6290  -28.1960 N.3   414  ASP414     -0.1239
    204  CA       -21.1820  219.0300  -26.8170 C.3   414  ASP414      0.1674
    205  C        -20.6800  220.4830  -26.7820 C.2   414  ASP414      0.2266
    206  O        -21.0260  221.2350  -25.8630 O.2   414  ASP414     -0.2867
    207  CB       -20.0500  218.1660  -26.2720 C.3   414  ASP414      0.1410
    208  CG       -20.4610  216.7560  -25.9890 C.2   414  ASP414      0.3668
    209  OD1      -21.5010  216.5730  -25.3250 O.co2 414  ASP414     -0.2456
    210  OD2      -19.7370  215.8240  -26.4340 O.co2 414  ASP414     -0.2456
@<TRIPOS>BOND
     1   191   190    2
     2   198   197    1
     3   198   199    2
     4   190   196   am
     5   190   189    1
     6    15    14    2
     7    14    13    1
     8   197   196    1
     9   197   200    1
    10   188   189    1
    11   201   200    1
    12   189   192    1
    13   192   194    1
    14   192   193    1
    15   200   202    1
    16    12    13    1
    17    13    16    1
    18   195   193    1
    19    16    17    1
    20    17    18    1
    21   183   184    2
    22   183   182    1
    23    18    19    1
    24    19    20    1
    25     1     2    1
    26   100    98   ar
    27   100   101   ar
    28   203   204    1
    29    98    96   ar
    30   182   185    1
    31   182   181    1
    32   102   101    1
    33   101    99   ar
    34   172   173   ar
    35   172   170   ar
    36     5     2    1
    37     5     6    1
    38    96    95    1
    39    96    97   ar
    40    95    92    1
    41   173   171   ar
    42     2     3    1
    43   185   186    1
    44    99    97   ar
    45   204   205    1
    46   204   207    1
    47   205   206    2
    48   181   187    1
    49    94    93    2
    50   161   162    1
    51   161   158    1
    52   170   169   ar
    53   210   208   ar
    54   207   208    1
    55   186   187    1
    56     3     4    2
    57     6     8   ar
    58     6     7   ar
    59   208   209   ar
    60    92    93    1
    61    92    91    1
    62   171   169   ar
    63   162   163    1
    64   160   159    2
    65    36    35    2
    66     8    10   ar
    67     7     9   ar
    68   169   168    1
    69   158   159    1
    70   158   157    1
    71   159   164   am
    72    35    34    1
    73    91    83   am
    74   163   157    1
    75   157   150   am
    76    10    11   ar
    77     9    11   ar
    78   164   165    1
    79   168   165    1
    80    34    37    1
    81    34    33    1
    82   165   166    1
    83    37    38    1
    84    83    84    2
    85    83    82    1
    86   150   151    2
    87   150   149    1
    88   146   144    1
    89    80    79    2
    90    82    85    1
    91    82    81    1
    92   156   154   ar
    93   166   167    2
    94   115   112    1
    95   149   148    1
    96   149   152    1
    97   110   108    1
    98   148   142   am
    99    85    86    1
   100   142   143    2
   101   142   141    1
   102    79    81   am
   103    79    78    1
   104   108   107    1
   105   144   141    1
   106   144   145    1
   107   154   153    1
   108   154   155   ar
   109   112   111    1
   110   112   113    1
   111    87    86   ar
   112    87    89   ar
   113   141   140    1
   114   153   152    1
   115   147   145    1
   116    86    88   ar
   117   111   105   am
   118   114   113    2
   119    78    77    1
   120   113   116   am
   121    89    90   ar
   122   107   104    1
   123   107   109    1
   124   105   104    1
   125   105   106    2
   126    88    90   ar
   127   180   178    1
   128   104   103    1
   129   116   117    1
   130   174   175    1
   131   117   118    1
   132   117   120    1
   133   178   175    1
   134   178   179    1
   135   175   176    1
   136   119   118    2
   137   118   122   am
   138   120   121    1
   139    44    43    1
   140   129   127   ar
   141   126   127    1
   142   126   123    1
   143   122   123    1
   144    45    43    1
   145   176   177    2
   146   127   128   ar
   147    43    40    1
   148   138   136   ar
   149   138   139   ar
   150   123   124    1
   151    24    23    2
   152    58    57    1
   153    39    40    1
   154   136   135   ar
   155    23    22    1
   156   139   137   ar
   157    40    41    1
   158    41    42    2
   159   124   125    2
   160    57    54    1
   161    66    65    1
   162   135   137   ar
   163   135   134    1
   164    22    21    1
   165    22    25    1
   166    64    65    1
   167    64    63    1
   168    59    60    1
   169    30    28   ar
   170    30    31   ar
   171    32    31    1
   172    28    26   ar
   173    31    29   ar
   174   134   131    1
   175    54    55    1
   176    54    53    1
   177    63    60    1
   178    26    25    1
   179    26    27   ar
   180    55    56    2
   181    29    27   ar
   182    60    61    1
   183    52    50    1
   184    53    48   am
   185   130   131    1
   186   131   132    1
   187    61    62    2
   188    48    49    2
   189    48    47    1
   190    75    76   ar
   191    75    73   ar
   192    46    47    1
   193    50    47    1
   194    50    51    1
   195    76    74   ar
   196   132   133    2
   197    73    72   ar
   198    74    72   ar
   199    72    71    1
   200    67    68    1
   201    71    68    1
   202    68    69    1
   203    69    70    2
