@<TRIPOS>MOLECULE
tmp/5t5iD00.pdb
 97 91 0 0 0
SMALL
GASTEIGER

@<TRIPOS>ATOM
      1  N         -5.3870  155.0400    9.6010 N.3     7  THR7       -0.1203
      2  CA        -6.3570  154.5030   10.5680 C.3     7  THR7        0.1994
      3  C         -5.6250  153.8540   11.7360 C.2     7  THR7        0.2618
      4  O         -4.4850  153.4240   11.5930 O.2     7  THR7       -0.2717
      5  CB        -7.3470  153.5110    9.9190 C.3     7  THR7        0.1784
      6  OG1       -6.6900  152.2600    9.7090 O.3     7  THR7       -0.2211
      7  CG2       -7.9850  154.0360    8.6230 C.3     7  THR7        0.0376
      8  N         -6.2950  153.7620   12.8700 N.am    8  GLY8       -0.1942
      9  CA        -5.7080  153.1670   14.0660 C.3     8  GLY8        0.2014
     10  C         -6.4730  153.4630   15.3510 C.2     8  GLY8        0.2638
     11  O         -7.6820  153.7180   15.3270 O.2     8  GLY8       -0.2714
     12  N         -5.7580  153.4430   16.4850 N.am    9  ARG9       -0.1977
     13  CA        -6.3820  153.6010   17.7970 C.3     9  ARG9        0.1597
     14  C         -6.5750  155.0470   18.2060 C.2     9  ARG9        0.2287
     15  O         -5.8330  155.9330   17.7770 O.2     9  ARG9       -0.2864
     16  CB        -5.5350  152.9110   18.9040 C.3     9  ARG9        0.0334
     17  CG        -5.6290  151.3850   18.9330 C.3     9  ARG9        0.0492
     18  CD        -4.8750  150.6960   17.8170 C.3     9  ARG9        0.2205
     19  NE        -5.2460  149.2840   17.7640 N.pl3   9  ARG9       -0.0865
     20  CZ        -5.0790  148.4740   16.7240 C.cat   9  ARG9        0.5346
     21  NH1       -5.5190  147.2300   16.7750 N.pl3   9  ARG9        0.1354
     22  NH2       -4.4920  148.9120   15.6130 N.pl3   9  ARG9        0.1354
     23  N        -15.2000  150.5100   22.5510 N.3    17  ILE17      -0.1231
     24  CA       -15.2920  149.0630   22.2540 C.3    17  ILE17       0.1692
     25  C        -15.4920  148.2440   23.5350 C.2    17  ILE17       0.2591
     26  O        -16.2340  147.2610   23.5240 O.2    17  ILE17      -0.2718
     27  CB       -14.1480  148.4980   21.3760 C.3    17  ILE17       0.0266
     28  CG1      -12.7680  148.5270   22.0740 C.3    17  ILE17       0.0019
     29  CG2      -14.1230  149.2130   20.0270 C.3    17  ILE17       0.0020
     30  CD1      -11.6570  147.7960   21.3050 C.3    17  ILE17       0.0001
     31  N        -14.8580  148.6580   24.6360 N.am   18  GLU18      -0.1979
     32  CA       -15.0220  147.9650   25.9060 C.3    18  GLU18       0.1602
     33  C        -16.3400  148.3140   26.6070 C.2    18  GLU18       0.2287
     34  O        -16.8180  147.5040   27.3850 O.2    18  GLU18      -0.2864
     35  CB       -13.7990  148.1820   26.8100 C.3    18  GLU18       0.0415
     36  CG       -12.5270  147.6090   26.1960 C.3    18  GLU18       0.1163
     37  CD       -12.6630  146.1730   25.7290 C.2    18  GLU18       0.3649
     38  OE1      -13.1190  145.3350   26.5350 O.co2  18  GLU18      -0.2457
     39  OE2      -12.4450  145.9110   24.5270 O.co2  18  GLU18      -0.2457
     40  N        -20.0270  148.1110   21.5680 N.3    21  LYS21      -0.1245
     41  CA       -20.0720  148.4700   20.1460 C.3    21  LYS21       0.1561
     42  C        -21.5060  148.7060   19.6230 C.2    21  LYS21       0.2260
     43  O        -21.6730  149.1570   18.4870 O.2    21  LYS21      -0.2867
     44  CB       -19.3550  147.4180   19.2970 C.3    21  LYS21       0.0271
     45  CG       -17.8550  147.3280   19.5480 C.3    21  LYS21       0.0035
     46  CD       -17.1960  146.5380   18.4390 C.3    21  LYS21       0.0206
     47  CE       -15.7590  146.1140   18.7120 C.3    21  LYS21       0.1093
     48  NZ       -15.6470  144.7950   19.4190 N.3    21  LYS21      -0.1314
     49  N         -9.9410  152.9350   13.7780 N.3    80  MET80      -0.1245
     50  CA       -10.2450  151.5490   13.4070 C.3    80  MET80       0.1570
     51  C        -11.6830  151.2010   13.8060 C.2    80  MET80       0.2261
     52  O        -12.1690  151.6320   14.8520 O.2    80  MET80      -0.2867
     53  CB        -9.2690  150.5600   14.0640 C.3    80  MET80       0.0387
     54  CG        -9.3180  150.5550   15.6050 C.3    80  MET80       0.0595
     55  SD        -8.0990  149.4290   16.2960 S.3    80  MET80      -0.1393
     56  CE        -9.0380  147.8940   16.2720 C.3    80  MET80       0.0692
     57  N        -14.1250  152.7340    8.9460 N.3    84  ALA84      -0.1231
     58  CA       -12.8010  152.7520    8.3020 C.3    84  ALA84       0.1694
     59  C        -12.6330  151.5620    7.3170 C.2    84  ALA84       0.2592
     60  O        -12.1520  151.7250    6.1870 O.2    84  ALA84      -0.2718
     61  CB       -11.7080  152.6670    9.3530 C.3    84  ALA84       0.0304
     62  N        -13.0970  150.3850    7.7430 N.am   85  ASN85      -0.1974
     63  CA       -12.9420  149.1530    6.9680 C.3    85  ASN85       0.1688
     64  C        -13.8770  149.0120    5.7640 C.2    85  ASN85       0.2292
     65  O        -13.6890  148.0780    4.9840 O.2    85  ASN85      -0.2864
     66  CB       -13.0040  147.9510    7.8960 C.3    85  ASN85       0.1181
     67  CG       -11.7180  147.8780    8.6840 C.2    85  ASN85       0.2629
     68  OD1      -10.6550  148.2200    8.1770 O.2    85  ASN85      -0.2716
     69  ND2      -11.7710  147.5690    9.9520 N.am   85  ASN85      -0.0877
     70  N        -10.6060  150.9740    3.3370 N.3    88  ILE88      -0.1245
     71  CA        -9.1570  150.6930    3.2580 C.3    88  ILE88       0.1561
     72  C         -8.8850  149.4940    2.3010 C.2    88  ILE88       0.2260
     73  O         -9.8200  148.8680    1.7900 O.2    88  ILE88      -0.2867
     74  CB        -8.4410  150.5960    4.6570 C.3    88  ILE88       0.0252
     75  CG1       -9.0460  149.5700    5.6190 C.3    88  ILE88       0.0019
     76  CG2       -8.4240  151.9780    5.3140 C.3    88  ILE88       0.0019
     77  CD1       -9.0550  148.1040    5.1870 C.3    88  ILE88       0.0001
     78  N         -4.2910  148.3190    6.0960 N.3   100  PHE100     -0.1227
     79  CA        -5.1850  149.1680    6.8960 C.3   100  PHE100      0.1736
     80  C         -4.7800  150.6370    6.9370 C.2   100  PHE100      0.2595
     81  O         -5.6060  151.4520    7.3330 O.2   100  PHE100     -0.2718
     82  CB        -5.2810  148.6620    8.3500 C.3   100  PHE100      0.0547
     83  CG        -5.8690  147.2860    8.5340 C.ar  100  PHE100     -0.0202
     84  CD1       -7.2260  147.0590    8.3380 C.ar  100  PHE100     -0.0042
     85  CD2       -5.0750  146.2230    8.9170 C.ar  100  PHE100     -0.0042
     86  CE1       -7.7810  145.8120    8.5780 C.ar  100  PHE100     -0.0003
     87  CE2       -5.6340  144.9800    9.1990 C.ar  100  PHE100     -0.0003
     88  CZ        -6.9810  144.7710    8.9900 C.ar  100  PHE100     -0.0000
     89  N         -3.5140  150.9720    6.6220 N.am  101  LYS101     -0.1980
     90  CA        -2.9870  152.3360    6.7410 C.3   101  LYS101      0.1596
     91  C         -2.4150  152.9280    5.4390 C.2   101  LYS101      0.2287
     92  O         -1.7170  152.2450    4.6950 O.2   101  LYS101     -0.2864
     93  CB        -1.8820  152.3610    7.8130 C.3   101  LYS101      0.0298
     94  CG        -2.3710  152.0290    9.2390 C.3   101  LYS101      0.0038
     95  CD        -1.2310  152.0530   10.2430 C.3   101  LYS101      0.0206
     96  CE        -1.6140  152.1100   11.7090 C.3   101  LYS101      0.1093
     97  NZ        -2.7330  151.1860   12.0540 N.3   101  LYS101     -0.1314
@<TRIPOS>BOND
     1    73    72    2
     2    72    71    1
     3    71    70    1
     4    71    74    1
     5    74    76    1
     6    74    75    1
     7    92    91    2
     8    65    64    2
     9    77    75    1
    10    91    90    1
    11    64    63    1
    12    78    79    1
    13    60    59    2
    14    89    90    1
    15    89    80   am
    16    90    93    1
    17    79    80    1
    18    79    82    1
    19    80    81    2
    20    63    62    1
    21    63    66    1
    22    59    62   am
    23    59    58    1
    24    93    94    1
    25    66    67    1
    26    68    67    2
    27    58    57    1
    28    58    61    1
    29    84    83   ar
    30    84    86   ar
    31    82    83    1
    32    83    85   ar
    33    86    88   ar
    34     7     5    1
    35    67    69   am
    36    85    87   ar
    37    88    87   ar
    38    94    95    1
    39     1     2    1
    40     6     5    1
    41     5     2    1
    42    95    96    1
    43     2     3    1
    44     4     3    2
    45    96    97    1
    46     3     8   am
    47     8     9    1
    48    50    49    1
    49    50    51    1
    50    50    53    1
    51    51    52    2
    52    53    54    1
    53     9    10    1
    54    11    10    2
    55    10    12   am
    56    54    55    1
    57    22    20    1
    58    56    55    1
    59    12    13    1
    60    20    21    1
    61    20    19    2
    62    19    18    1
    63    15    14    2
    64    13    14    1
    65    13    16    1
    66    18    17    1
    67    46    47    1
    68    46    45    1
    69    43    42    2
    70    47    48    1
    71    16    17    1
    72    44    45    1
    73    44    41    1
    74    42    41    1
    75    29    27    1
    76    41    40    1
    77    30    28    1
    78    27    28    1
    79    27    24    1
    80    24    23    1
    81    24    25    1
    82    26    25    2
    83    25    31   am
    84    39    37   ar
    85    31    32    1
    86    37    36    1
    87    37    38   ar
    88    32    33    1
    89    32    35    1
    90    36    35    1
    91    33    34    2
