@<TRIPOS>MOLECULE
tmp/5t5oM00.pdb
 96 96 0 0 0
SMALL
GASTEIGER

@<TRIPOS>ATOM
      1  N         39.7880   59.8270   93.9900 N.3    43  GLN43      -0.1245
      2  CA        41.1870   59.6620   94.4220 C.3    43  GLN43       0.1566
      3  C         41.5400   60.2970   95.7700 C.2    43  GLN43       0.2260
      4  O         42.4580   61.1250   95.8830 O.2    43  GLN43      -0.2867
      5  CB        42.1220   60.1720   93.3420 C.3    43  GLN43       0.0367
      6  CG        41.9400   59.4700   92.0210 C.3    43  GLN43       0.0905
      7  CD        42.9860   59.8960   91.0230 C.2    43  GLN43       0.2608
      8  OE1       43.8050   59.1130   90.6280 O.2    43  GLN43      -0.2717
      9  NE2       42.9950   61.1570   90.6620 N.am   43  GLN43      -0.0878
     10  N         48.2470   55.3220   99.9540 N.3    93  ARG93      -0.1231
     11  CA        47.6490   55.6700   98.6590 C.3    93  ARG93       0.1694
     12  C         46.1150   55.3870   98.5740 C.2    93  ARG93       0.2592
     13  O         45.6130   54.3610   99.0530 O.2    93  ARG93      -0.2718
     14  CB        48.3930   54.9850   97.4870 C.3    93  ARG93       0.0321
     15  CG        48.0110   55.5000   96.0870 C.3    93  ARG93       0.0489
     16  CD        48.4000   56.9740   95.9250 C.3    93  ARG93       0.2205
     17  NE        49.8670   57.1370   96.0010 N.pl3  93  ARG93      -0.0865
     18  CZ        50.6990   56.9770   94.9720 C.cat  93  ARG93       0.5346
     19  NH1       50.2390   56.6570   93.7710 N.pl3  93  ARG93       0.1354
     20  NH2       51.9900   57.1300   95.1230 N.pl3  93  ARG93       0.1354
     21  N         45.4080   56.3550   97.9990 N.am   94  TYR94      -0.1976
     22  CA        44.0270   56.2160   97.5240 C.3    94  TYR94       0.1639
     23  C         43.8510   55.1040   96.4200 C.2    94  TYR94       0.2290
     24  O         44.7970   54.4500   95.9420 O.2    94  TYR94      -0.2864
     25  CB        43.5510   57.5990   96.9840 C.3    94  TYR94       0.0560
     26  CG        44.4740   58.1930   95.9010 C.ar   94  TYR94      -0.0198
     27  CD1       44.5530   57.6050   94.6120 C.ar   94  TYR94      -0.0009
     28  CD2       45.3110   59.2840   96.1720 C.ar   94  TYR94      -0.0009
     29  CE1       45.4110   58.1060   93.6420 C.ar   94  TYR94       0.0417
     30  CE2       46.1690   59.7650   95.2010 C.ar   94  TYR94       0.0417
     31  CZ        46.1970   59.1690   93.9450 C.ar   94  TYR94       0.1957
     32  OH        47.0220   59.6080   92.9810 O.3    94  TYR94      -0.2866
     33  N         44.4590   50.5990   96.7130 N.3    97  TYR97      -0.1241
     34  CA        45.3430   50.4410   97.8460 C.3    97  TYR97       0.1605
     35  C         44.6110   50.6880   99.1660 C.2    97  TYR97       0.2264
     36  O         45.1530   50.3990  100.2140 O.2    97  TYR97      -0.2867
     37  CB        46.5600   51.3550   97.6860 C.3    97  TYR97       0.0534
     38  CG        47.3030   51.0940   96.3910 C.ar   97  TYR97      -0.0201
     39  CD1       48.0650   49.9410   96.2250 C.ar   97  TYR97      -0.0009
     40  CD2       47.2310   51.9760   95.3090 C.ar   97  TYR97      -0.0009
     41  CE1       48.7610   49.6770   95.0240 C.ar   97  TYR97       0.0417
     42  CE2       47.9210   51.7130   94.1050 C.ar   97  TYR97       0.0417
     43  CZ        48.6820   50.5540   93.9670 C.ar   97  TYR97       0.1957
     44  OH        49.3620   50.2760   92.8000 O.3    97  TYR97      -0.2866
     45  N         52.1910   51.9380   96.1040 N.3   103  PRO103     -0.2116
     46  CA        52.2550   51.1270   94.8650 C.3   103  PRO103      0.1372
     47  C         53.4950   50.2530   94.7050 C.2   103  PRO103      0.2244
     48  O         53.3970   49.0990   94.3300 O.2   103  PRO103     -0.2868
     49  CB        52.2120   52.1940   93.7460 C.3   103  PRO103      0.0268
     50  CG        51.4930   53.3640   94.3440 C.3   103  PRO103      0.0207
     51  CD        51.8910   53.3650   95.7960 C.3   103  PRO103      0.0892
     52  N         35.6680   47.3090   94.2980 N.3   122  TRP122     -0.1227
     53  CA        36.2730   47.4610   92.9820 C.3   122  TRP122      0.1737
     54  C         37.3020   46.3590   92.6910 C.2   122  TRP122      0.2595
     55  O         38.3670   46.2940   93.3380 O.2   122  TRP122     -0.2718
     56  CB        36.9370   48.8410   92.8120 C.3   122  TRP122      0.0564
     57  CG        37.6370   48.9890   91.4710 C.ar  122  TRP122      0.0003
     58  CD1       38.8920   48.5530   91.1410 C.ar  122  TRP122      0.0946
     59  CD2       37.0860   49.5390   90.2870 C.ar  122  TRP122      0.0152
     60  NE1       39.1570   48.8240   89.8440 N.ar  122  TRP122     -0.2442
     61  CE2       38.0620   49.4210   89.2900 C.ar  122  TRP122      0.0810
     62  CE3       35.8570   50.1370   89.9720 C.ar  122  TRP122      0.0012
     63  CZ2       37.8660   49.8720   88.0250 C.ar  122  TRP122      0.0191
     64  CZ3       35.6700   50.5970   88.7090 C.ar  122  TRP122      0.0001
     65  CH2       36.6730   50.4630   87.7430 C.ar  122  TRP122      0.0015
     66  N         37.0000   45.5570   91.6620 N.am  123  VAL123     -0.1966
     67  CA        37.8770   44.5050   91.1840 C.3   123  VAL123      0.1727
     68  C         39.0520   45.1290   90.4350 C.2   123  VAL123      0.2616
     69  O         38.8920   45.6520   89.3330 O.2   123  VAL123     -0.2715
     70  CB        37.1390   43.4960   90.2580 C.3   123  VAL123      0.0290
     71  CG1       38.0650   42.3640   89.7950 C.3   123  VAL123      0.0023
     72  CG2       35.9360   42.8870   90.9580 C.3   123  VAL123      0.0023
     73  N         40.2310   45.0230   91.0490 N.am  124  ASN124     -0.1958
     74  CA        41.4650   45.5810   90.5120 C.3   124  ASN124      0.1819
     75  C         42.1550   44.6130   89.5810 C.2   124  ASN124      0.2622
     76  O         42.5240   43.5080   89.9450 O.2   124  ASN124     -0.2715
     77  CB        42.4230   45.9530   91.6370 C.3   124  ASN124      0.1195
     78  CG        42.0190   47.2290   92.3580 C.2   124  ASN124      0.2630
     79  OD1       41.3300   47.2020   93.3910 O.2   124  ASN124     -0.2716
     80  ND2       42.4600   48.3640   91.8130 N.am  124  ASN124     -0.0877
     81  N         42.3350   45.0560   88.3640 N.am  125  THR125     -0.1937
     82  CA        43.0640   44.2950   87.3790 C.3   125  THR125      0.2028
     83  C         44.5740   44.2950   87.6790 C.2   125  THR125      0.2642
     84  O         45.2950   43.3960   87.3150 O.2   125  THR125     -0.2714
     85  CB        42.7160   44.8450   85.9800 C.3   125  THR125      0.1808
     86  OG1       41.3320   44.5700   85.7150 O.3   125  THR125     -0.2208
     87  CG2       43.5080   44.1830   84.8830 C.3   125  THR125      0.0379
     88  N         45.0370   45.2890   88.3920 N.am  126  GLU126     -0.1976
     89  CA        46.4720   45.5030   88.5910 C.3   126  GLU126      0.1602
     90  C         47.1770   44.3970   89.4010 C.2   126  GLU126      0.2287
     91  O         48.3700   44.2290   89.2070 O.2   126  GLU126     -0.2864
     92  CB        46.7280   46.8630   89.2720 C.3   126  GLU126      0.0415
     93  CG        46.2590   48.0940   88.4990 C.3   126  GLU126      0.1163
     94  CD        44.8080   48.4920   88.7600 C.2   126  GLU126      0.3649
     95  OE1       44.0210   47.7570   89.3820 O.co2 126  GLU126     -0.2457
     96  OE2       44.4390   49.5720   88.3270 O.co2 126  GLU126     -0.2457
@<TRIPOS>BOND
     1    87    85    1
     2    86    85    1
     3    85    82    1
     4    84    83    2
     5    82    83    1
     6    82    81    1
     7    83    88   am
     8    65    63   ar
     9    65    64   ar
    10    63    61   ar
    11    96    94   ar
    12    81    75   am
    13    88    89    1
    14    93    94    1
    15    93    92    1
    16    89    92    1
    17    89    90    1
    18    64    62   ar
    19    94    95   ar
    20    91    90    2
    21    61    60   ar
    22    61    59   ar
    23    69    68    2
    24    75    76    2
    25    75    74    1
    26    71    70    1
    27    60    58   ar
    28    62    59   ar
    29    70    72    1
    30    70    67    1
    31    59    57   ar
    32    68    73   am
    33    68    67    1
    34    74    73    1
    35    74    77    1
    36     8     7    2
    37     9     7   am
    38     7     6    1
    39    58    57   ar
    40    67    66    1
    41    57    56    1
    42    77    78    1
    43    66    54   am
    44    80    78   am
    45     6     5    1
    46    78    79    2
    47    54    53    1
    48    54    55    2
    49    44    43    1
    50    56    53    1
    51    32    31    1
    52    53    52    1
    53     5     2    1
    54    29    31   ar
    55    29    27   ar
    56    49    50    1
    57    49    46    1
    58    19    18    1
    59    31    30   ar
    60    43    42   ar
    61    43    41   ar
    62     1     2    1
    63    42    40   ar
    64    48    47    2
    65    50    51    1
    66     2     3    1
    67    27    26   ar
    68    47    46    1
    69    46    45    1
    70    18    20    1
    71    18    17    2
    72    41    39   ar
    73    30    28   ar
    74    40    38   ar
    75     3     4    2
    76    51    45    1
    77    26    28   ar
    78    26    25    1
    79    16    17    1
    80    16    15    1
    81    24    23    2
    82    15    14    1
    83    39    38   ar
    84    38    37    1
    85    23    22    1
    86    33    34    1
    87    25    22    1
    88    14    11    1
    89    22    21    1
    90    37    34    1
    91    34    35    1
    92    21    12   am
    93    12    11    1
    94    12    13    2
    95    11    10    1
    96    35    36    2
