@<TRIPOS>MOLECULE
tmp/5t5oM01.pdb
 102 100 0 0 0
SMALL
GASTEIGER

@<TRIPOS>ATOM
      1  N         26.8870   52.7690   89.0800 N.3    74  ASN74      -0.1225
      2  CA        27.3090   51.3900   88.7350 C.3    74  ASN74       0.1785
      3  C         28.5360   50.8080   89.2940 C.2    74  ASN74       0.2597
      4  O         28.5680   49.6170   89.5380 O.2    74  ASN74      -0.2718
      5  CB        27.7640   51.3420   87.2800 C.3    74  ASN74       0.1169
      6  CG        26.7030   51.6590   86.3170 C.2    74  ASN74       0.2627
      7  OD1       26.3480   52.8160   86.1950 O.2    74  ASN74      -0.2716
      8  ND2       26.2270   50.6950   85.5740 N.am   74  ASN74      -0.0877
      9  N         29.6030   51.6120   89.2730 N.am   75  SER75      -0.1952
     10  CA        30.9670   51.0910   89.3420 C.3    75  SER75       0.1924
     11  C         31.7840   51.7450   90.4510 C.2    75  SER75       0.2314
     12  O         32.8680   52.3210   90.2100 O.2    75  SER75      -0.2863
     13  CB        31.6520   51.2860   88.0120 C.3    75  SER75       0.2116
     14  OG        31.6050   52.6540   87.6640 O.3    75  SER75      -0.2180
     15  N         34.9720   47.0320   96.9360 N.3   121  THR121     -0.1203
     16  CA        33.8810   47.2830   95.9510 C.3   121  THR121      0.1994
     17  C         34.3430   47.3460   94.4910 C.2   121  THR121      0.2618
     18  O         33.4990   47.4700   93.5680 O.2   121  THR121     -0.2717
     19  CB        33.1760   48.6240   96.2590 C.3   121  THR121      0.1784
     20  OG1       34.1710   49.6540   96.2620 O.3   121  THR121     -0.2211
     21  CG2       32.4920   48.5830   97.6370 C.3   121  THR121      0.0376
     22  N         35.6680   47.3090   94.2980 N.am  122  TRP122     -0.1961
     23  CA        36.2730   47.4610   92.9820 C.3   122  TRP122      0.1771
     24  C         37.3020   46.3590   92.6910 C.2   122  TRP122      0.2619
     25  O         38.3670   46.2940   93.3380 O.2   122  TRP122     -0.2715
     26  CB        36.9370   48.8410   92.8120 C.3   122  TRP122      0.0590
     27  CG        37.6370   48.9890   91.4710 C.ar  122  TRP122      0.0006
     28  CD1       38.8920   48.5530   91.1410 C.ar  122  TRP122      0.0946
     29  CD2       37.0860   49.5390   90.2870 C.ar  122  TRP122      0.0152
     30  NE1       39.1570   48.8240   89.8440 N.ar  122  TRP122     -0.2442
     31  CE2       38.0620   49.4210   89.2900 C.ar  122  TRP122      0.0810
     32  CE3       35.8570   50.1370   89.9720 C.ar  122  TRP122      0.0012
     33  CZ2       37.8660   49.8720   88.0250 C.ar  122  TRP122      0.0191
     34  CZ3       35.6700   50.5970   88.7090 C.ar  122  TRP122      0.0001
     35  CH2       36.6730   50.4630   87.7430 C.ar  122  TRP122      0.0015
     36  N         37.0000   45.5570   91.6620 N.am  123  VAL123     -0.1977
     37  CA        37.8770   44.5050   91.1840 C.3   123  VAL123      0.1596
     38  C         39.0520   45.1290   90.4350 C.2   123  VAL123      0.2287
     39  O         38.8920   45.6520   89.3330 O.2   123  VAL123     -0.2864
     40  CB        37.1390   43.4960   90.2580 C.3   123  VAL123      0.0276
     41  CG1       38.0650   42.3640   89.7950 C.3   123  VAL123      0.0022
     42  CG2       35.9360   42.8870   90.9580 C.3   123  VAL123      0.0022
     43  N         42.3350   45.0560   88.3640 N.3   125  THR125     -0.1218
     44  CA        43.0640   44.2950   87.3790 C.3   125  THR125      0.1862
     45  C         44.5740   44.2950   87.6790 C.2   125  THR125      0.2287
     46  O         45.2950   43.3960   87.3150 O.2   125  THR125     -0.2866
     47  CB        42.7160   44.8450   85.9800 C.3   125  THR125      0.1770
     48  OG1       41.3320   44.5700   85.7150 O.3   125  THR125     -0.2211
     49  CG2       43.5080   44.1830   84.8830 C.3   125  THR125      0.0375
     50  N         37.0990   37.8820   90.4600 N.3   131  ARG131     -0.1231
     51  CA        36.2150   38.6350   89.5270 C.3   131  ARG131      0.1694
     52  C         34.8080   38.9350   90.0790 C.2   131  ARG131      0.2592
     53  O         33.7600   38.6760   89.4560 O.2   131  ARG131     -0.2718
     54  CB        36.1660   37.9110   88.1950 C.3   131  ARG131      0.0321
     55  CG        37.5540   37.5290   87.7050 C.3   131  ARG131      0.0489
     56  CD        37.5930   37.3580   86.2140 C.3   131  ARG131      0.2205
     57  NE        37.3320   38.6310   85.5230 N.pl3 131  ARG131     -0.0865
     58  CZ        37.2150   38.7420   84.2130 C.cat 131  ARG131      0.5346
     59  NH1       37.3090   37.6770   83.4440 N.pl3 131  ARG131      0.1354
     60  NH2       36.9890   39.9020   83.6680 N.pl3 131  ARG131      0.1354
     61  N         34.8310   39.5230   91.2660 N.am  132  TYR132     -0.1962
     62  CA        33.6440   39.8820   91.9870 C.3   132  TYR132      0.1771
     63  C         34.1030   40.7720   93.1520 C.2   132  TYR132      0.2619
     64  O         35.2820   40.7540   93.6000 O.2   132  TYR132     -0.2715
     65  CB        32.8580   38.6520   92.4860 C.3   132  TYR132      0.0574
     66  CG        33.7250   37.5400   93.0980 C.ar  132  TYR132     -0.0198
     67  CD1       34.3180   37.6620   94.3500 C.ar  132  TYR132     -0.0009
     68  CD2       33.9500   36.3610   92.4080 C.ar  132  TYR132     -0.0009
     69  CE1       35.1220   36.6370   94.8670 C.ar  132  TYR132      0.0417
     70  CE2       34.7430   35.3410   92.9220 C.ar  132  TYR132      0.0417
     71  CZ        35.3200   35.4740   94.1390 C.ar  132  TYR132      0.1957
     72  OH        36.0750   34.4400   94.6090 O.3   132  TYR132     -0.2866
     73  N         33.1450   41.5410   93.6460 N.am  133  ARG133     -0.1977
     74  CA        33.3520   42.3360   94.8340 C.3   133  ARG133      0.1597
     75  C         33.4630   41.3900   96.0070 C.2   133  ARG133      0.2287
     76  O         32.8340   40.3420   96.0370 O.2   133  ARG133     -0.2864
     77  CB        32.1960   43.2880   95.0120 C.3   133  ARG133      0.0334
     78  CG        32.1580   44.2620   93.8660 C.3   133  ARG133      0.0492
     79  CD        31.0930   45.3110   94.0490 C.3   133  ARG133      0.2205
     80  NE        31.1030   46.2190   92.9140 N.pl3 133  ARG133     -0.0865
     81  CZ        30.4180   46.0300   91.7980 C.cat 133  ARG133      0.5346
     82  NH1       29.6350   44.9580   91.6390 N.pl3 133  ARG133      0.1354
     83  NH2       30.5100   46.9300   90.8250 N.pl3 133  ARG133      0.1354
     84  N         26.4720   41.3430   95.2320 N.3   152  ASP152     -0.1239
     85  CA        26.1900   42.7260   94.8220 C.3   152  ASP152      0.1674
     86  C         24.8500   43.2460   95.3960 C.2   152  ASP152      0.2266
     87  O         24.7400   44.4320   95.7590 O.2   152  ASP152     -0.2867
     88  CB        26.2310   42.8400   93.2990 C.3   152  ASP152      0.1410
     89  CG        27.6430   42.6360   92.7210 C.2   152  ASP152      0.3668
     90  OD1       28.6510   42.8690   93.4420 O.co2 152  ASP152     -0.2456
     91  OD2       27.7290   42.2700   91.5140 O.co2 152  ASP152     -0.2456
     92  N         25.0640   46.9750   97.1720 N.3   156  PHE156     -0.1241
     93  CA        24.2130   48.0820   96.7580 C.3   156  PHE156      0.1605
     94  C         22.9050   48.2160   97.5390 C.2   156  PHE156      0.2264
     95  O         22.0800   49.0730   97.2080 O.2   156  PHE156     -0.2867
     96  CB        23.9030   47.9790   95.2500 C.3   156  PHE156      0.0534
     97  CG        25.1120   48.1500   94.3710 C.ar  156  PHE156     -0.0203
     98  CD1       25.6090   49.4110   94.0870 C.ar  156  PHE156     -0.0042
     99  CD2       25.7650   47.0510   93.8560 C.ar  156  PHE156     -0.0042
    100  CE1       26.7130   49.5690   93.2840 C.ar  156  PHE156     -0.0003
    101  CE2       26.8730   47.2040   93.0580 C.ar  156  PHE156     -0.0003
    102  CZ        27.3420   48.4640   92.7660 C.ar  156  PHE156     -0.0000
@<TRIPOS>BOND
     1    59    58    1
     2    60    58    1
     3    58    57    2
     4    49    47    1
     5    57    56    1
     6     8     6   am
     7    48    47    1
     8    47    44    1
     9     7     6    2
    10    56    55    1
    11     6     5    1
    12     5     2    1
    13    46    45    2
    14    44    45    1
    15    44    43    1
    16    14    13    1
    17    55    54    1
    18    35    33   ar
    19    35    34   ar
    20    13    10    1
    21    33    31   ar
    22    54    51    1
    23    34    32   ar
    24     2     1    1
    25     2     3    1
    26     9     3   am
    27     9    10    1
    28    31    30   ar
    29    31    29   ar
    30     3     4    2
    31    39    38    2
    32    10    11    1
    33    53    52    2
    34    51    52    1
    35    51    50    1
    36    41    40    1
    37    30    28   ar
    38    32    29   ar
    39    52    61   am
    40    12    11    2
    41    40    42    1
    42    40    37    1
    43    29    27   ar
    44    38    37    1
    45    83    81    1
    46    28    27   ar
    47    37    36    1
    48    61    62    1
    49    27    26    1
    50    91    89   ar
    51    82    81    1
    52    36    24   am
    53    81    80    2
    54    62    65    1
    55    62    63    1
    56    68    70   ar
    57    68    66   ar
    58    65    66    1
    59    24    23    1
    60    24    25    2
    61    89    88    1
    62    89    90   ar
    63   102   101   ar
    64   102   100   ar
    65    26    23    1
    66    80    79    1
    67    70    71   ar
    68    23    22    1
    69   101    99   ar
    70    66    67   ar
    71    63    64    2
    72    63    73   am
    73   100    98   ar
    74    88    85    1
    75    18    17    2
    76    73    74    1
    77    99    97   ar
    78    78    79    1
    79    78    77    1
    80    98    97   ar
    81    71    72    1
    82    71    69   ar
    83    22    17   am
    84    67    69   ar
    85    97    96    1
    86    17    16    1
    87    85    84    1
    88    85    86    1
    89    74    77    1
    90    74    75    1
    91    96    93    1
    92    86    87    2
    93    16    19    1
    94    16    15    1
    95    75    76    2
    96    19    20    1
    97    19    21    1
    98    93    92    1
    99    93    94    1
   100    95    94    2
