@<TRIPOS>MOLECULE
tmp/5t5tA01.pdb
 81 73 0 0 0
SMALL
GASTEIGER

@<TRIPOS>ATOM
      1  N         57.2130  -81.8140  -39.3220 N.3     3  VAL3       -0.1245
      2  CA        56.1040  -80.8640  -39.1900 C.3     3  VAL3        0.1561
      3  C         56.3290  -80.0830  -37.8920 C.2     3  VAL3        0.2260
      4  O         56.2500  -80.6660  -36.8140 O.2     3  VAL3       -0.2867
      5  CB        54.7200  -81.5640  -39.2290 C.3     3  VAL3        0.0252
      6  CG1       53.5820  -80.5480  -39.2480 C.3     3  VAL3        0.0019
      7  CG2       54.6150  -82.4980  -40.4250 C.3     3  VAL3        0.0019
      8  N         55.6500  -81.7130  -34.3700 N.3    10  LEU10      -0.1231
      9  CA        54.3650  -82.3800  -34.1990 C.3    10  LEU10       0.1693
     10  C         54.5400  -83.8650  -34.4830 C.2    10  LEU10       0.2592
     11  O         55.2840  -84.2370  -35.3930 O.2    10  LEU10      -0.2718
     12  CB        53.2820  -81.7640  -35.1040 C.3    10  LEU10       0.0284
     13  CG        52.7610  -80.3830  -34.7040 C.3    10  LEU10       0.0019
     14  CD1       52.0240  -79.7450  -35.8430 C.3    10  LEU10       0.0001
     15  CD2       51.8410  -80.4640  -33.5110 C.3    10  LEU10       0.0001
     16  N         53.9220  -84.6880  -33.6500 N.am   11  GLY11      -0.1957
     17  CA        54.0150  -86.1350  -33.7520 C.3    11  GLY11       0.1869
     18  C         52.6850  -86.8250  -33.9350 C.2    11  GLY11       0.2309
     19  O         51.8420  -86.3730  -34.7160 O.2    11  GLY11      -0.2863
     20  N         41.7160  -81.8580  -33.0670 N.3    21  LYS21      -0.1245
     21  CA        42.6340  -82.9980  -33.0130 C.3    21  LYS21       0.1561
     22  C         43.7740  -82.6580  -32.0440 C.2    21  LYS21       0.2260
     23  O         44.2730  -81.5320  -32.0700 O.2    21  LYS21      -0.2867
     24  CB        43.1950  -83.2370  -34.4280 C.3    21  LYS21       0.0271
     25  CG        43.6850  -84.6480  -34.7220 C.3    21  LYS21       0.0035
     26  CD        43.2480  -85.0830  -36.1250 C.3    21  LYS21       0.0206
     27  CE        43.8540  -86.3880  -36.5840 C.3    21  LYS21       0.1093
     28  NZ        45.2090  -86.1980  -37.1690 N.3    21  LYS21      -0.1314
     29  N         47.6740  -83.5870  -30.7370 N.3    23  LYS23      -0.1245
     30  CA        48.9310  -84.2500  -31.1110 C.3    23  LYS23       0.1561
     31  C         50.0860  -83.9790  -30.1460 C.2    23  LYS23       0.2260
     32  O         50.1020  -82.9360  -29.4890 O.2    23  LYS23      -0.2867
     33  CB        49.3570  -83.8050  -32.5160 C.3    23  LYS23       0.0271
     34  CG        48.5080  -84.3900  -33.6230 C.3    23  LYS23       0.0035
     35  CD        48.9980  -83.9460  -34.9790 C.3    23  LYS23       0.0206
     36  CE        48.6060  -84.9160  -36.0590 C.3    23  LYS23       0.1093
     37  NZ        49.3790  -86.1790  -35.9660 N.3    23  LYS23      -0.1314
     38  N         44.6450  -78.7650  -32.4600 N.3    38  ILE38      -0.1245
     39  CA        44.5810  -78.0840  -33.7620 C.3    38  ILE38       0.1561
     40  C         43.1340  -77.8170  -34.1540 C.2    38  ILE38       0.2260
     41  O         42.3960  -78.7560  -34.4820 O.2    38  ILE38      -0.2867
     42  CB        45.3810  -78.7890  -34.9020 C.3    38  ILE38       0.0252
     43  CG1       46.7590  -79.3000  -34.4210 C.3    38  ILE38       0.0019
     44  CG2       45.5200  -77.8560  -36.1200 C.3    38  ILE38       0.0019
     45  CD1       47.2410  -80.5600  -35.1060 C.3    38  ILE38       0.0001
     46  N         40.7110  -76.0120  -36.8280 N.3    40  ASN40      -0.1240
     47  CA        40.6190  -75.4350  -38.1680 C.3    40  ASN40       0.1653
     48  C         39.6610  -74.2710  -38.1100 C.2    40  ASN40       0.2266
     49  O         38.4920  -74.4710  -37.7800 O.2    40  ASN40      -0.2867
     50  CB        40.1410  -76.4670  -39.1910 C.3    40  ASN40       0.1155
     51  CG        40.2960  -76.0150  -40.6230 C.2    40  ASN40       0.2627
     52  OD1       39.6360  -75.0800  -41.0940 O.2    40  ASN40      -0.2716
     53  ND2       41.1800  -76.6740  -41.3540 N.am   40  ASN40      -0.0877
     54  N         36.4210  -74.7340  -39.9370 N.3    43  LYS43      -0.1245
     55  CA        35.5760  -75.7260  -39.2790 C.3    43  LYS43       0.1561
     56  C         34.9660  -75.1450  -38.0020 C.2    43  LYS43       0.2260
     57  O         33.7830  -75.3720  -37.7480 O.2    43  LYS43      -0.2867
     58  CB        36.3550  -77.0140  -38.9770 C.3    43  LYS43       0.0271
     59  CG        35.5390  -78.1040  -38.3230 C.3    43  LYS43       0.0035
     60  CD        36.4010  -79.3330  -38.0640 C.3    43  LYS43       0.0206
     61  CE        36.4960  -79.6660  -36.5700 C.3    43  LYS43       0.1093
     62  NZ        37.3660  -78.7320  -35.8790 N.3    43  LYS43      -0.1314
     63  N         44.6030  -72.4870  -39.4430 N.3    80  ASP80      -0.1239
     64  CA        44.2590  -73.1020  -38.1560 C.3    80  ASP80       0.1674
     65  C         44.7610  -72.3340  -36.9240 C.2    80  ASP80       0.2266
     66  O         45.5640  -71.4070  -37.0340 O.2    80  ASP80      -0.2867
     67  CB        44.8170  -74.5420  -38.0940 C.3    80  ASP80       0.1410
     68  CG        44.5810  -75.3770  -39.3330 C.2    80  ASP80       0.3668
     69  OD1       45.3760  -75.2580  -40.2920 O.co2  80  ASP80      -0.2456
     70  OD2       43.6120  -76.1570  -39.3420 O.co2  80  ASP80      -0.2456
     71  N         46.4960  -73.2740  -33.1750 N.3    82  PHE82      -0.1241
     72  CA        47.2600  -74.2880  -32.4580 C.3    82  PHE82       0.1605
     73  C         47.3180  -73.9470  -30.9750 C.2    82  PHE82       0.2264
     74  O         47.8670  -72.9090  -30.6020 O.2    82  PHE82      -0.2867
     75  CB        48.6780  -74.4100  -33.0570 C.3    82  PHE82       0.0534
     76  CG        48.7340  -74.9860  -34.4540 C.ar   82  PHE82      -0.0203
     77  CD1       48.5880  -74.1680  -35.5690 C.ar   82  PHE82      -0.0042
     78  CD2       48.9560  -76.3420  -34.6560 C.ar   82  PHE82      -0.0042
     79  CE1       48.6370  -74.7030  -36.8610 C.ar   82  PHE82      -0.0003
     80  CE2       49.0250  -76.8710  -35.9460 C.ar   82  PHE82      -0.0003
     81  CZ        48.8610  -76.0490  -37.0390 C.ar   82  PHE82      -0.0000
@<TRIPOS>BOND
     1    53    51   am
     2    52    51    2
     3    51    50    1
     4     7     5    1
     5    69    68   ar
     6    54    55    1
     7    63    64    1
     8    70    68   ar
     9    68    67    1
    10     1     2    1
    11    55    58    1
    12    55    56    1
    13     6     5    1
    14     5     2    1
    15    50    47    1
    16     2     3    1
    17    58    59    1
    18    59    60    1
    19    47    48    1
    20    47    46    1
    21    64    67    1
    22    64    65    1
    23    48    49    2
    24    60    61    1
    25    56    57    2
    26     3     4    2
    27    28    27    1
    28    81    79   ar
    29    81    80   ar
    30    66    65    2
    31    79    77   ar
    32    27    26    1
    33    61    62    1
    34    26    25    1
    35    44    42    1
    36    36    37    1
    37    36    35    1
    38    80    78   ar
    39    14    13    1
    40    77    76   ar
    41    11    10    2
    42    45    43    1
    43    12    13    1
    44    12     9    1
    45    35    34    1
    46    42    43    1
    47    42    39    1
    48    25    24    1
    49    19    18    2
    50    13    15    1
    51    78    76   ar
    52    10     9    1
    53    10    16   am
    54    41    40    2
    55    76    75    1
    56    24    21    1
    57     8     9    1
    58    40    39    1
    59    18    17    1
    60    39    38    1
    61    17    16    1
    62    34    33    1
    63    71    72    1
    64    20    21    1
    65    75    72    1
    66    21    22    1
    67    33    30    1
    68    72    73    1
    69    23    22    2
    70    30    29    1
    71    30    31    1
    72    73    74    2
    73    31    32    2
