@<TRIPOS>MOLECULE
tmp/5t5uA01.pdb
 214 206 0 0 0
SMALL
GASTEIGER

@<TRIPOS>ATOM
      1  N          9.7360   15.4750   18.7310 N.3    48  VAL48      -0.1231
      2  CA        10.3520   14.9940   17.5120 C.3    48  VAL48       0.1692
      3  C          9.7250   15.5490   16.2210 C.2    48  VAL48       0.2592
      4  O          8.5130   15.4390   16.0010 O.2    48  VAL48      -0.2718
      5  CB        10.2870   13.4390   17.4640 C.3    48  VAL48       0.0266
      6  CG1       10.9400   12.9010   16.2190 C.3    48  VAL48       0.0020
      7  CG2       10.8960   12.8480   18.7260 C.3    48  VAL48       0.0020
      8  N         10.5700   16.1340   15.3880 N.am   49  GLU49      -0.1966
      9  CA        10.2450   16.5920   14.0460 C.3    49  GLU49       0.1733
     10  C         10.9500   15.7440   12.9710 C.2    49  GLU49       0.2616
     11  O         11.9000   15.0140   13.2640 O.2    49  GLU49      -0.2715
     12  CB        10.6660   18.0530   13.8750 C.3    49  GLU49       0.0429
     13  CG        10.1080   18.9580   14.9160 C.3    49  GLU49       0.1163
     14  CD        10.5670   20.4120   14.7670 C.2    49  GLU49       0.3649
     15  OE1       11.2580   20.7290   13.7770 O.co2  49  GLU49      -0.2457
     16  OE2       10.2300   21.2210   15.6570 O.co2  49  GLU49      -0.2457
     17  N         10.4980   15.8670   11.7310 N.am   50  ASP50      -0.1971
     18  CA        11.1890   15.2550   10.5940 C.3    50  ASP50       0.1709
     19  C         12.4030   16.1020   10.2660 C.2    50  ASP50       0.2293
     20  O         12.5710   17.1890   10.8420 O.2    50  ASP50      -0.2864
     21  CB        10.2450   15.1470    9.3860 C.3    50  ASP50       0.1436
     22  CG         9.9050   16.4790    8.7780 C.2    50  ASP50       0.3671
     23  OD1        9.2800   17.3180    9.4650 O.co2  50  ASP50      -0.2456
     24  OD2       10.2430   16.7000    7.5920 O.co2  50  ASP50      -0.2456
     25  N          6.9230   18.4610    9.8860 N.3    55  PHE55      -0.1227
     26  CA         5.9960   17.7970   10.7950 C.3    55  PHE55       0.1736
     27  C          6.6070   17.6410   12.1990 C.2    55  PHE55       0.2595
     28  O          7.8160   17.4300   12.3440 O.2    55  PHE55      -0.2718
     29  CB         5.6180   16.4120   10.2770 C.3    55  PHE55       0.0547
     30  CG         5.1640   16.3950    8.8460 C.ar   55  PHE55      -0.0202
     31  CD1        3.9590   16.9920    8.4800 C.ar   55  PHE55      -0.0042
     32  CD2        5.9300   15.7750    7.8770 C.ar   55  PHE55      -0.0042
     33  CE1        3.5390   16.9770    7.1540 C.ar   55  PHE55      -0.0003
     34  CE2        5.5080   15.7520    6.5410 C.ar   55  PHE55      -0.0003
     35  CZ         4.3400   16.3590    6.1900 C.ar   55  PHE55      -0.0000
     36  N          5.7570   17.6700   13.1980 N.am   56  ARG56      -0.1966
     37  CA         6.1720   17.3850   14.5700 C.3    56  ARG56       0.1729
     38  C          5.1240   16.4820   15.2270 C.2    56  ARG56       0.2616
     39  O          3.9310   16.7690   15.1580 O.2    56  ARG56      -0.2715
     40  CB         6.3210   18.6860   15.3660 C.3    56  ARG56       0.0348
     41  CG         7.0620   18.4940   16.6760 C.3    56  ARG56       0.0492
     42  CD         7.1380   19.7660   17.4840 C.3    56  ARG56       0.2205
     43  NE         7.6620   20.8720   16.7070 N.pl3  56  ARG56      -0.0865
     44  CZ         6.9580   21.9600   16.3600 C.cat  56  ARG56       0.5346
     45  NH1        5.6990   22.0980   16.7330 N.pl3  56  ARG56       0.1354
     46  NH2        7.5390   22.9130   15.6380 N.pl3  56  ARG56       0.1354
     47  N          5.5630   15.3990   15.8560 N.am   57  PHE57      -0.1974
     48  CA         4.5870   14.5070   16.5220 C.3    57  PHE57       0.1639
     49  C          3.7790   15.3120   17.5250 C.2    57  PHE57       0.2290
     50  O          4.2840   16.2320   18.1480 O.2    57  PHE57      -0.2864
     51  CB         5.2980   13.3050   17.1770 C.3    57  PHE57       0.0560
     52  CG         5.8570   12.3110   16.1950 C.ar   57  PHE57      -0.0200
     53  CD1        5.0210   11.5930   15.3530 C.ar   57  PHE57      -0.0042
     54  CD2        7.2250   12.0920   16.0840 C.ar   57  PHE57      -0.0042
     55  CE1        5.5450   10.6690   14.4500 C.ar   57  PHE57      -0.0003
     56  CE2        7.7370   11.1860   15.2020 C.ar   57  PHE57      -0.0003
     57  CZ         6.9080   10.4860   14.3680 C.ar   57  PHE57      -0.0000
     58  N          1.4380   14.3150   20.3350 N.3    59  TYR59      -0.1241
     59  CA         0.7740   13.4480   21.3040 C.3    59  TYR59       0.1605
     60  C         -0.3550   14.1860   21.9900 C.2    59  TYR59       0.2264
     61  O         -0.1640   15.3240   22.4470 O.2    59  TYR59      -0.2867
     62  CB         1.7900   12.9200   22.3200 C.3    59  TYR59       0.0534
     63  CG         2.7550   11.9120   21.7840 C.ar   59  TYR59      -0.0201
     64  CD1        3.9240   12.3100   21.1290 C.ar   59  TYR59      -0.0009
     65  CD2        2.4880   10.5360   21.9020 C.ar   59  TYR59      -0.0009
     66  CE1        4.8150   11.3760   20.6200 C.ar   59  TYR59       0.0417
     67  CE2        3.3600    9.5930   21.4060 C.ar   59  TYR59       0.0417
     68  CZ         4.5220   10.0090   20.7510 C.ar   59  TYR59       0.1957
     69  OH         5.4060    9.1010   20.2410 O.3    59  TYR59      -0.2866
     70  N         10.7100    7.2060   27.3990 N.3   113  ASN113     -0.1240
     71  CA        10.1650    7.9800   26.2790 C.3   113  ASN113      0.1653
     72  C          9.9370    9.4210   26.7080 C.2   113  ASN113      0.2266
     73  O         10.1070    9.7610   27.8820 O.2   113  ASN113     -0.2867
     74  CB         8.8310    7.3510   25.8380 C.3   113  ASN113      0.1155
     75  CG         8.4830    7.6190   24.3960 C.2   113  ASN113      0.2627
     76  OD1        9.3090    8.0440   23.6160 O.2   113  ASN113     -0.2716
     77  ND2        7.2270    7.3300   24.0300 N.am  113  ASN113     -0.0877
     78  N         13.4290    3.3670   22.2680 N.3   149  THR149     -0.1218
     79  CA        13.7520    3.5390   20.8480 C.3   149  THR149      0.1862
     80  C         14.2780    4.9520   20.6330 C.2   149  THR149      0.2287
     81  O         14.0150    5.8520   21.4380 O.2   149  THR149     -0.2866
     82  CB        12.5270    3.2970   19.9510 C.3   149  THR149      0.1770
     83  OG1       11.5170    4.2680   20.2260 O.3   149  THR149     -0.2211
     84  CG2       11.9580    1.8720   20.1520 C.3   149  THR149      0.0375
     85  N         10.3920    2.4830    8.9540 N.3   163  TYR163     -0.1241
     86  CA         9.0510    3.0360    8.9360 C.3   163  TYR163      0.1605
     87  C          8.3310    2.7780    7.6120 C.2   163  TYR163      0.2264
     88  O          8.9380    2.8590    6.5430 O.2   163  TYR163     -0.2867
     89  CB         9.0840    4.5630    9.1170 C.3   163  TYR163      0.0534
     90  CG         9.9400    5.0700   10.2470 C.ar  163  TYR163     -0.0201
     91  CD1        9.4990    5.0370   11.5720 C.ar  163  TYR163     -0.0009
     92  CD2       11.1840    5.6090    9.9860 C.ar  163  TYR163     -0.0009
     93  CE1       10.2980    5.5310   12.5960 C.ar  163  TYR163      0.0417
     94  CE2       11.9940    6.1180   10.9980 C.ar  163  TYR163      0.0417
     95  CZ        11.5570    6.0500   12.2990 C.ar  163  TYR163      0.1957
     96  OH        12.3660    6.5570   13.3020 O.3   163  TYR163     -0.2866
     97  N          4.3630    3.5990    5.5600 N.3   165  HIS165     -0.1241
     98  CA         3.2390    4.5220    5.5600 C.3   165  HIS165      0.1621
     99  C          2.2320    4.1480    4.5060 C.2   165  HIS165      0.2264
    100  O          2.5750    4.0850    3.3280 O.2   165  HIS165     -0.2867
    101  CB         3.7260    5.9560    5.2950 C.3   165  HIS165      0.0745
    102  CG         5.0010    6.2950    5.9770 C.ar  165  HIS165      0.0817
    103  ND1        5.1200    6.3160    7.3500 N.ar  165  HIS165     -0.2268
    104  CD2        6.2250    6.6120    5.4860 C.ar  165  HIS165      0.1154
    105  CE1        6.3670    6.6270    7.6750 C.ar  165  HIS165      0.1986
    106  NE2        7.0480    6.8350    6.5620 N.ar  165  HIS165     -0.2212
    107  N          3.2010   15.4500    2.7030 N.3   178  PHE178     -0.1241
    108  CA         3.5300   14.1350    3.2170 C.3   178  PHE178      0.1605
    109  C          3.7960   13.1790    2.0700 C.2   178  PHE178      0.2264
    110  O          4.8040   12.4890    2.0690 O.2   178  PHE178     -0.2867
    111  CB         2.3750   13.6210    4.1060 C.3   178  PHE178      0.0534
    112  CG         2.6820   12.3240    4.8150 C.ar  178  PHE178     -0.0203
    113  CD1        2.6160   11.1210    4.1440 C.ar  178  PHE178     -0.0042
    114  CD2        3.0180   12.3310    6.1620 C.ar  178  PHE178     -0.0042
    115  CE1        2.8940    9.9200    4.7870 C.ar  178  PHE178     -0.0003
    116  CE2        3.3010   11.1460    6.8210 C.ar  178  PHE178     -0.0003
    117  CZ         3.2320    9.9320    6.1390 C.ar  178  PHE178     -0.0000
    118  N         -3.1940    2.7080   17.1900 N.3   274  TYR274     -0.1241
    119  CA        -3.4230    3.8760   18.0250 C.3   274  TYR274      0.1605
    120  C         -3.3910    5.1740   17.2510 C.2   274  TYR274      0.2264
    121  O         -2.8920    5.2290   16.1290 O.2   274  TYR274     -0.2867
    122  CB        -2.4510    3.9360   19.2100 C.3   274  TYR274      0.0534
    123  CG        -0.9700    3.9700   18.8940 C.ar  274  TYR274     -0.0201
    124  CD1       -0.3350    5.1600   18.5260 C.ar  274  TYR274     -0.0009
    125  CD2       -0.1930    2.8380   19.0340 C.ar  274  TYR274     -0.0009
    126  CE1        1.0340    5.1940   18.2660 C.ar  274  TYR274      0.0417
    127  CE2        1.1720    2.8610   18.7680 C.ar  274  TYR274      0.0417
    128  CZ         1.7710    4.0320   18.3910 C.ar  274  TYR274      0.1957
    129  OH         3.1220    4.0240   18.1380 O.3   274  TYR274     -0.2866
    130  N         -2.1290    8.8630   16.7720 N.3   276  LEU276     -0.1245
    131  CA        -1.0560    9.8410   17.0790 C.3   276  LEU276      0.1561
    132  C         -1.0280   10.8860   15.9860 C.2   276  LEU276      0.2260
    133  O         -0.6640   10.5990   14.8520 O.2   276  LEU276     -0.2867
    134  CB         0.3080    9.1650   17.2090 C.3   276  LEU276      0.0270
    135  CG         1.5460   10.0720   17.3800 C.3   276  LEU276      0.0019
    136  CD1        1.4100   11.0480   18.5150 C.3   276  LEU276      0.0001
    137  CD2        2.7710    9.2340   17.5870 C.3   276  LEU276      0.0001
    138  N          0.1890   14.3400   13.9780 N.3   278  SER278     -0.1217
    139  CA         1.3420   15.1650   13.7530 C.3   278  SER278      0.1889
    140  C          0.9010   16.5860   13.4320 C.2   278  SER278      0.2288
    141  O         -0.0730   16.7980   12.6890 O.2   278  SER278     -0.2866
    142  CB         2.2240   14.6410   12.6410 C.3   278  SER278      0.2089
    143  OG         2.9730   13.5100   13.0500 O.3   278  SER278     -0.2183
    144  N         -1.8820   16.1510   10.6490 N.3   289  VAL289     -0.1245
    145  CA        -2.0530   14.8390   10.0440 C.3   289  VAL289      0.1561
    146  C         -2.6310   13.8970   11.1100 C.2   289  VAL289      0.2260
    147  O         -2.0590   13.7540   12.2050 O.2   289  VAL289     -0.2867
    148  CB        -0.7130   14.2730    9.5000 C.3   289  VAL289      0.0252
    149  CG1       -0.8940   12.8040    9.0310 C.3   289  VAL289      0.0019
    150  CG2       -0.1870   15.1450    8.3830 C.3   289  VAL289      0.0019
    151  N         -1.4000    4.2170   13.9680 N.3   293  TYR293     -0.1241
    152  CA        -0.2410    3.3640   14.0130 C.3   293  TYR293      0.1605
    153  C         -0.5960    1.9420   14.4080 C.2   293  TYR293      0.2264
    154  O         -1.2730    1.7430   15.3440 O.2   293  TYR293     -0.2867
    155  CB         0.8320    3.8700   14.9930 C.3   293  TYR293      0.0534
    156  CG         1.3990    5.1740   14.6100 C.ar  293  TYR293     -0.0201
    157  CD1        0.6330    6.3170   14.6260 C.ar  293  TYR293     -0.0009
    158  CD2        2.6840    5.2670   14.2110 C.ar  293  TYR293     -0.0009
    159  CE1        1.1490    7.5160   14.2670 C.ar  293  TYR293      0.0417
    160  CE2        3.2170    6.4600   13.8300 C.ar  293  TYR293      0.0417
    161  CZ         2.4650    7.5820   13.8510 C.ar  293  TYR293      0.1957
    162  OH         3.0370    8.7510   13.4740 O.3   293  TYR293     -0.2866
    163  N          0.2290    3.9180    9.7600 N.3   334  ASN334     -0.1225
    164  CA         1.6730    3.7200    9.8370 C.3   334  ASN334      0.1785
    165  C          2.0750    2.3950   10.4910 C.2   334  ASN334      0.2597
    166  O          1.3770    1.8900   11.3460 O.2   334  ASN334     -0.2718
    167  CB         2.2990    4.8720   10.6160 C.3   334  ASN334      0.1169
    168  CG         2.1370    6.1900    9.9260 C.2   334  ASN334      0.2627
    169  OD1        2.3650    6.3140    8.7110 O.2   334  ASN334     -0.2716
    170  ND2        1.7490    7.1940   10.6740 N.am  334  ASN334     -0.0877
    171  N          3.2010    1.8420   10.0630 N.am  335  ALA335     -0.1966
    172  CA         3.7260    0.6300   10.6690 C.3   335  ALA335      0.1728
    173  C          5.2430    0.5480   10.5590 C.2   335  ALA335      0.2616
    174  O          5.8640    1.2890    9.7960 O.2   335  ALA335     -0.2715
    175  CB         3.0630   -0.5690   10.0340 C.3   335  ALA335      0.0334
    176  N          5.8150   -0.3990   11.2930 N.am  336  LEU336     -0.1977
    177  CA         7.2290   -0.6960   11.2880 C.3   336  LEU336      0.1596
    178  C          7.4410   -2.0830   10.7160 C.2   336  LEU336      0.2287
    179  O          6.4840   -2.8350   10.5620 O.2   336  LEU336     -0.2864
    180  CB         7.7880   -0.6460   12.7350 C.3   336  LEU336      0.0297
    181  CG         7.7180    0.7230   13.4000 C.3   336  LEU336      0.0022
    182  CD1        7.9100    0.6150   14.8880 C.3   336  LEU336      0.0001
    183  CD2        8.7210    1.6720   12.7750 C.3   336  LEU336      0.0001
    184  N         13.9320    3.1720   12.8230 N.3   357  LEU357     -0.1245
    185  CA        13.8210    3.3420   14.2580 C.3   357  LEU357      0.1561
    186  C         14.7340    2.3050   14.9280 C.2   357  LEU357      0.2260
    187  O         14.6240    1.1080   14.6750 O.2   357  LEU357     -0.2867
    188  CB        12.3780    3.1670   14.7030 C.3   357  LEU357      0.0270
    189  CG        12.1720    3.3480   16.2010 C.3   357  LEU357      0.0019
    190  CD1       12.4800    4.7660   16.6030 C.3   357  LEU357      0.0001
    191  CD2       10.7520    2.9250   16.5590 C.3   357  LEU357      0.0001
    192  N          6.2030   -3.2600   20.4210 N.3   390  VAL390     -0.1231
    193  CA         5.9580   -1.9630   19.8170 C.3   390  VAL390      0.1692
    194  C          5.9360   -0.9190   20.9250 C.2   390  VAL390      0.2592
    195  O          5.2810   -1.1010   21.9390 O.2   390  VAL390     -0.2718
    196  CB         4.6430   -1.9260   19.0440 C.3   390  VAL390      0.0266
    197  CG1        4.5190   -0.6120   18.3010 C.3   390  VAL390      0.0020
    198  CG2        4.6170   -3.0360   18.0380 C.3   390  VAL390      0.0020
    199  N          6.6460    0.1680   20.7400 N.am  391  MET391     -0.1965
    200  CA         6.6560    1.2280   21.7380 C.3   391  MET391      0.1736
    201  C          6.1650    2.5200   21.1130 C.2   391  MET391      0.2616
    202  O          6.1900    2.6840   19.8840 O.2   391  MET391     -0.2715
    203  CB         8.0520    1.4020   22.3080 C.3   391  MET391      0.0427
    204  CG         8.6350    0.1000   22.8460 C.3   391  MET391      0.0599
    205  SD        10.2670    0.3050   23.5650 S.3   391  MET391     -0.1393
    206  CE         9.9550    1.4620   24.8650 C.3   391  MET391      0.0692
    207  N          5.7340    3.4270   21.9710 N.am  392  LEU392     -0.1977
    208  CA         4.8900    4.5450   21.5840 C.3   392  LEU392      0.1596
    209  C          5.6550    5.7440   21.0190 C.2   392  LEU392      0.2287
    210  O          6.8810    5.8420   21.1260 O.2   392  LEU392     -0.2864
    211  CB         4.0960    4.9950   22.7940 C.3   392  LEU392      0.0297
    212  CG         3.1760    3.8830   23.3200 C.3   392  LEU392      0.0022
    213  CD1        2.6830    4.2340   24.6880 C.3   392  LEU392      0.0001
    214  CD2        2.0290    3.7130   22.3600 C.3   392  LEU392      0.0001
@<TRIPOS>BOND
     1   110   109    2
     2   109   108    1
     3   107   108    1
     4   108   111    1
     5   100    99    2
     6   111   112    1
     7   113   115   ar
     8   113   112   ar
     9    99    98    1
    10   115   117   ar
    11   112   114   ar
    12   101    98    1
    13   101   102    1
    14   104   102   ar
    15   104   106   ar
    16    98    97    1
    17   102   103   ar
    18   117   116   ar
    19   114   116   ar
    20    35    34   ar
    21    35    33   ar
    22    34    32   ar
    23    88    87    2
    24   106   105   ar
    25    33    31   ar
    26   103   105   ar
    27    24    22   ar
    28    87    86    1
    29    32    30   ar
    30   150   148    1
    31    31    30   ar
    32   169   168    2
    33    22    21    1
    34    22    23   ar
    35    30    29    1
    36    86    85    1
    37    86    89    1
    38   149   148    1
    39    89    90    1
    40    21    18    1
    41   148   145    1
    42   163   164    1
    43   174   173    2
    44   164   165    1
    45   164   167    1
    46    25    26    1
    47   168   167    1
    48   168   170   am
    49    92    90   ar
    50    92    94   ar
    51   175   172    1
    52   145   144    1
    53   145   146    1
    54   171   165   am
    55   171   172    1
    56    90    91   ar
    57    19    18    1
    58    19    20    2
    59    29    26    1
    60   165   166    2
    61   173   172    1
    62   173   176   am
    63   179   178    2
    64    18    17    1
    65   178   177    1
    66    26    27    1
    67    94    95   ar
    68   146   147    2
    69   177   176    1
    70   177   180    1
    71    91    93   ar
    72    17    10   am
    73    27    28    2
    74    27    36   am
    75    95    93   ar
    76    95    96    1
    77   142   143    1
    78   142   139    1
    79   141   140    2
    80   180   181    1
    81   183   181    1
    82   184   185    1
    83    10    11    2
    84    10     9    1
    85    36    37    1
    86   181   182    1
    87   140   139    1
    88   162   161    1
    89   139   138    1
    90    15    14   ar
    91   160   161   ar
    92   160   158   ar
    93   161   159   ar
    94    12     9    1
    95    12    13    1
    96   151   152    1
    97   152   153    1
    98   152   155    1
    99     9     8    1
   100   158   156   ar
   101   185   188    1
   102   185   186    1
   103   159   157   ar
   104    57    55   ar
   105    57    56   ar
   106   153   154    2
   107    55    53   ar
   108    37    38    1
   109    37    40    1
   110   156   157   ar
   111   156   155    1
   112   187   186    2
   113   188   189    1
   114    14    13    1
   115    14    16   ar
   116   133   132    2
   117    39    38    2
   118    56    54   ar
   119    38    47   am
   120    53    52   ar
   121    40    41    1
   122     8     3   am
   123    46    44    1
   124    47    48    1
   125   132   131    1
   126     4     3    2
   127    54    52   ar
   128   121   120    2
   129    52    51    1
   130   189   191    1
   131   189   190    1
   132     6     5    1
   133     3     2    1
   134    44    43    2
   135    44    45    1
   136    48    51    1
   137    48    49    1
   138    41    42    1
   139    43    42    1
   140   130   131    1
   141   131   134    1
   142   118   119    1
   143   134   135    1
   144   120   119    1
   145   135   137    1
   146   135   136    1
   147     5     2    1
   148     5     7    1
   149     2     1    1
   150    49    50    2
   151   119   122    1
   152   198   196    1
   153   129   128    1
   154   126   128   ar
   155   126   124   ar
   156   197   196    1
   157   128   127   ar
   158   124   123   ar
   159   127   125   ar
   160   123   125   ar
   161   123   122    1
   162   196   193    1
   163   193   192    1
   164   193   194    1
   165   202   201    2
   166    82    84    1
   167    82    83    1
   168    82    79    1
   169    69    68    1
   170    58    59    1
   171    66    68   ar
   172    66    64   ar
   173    80    79    1
   174    80    81    2
   175   199   194   am
   176   199   200    1
   177    68    67   ar
   178    79    78    1
   179   194   195    2
   180   209   210    2
   181   209   208    1
   182   201   200    1
   183   201   207   am
   184    64    63   ar
   185    59    60    1
   186    59    62    1
   187    67    65   ar
   188   208   207    1
   189   208   211    1
   190   200   203    1
   191    63    65   ar
   192    63    62    1
   193    60    61    2
   194   203   204    1
   195   214   212    1
   196   211   212    1
   197   204   205    1
   198   212   213    1
   199   205   206    1
   200    76    75    2
   201    77    75   am
   202    75    74    1
   203    74    71    1
   204    71    72    1
   205    71    70    1
   206    72    73    2
