@<TRIPOS>MOLECULE
tmp/5t61A00.pdb
 246 240 0 0 0
SMALL
GASTEIGER

@<TRIPOS>ATOM
      1  N         42.7710  -82.5050  -77.6070 N.3    59  HIS59      -0.1241
      2  CA        43.8860  -81.5620  -77.6220 C.3    59  HIS59       0.1621
      3  C         44.6360  -81.7140  -76.3030 C.2    59  HIS59       0.2264
      4  O         44.2180  -81.1800  -75.2720 O.2    59  HIS59      -0.2867
      5  CB        43.3690  -80.1490  -77.8650 C.3    59  HIS59       0.0745
      6  CG        42.7220  -79.9840  -79.2050 C.ar   59  HIS59       0.0817
      7  ND1       41.3570  -79.8990  -79.3730 N.ar   59  HIS59      -0.2268
      8  CD2       43.2600  -79.8720  -80.4440 C.ar   59  HIS59       0.1154
      9  CE1       41.0810  -79.7610  -80.6570 C.ar   59  HIS59       0.1986
     10  NE2       42.2180  -79.7370  -81.3280 N.ar   59  HIS59      -0.2212
     11  N         37.3510  -80.4190  -90.0420 N.3   230  HIS230     -0.1241
     12  CA        36.7590  -79.3630  -89.2280 C.3   230  HIS230      0.1621
     13  C         36.2760  -78.2980  -90.2130 C.2   230  HIS230      0.2264
     14  O         37.0870  -77.6620  -90.8920 O.2   230  HIS230     -0.2867
     15  CB        37.8170  -78.8570  -88.2420 C.3   230  HIS230      0.0745
     16  CG        37.5010  -77.5580  -87.5640 C.ar  230  HIS230      0.0817
     17  ND1       37.7290  -77.3610  -86.2190 N.ar  230  HIS230     -0.2268
     18  CD2       37.0670  -76.3700  -88.0470 C.ar  230  HIS230      0.1154
     19  CE1       37.4040  -76.1230  -85.8940 C.ar  230  HIS230      0.1986
     20  NE2       36.9980  -75.5010  -86.9850 N.ar  230  HIS230     -0.2212
     21  N         32.4340  -72.4580  -88.6690 N.3   234  LEU234     -0.1231
     22  CA        32.1620  -73.0500  -87.3600 C.3   234  LEU234      0.1693
     23  C         31.4820  -72.0580  -86.4320 C.2   234  LEU234      0.2592
     24  O         31.8700  -70.8870  -86.3490 O.2   234  LEU234     -0.2718
     25  CB        33.4510  -73.5730  -86.7000 C.3   234  LEU234      0.0284
     26  CG        33.2070  -74.2100  -85.3110 C.3   234  LEU234      0.0019
     27  CD1       34.1570  -75.3690  -85.1000 C.3   234  LEU234      0.0001
     28  CD2       33.3670  -73.2170  -84.1120 C.3   234  LEU234      0.0001
     29  N         30.4810  -72.5460  -85.7040 N.am  235  GLY235     -0.1957
     30  CA        29.9040  -71.7880  -84.6120 C.3   235  GLY235      0.1869
     31  C         29.1180  -70.5700  -85.0150 C.2   235  GLY235      0.2309
     32  O         28.9800  -69.6440  -84.2150 O.2   235  GLY235     -0.2863
     33  N         33.5340  -82.8430  -84.1690 N.3   270  HIS270     -0.1241
     34  CA        32.6890  -81.9490  -83.3780 C.3   270  HIS270      0.1621
     35  C         31.5920  -81.2950  -84.2090 C.2   270  HIS270      0.2264
     36  O         31.4940  -80.0660  -84.2800 O.2   270  HIS270     -0.2867
     37  CB        33.5350  -80.8750  -82.6790 C.3   270  HIS270      0.0745
     38  CG        34.5310  -80.2000  -83.5710 C.ar  270  HIS270      0.0817
     39  ND1       34.1620  -79.4000  -84.6300 N.ar  270  HIS270     -0.2268
     40  CD2       35.8860  -80.1880  -83.5450 C.ar  270  HIS270      0.1154
     41  CE1       35.2460  -78.9370  -85.2290 C.ar  270  HIS270      0.1986
     42  NE2       36.3050  -79.4000  -84.5900 N.ar  270  HIS270     -0.2212
     43  N         29.0550  -78.2160  -83.3530 N.3   273  PHE273     -0.1241
     44  CA        29.3800  -76.8400  -83.7060 C.3   273  PHE273      0.1605
     45  C         29.0810  -76.5130  -85.1630 C.2   273  PHE273      0.2264
     46  O         29.1360  -75.3380  -85.5380 O.2   273  PHE273     -0.2867
     47  CB        30.8570  -76.5640  -83.4170 C.3   273  PHE273      0.0534
     48  CG        31.2120  -76.6310  -81.9620 C.ar  273  PHE273     -0.0203
     49  CD1       30.8620  -75.6020  -81.1030 C.ar  273  PHE273     -0.0042
     50  CD2       31.8830  -77.7300  -81.4470 C.ar  273  PHE273     -0.0042
     51  CE1       31.1840  -75.6610  -79.7600 C.ar  273  PHE273     -0.0003
     52  CE2       32.2080  -77.7950  -80.1020 C.ar  273  PHE273     -0.0003
     53  CZ        31.8570  -76.7570  -79.2590 C.ar  273  PHE273     -0.0000
     54  N         22.2560  -64.8950  -83.3360 N.3   281  TRP281     -0.1227
     55  CA        22.1440  -65.6110  -82.0720 C.3   281  TRP281      0.1737
     56  C         20.7520  -65.5100  -81.4700 C.2   281  TRP281      0.2595
     57  O         20.4200  -66.2940  -80.5750 O.2   281  TRP281     -0.2718
     58  CB        23.1800  -65.1120  -81.0640 C.3   281  TRP281      0.0564
     59  CG        24.5670  -65.5430  -81.3940 C.ar  281  TRP281      0.0003
     60  CD1       25.6460  -64.7420  -81.6250 C.ar  281  TRP281      0.0946
     61  CD2       25.0220  -66.8910  -81.5630 C.ar  281  TRP281      0.0152
     62  NE1       26.7520  -65.5100  -81.9080 N.ar  281  TRP281     -0.2442
     63  CE2       26.3930  -66.8320  -81.8790 C.ar  281  TRP281      0.0810
     64  CE3       24.4040  -68.1430  -81.4710 C.ar  281  TRP281      0.0012
     65  CZ2       27.1550  -67.9760  -82.1060 C.ar  281  TRP281      0.0191
     66  CZ3       25.1600  -69.2750  -81.6960 C.ar  281  TRP281      0.0001
     67  CH2       26.5220  -69.1840  -82.0080 C.ar  281  TRP281      0.0015
     68  N         19.9290  -64.5810  -81.9440 N.am  282  ARG282     -0.1980
     69  CA        18.6260  -64.3690  -81.3330 C.3   282  ARG282      0.1597
     70  C         17.5340  -65.2400  -81.9450 C.2   282  ARG282      0.2287
     71  O         16.5980  -65.6230  -81.2350 O.2   282  ARG282     -0.2864
     72  CB        18.2620  -62.8830  -81.4120 C.3   282  ARG282      0.0334
     73  CG        19.3270  -61.9900  -80.7790 C.3   282  ARG282      0.0492
     74  CD        18.7190  -60.8790  -79.9430 C.3   282  ARG282      0.2205
     75  NE        17.4980  -61.3080  -79.2660 N.pl3 282  ARG282     -0.0865
     76  CZ        16.7410  -60.5060  -78.5240 C.cat 282  ARG282      0.5346
     77  NH1       15.6440  -60.9740  -77.9450 N.pl3 282  ARG282      0.1354
     78  NH2       17.0900  -59.2370  -78.3530 N.pl3 282  ARG282      0.1354
     79  N         38.8100  -73.0380  -74.7850 N.3   315  THR315     -0.1218
     80  CA        38.7510  -73.3090  -76.2120 C.3   315  THR315      0.1862
     81  C         40.1200  -73.0870  -76.8360 C.2   315  THR315      0.2287
     82  O         40.8060  -72.1120  -76.5260 O.2   315  THR315     -0.2866
     83  CB        37.7000  -72.4410  -76.9150 C.3   315  THR315      0.1770
     84  OG1       37.9700  -71.0510  -76.6790 O.3   315  THR315     -0.2211
     85  CG2       36.2870  -72.8160  -76.4820 C.3   315  THR315      0.0375
     86  N         41.9350  -73.9830  -80.8060 N.3   317  THR317     -0.1218
     87  CA        41.6830  -74.5170  -82.1350 C.3   317  THR317      0.1862
     88  C         42.7220  -73.9350  -83.0780 C.2   317  THR317      0.2287
     89  O         43.3440  -72.9120  -82.7840 O.2   317  THR317     -0.2866
     90  CB        40.2780  -74.1650  -82.6250 C.3   317  THR317      0.1770
     91  OG1       40.0220  -74.8020  -83.8860 O.3   317  THR317     -0.2211
     92  CG2       40.2000  -72.6910  -82.8190 C.3   317  THR317      0.0375
     93  N         37.9740  -67.7660  -85.9680 N.3   322  MET322     -0.1230
     94  CA        36.8240  -68.0640  -85.1260 C.3   322  MET322      0.1702
     95  C         37.0930  -67.6870  -83.6730 C.2   322  MET322      0.2592
     96  O         36.2260  -67.1130  -83.0030 O.2   322  MET322     -0.2718
     97  CB        36.4670  -69.5470  -85.2450 C.3   322  MET322      0.0401
     98  CG        35.1070  -69.9450  -84.6790 C.3   322  MET322      0.0596
     99  SD        35.1510  -70.1750  -82.8870 S.3   322  MET322     -0.1393
    100  CE        36.4950  -71.3480  -82.7610 C.3   322  MET322      0.0692
    101  N         38.2950  -67.9770  -83.1730 N.am  323  GLU323     -0.1979
    102  CA        38.6010  -67.6480  -81.7840 C.3   323  GLU323      0.1602
    103  C         38.6610  -66.1470  -81.5560 C.2   323  GLU323      0.2287
    104  O         38.3260  -65.6740  -80.4630 O.2   323  GLU323     -0.2864
    105  CB        39.9140  -68.2900  -81.3500 C.3   323  GLU323      0.0415
    106  CG        39.8880  -69.7720  -81.4030 C.3   323  GLU323      0.1163
    107  CD        39.2960  -70.4030  -80.1620 C.2   323  GLU323      0.3649
    108  OE1       38.9130  -69.6540  -79.2450 O.co2 323  GLU323     -0.2457
    109  OE2       39.1830  -71.6490  -80.1240 O.co2 323  GLU323     -0.2457
    110  N         35.1720  -65.2090  -81.1150 N.3   326  LEU326     -0.1245
    111  CA        34.6960  -65.6290  -79.8050 C.3   326  LEU326      0.1561
    112  C         35.1780  -64.6720  -78.7240 C.2   326  LEU326      0.2260
    113  O         34.4170  -64.3070  -77.8190 O.2   326  LEU326     -0.2867
    114  CB        35.1640  -67.0560  -79.5240 C.3   326  LEU326      0.0270
    115  CG        34.5330  -67.7710  -78.3350 C.3   326  LEU326      0.0019
    116  CD1       33.0440  -67.9410  -78.5830 C.3   326  LEU326      0.0001
    117  CD2       35.2010  -69.1200  -78.1220 C.3   326  LEU326      0.0001
    118  N         33.0870  -61.6370  -78.5630 N.3   329  LEU329     -0.1231
    119  CA        31.7720  -61.8200  -77.9700 C.3   329  LEU329      0.1693
    120  C         31.8380  -61.8050  -76.4460 C.2   329  LEU329      0.2592
    121  O         31.1120  -61.0420  -75.8010 O.2   329  LEU329     -0.2718
    122  CB        31.1500  -63.1280  -78.4760 C.3   329  LEU329      0.0284
    123  CG        30.4370  -63.0620  -79.8370 C.3   329  LEU329      0.0019
    124  CD1       30.1860  -64.4710  -80.3670 C.3   329  LEU329      0.0001
    125  CD2       29.1380  -62.2440  -79.7800 C.3   329  LEU329      0.0001
    126  N         32.6910  -62.6400  -75.8480 N.am  330  ASN330     -0.1974
    127  CA        32.7120  -62.7630  -74.3930 C.3   330  ASN330      0.1688
    128  C         33.7480  -61.8700  -73.7140 C.2   330  ASN330      0.2292
    129  O         33.7400  -61.7650  -72.4810 O.2   330  ASN330     -0.2864
    130  CB        32.9350  -64.2290  -73.9750 C.3   330  ASN330      0.1181
    131  CG        34.3570  -64.7290  -74.2360 C.2   330  ASN330      0.2629
    132  OD1       35.2250  -64.0060  -74.7340 O.2   330  ASN330     -0.2716
    133  ND2       34.5960  -65.9870  -73.8830 N.am  330  ASN330     -0.0877
    134  N         35.8350  -70.1980  -72.2670 N.3   350  PHE350     -0.1241
    135  CA        34.3990  -70.0310  -72.4450 C.3   350  PHE350      0.1605
    136  C         33.6310  -70.7030  -71.3170 C.2   350  PHE350      0.2264
    137  O         33.9710  -71.8130  -70.8970 O.2   350  PHE350     -0.2867
    138  CB        33.9210  -70.5840  -73.7870 C.3   350  PHE350      0.0534
    139  CG        32.5760  -70.0690  -74.1880 C.ar  350  PHE350     -0.0203
    140  CD1       32.4600  -68.8720  -74.8730 C.ar  350  PHE350     -0.0042
    141  CD2       31.4260  -70.7620  -73.8550 C.ar  350  PHE350     -0.0042
    142  CE1       31.2220  -68.3840  -75.2350 C.ar  350  PHE350     -0.0003
    143  CE2       30.1820  -70.2790  -74.2150 C.ar  350  PHE350     -0.0003
    144  CZ        30.0800  -69.0880  -74.9060 C.ar  350  PHE350     -0.0000
    145  N         30.2390  -72.3080  -70.5820 N.3   352  TYR352     -0.1241
    146  CA        29.0000  -72.8630  -71.1290 C.3   352  TYR352      0.1605
    147  C         27.9880  -73.0140  -69.9940 C.2   352  TYR352      0.2264
    148  O         27.7380  -74.1070  -69.4830 O.2   352  TYR352     -0.2867
    149  CB        29.2560  -74.1990  -71.8140 C.3   352  TYR352      0.0534
    150  CG        30.1820  -74.1720  -73.0120 C.ar  352  TYR352     -0.0201
    151  CD1       29.7100  -73.8390  -74.2750 C.ar  352  TYR352     -0.0009
    152  CD2       31.5140  -74.5520  -72.8910 C.ar  352  TYR352     -0.0009
    153  CE1       30.5540  -73.8330  -75.3780 C.ar  352  TYR352      0.0417
    154  CE2       32.3590  -74.5600  -73.9850 C.ar  352  TYR352      0.0417
    155  CZ        31.8770  -74.2050  -75.2250 C.ar  352  TYR352      0.1957
    156  OH        32.7300  -74.2190  -76.3050 O.3   352  TYR352     -0.2866
    157  N         20.9810  -69.2330  -72.6070 N.3   357  PRO357     -0.2102
    158  CA        20.1670  -69.8400  -73.6770 C.3   357  PRO357      0.1504
    159  C         20.9840  -70.5570  -74.7360 C.2   357  PRO357      0.2576
    160  O         20.6250  -71.6740  -75.1280 O.2   357  PRO357     -0.2718
    161  CB        19.4030  -68.6450  -74.2680 C.3   357  PRO357      0.0282
    162  CG        20.0880  -67.4360  -73.7630 C.3   357  PRO357      0.0208
    163  CD        20.7750  -67.7810  -72.4930 C.3   357  PRO357      0.0893
    164  N         22.0720  -69.9560  -75.2080 N.am  358  VAL358     -0.1967
    165  CA        22.8600  -70.5130  -76.3080 C.3   358  VAL358      0.1712
    166  C         23.5740  -71.7920  -75.8730 C.2   358  VAL358      0.2458
    167  O         23.4980  -72.7960  -76.5970 O.2   358  VAL358     -0.2730
    168  CB        23.8490  -69.4770  -76.8690 C.3   358  VAL358      0.0289
    169  CG1       24.8880  -70.1510  -77.7520 C.3   358  VAL358      0.0023
    170  CG2       23.1040  -68.4360  -77.6600 C.3   358  VAL358      0.0023
    171  N         24.2810  -71.8230  -74.7340 N.am  359  PRO359     -0.2727
    172  CA        24.8640  -73.1050  -74.2980 C.3   359  PRO359      0.1402
    173  C         23.8190  -74.1830  -74.0880 C.2   359  PRO359      0.2269
    174  O         24.1010  -75.3670  -74.3140 O.2   359  PRO359     -0.2865
    175  CB        25.5720  -72.7450  -72.9850 C.3   359  PRO359      0.0296
    176  CG        25.8210  -71.2880  -73.0710 C.3   359  PRO359      0.0237
    177  CD        24.6610  -70.7260  -73.8240 C.3   359  PRO359      0.0939
    178  N         23.1650  -75.5000  -77.4510 N.3   362  GLN362     -0.1245
    179  CA        24.3490  -76.2450  -77.8730 C.3   362  GLN362      0.1566
    180  C         24.4060  -77.6220  -77.2210 C.2   362  GLN362      0.2260
    181  O         24.7490  -78.6120  -77.8790 O.2   362  GLN362     -0.2867
    182  CB        25.6110  -75.4400  -77.5620 C.3   362  GLN362      0.0367
    183  CG        25.8140  -74.2120  -78.4360 C.3   362  GLN362      0.0905
    184  CD        26.9850  -73.3600  -77.9890 C.2   362  GLN362      0.2608
    185  OE1       27.1770  -73.1310  -76.7960 O.2   362  GLN362     -0.2717
    186  NE2       27.8270  -72.9650  -78.9400 N.am  362  GLN362     -0.0878
    187  N         35.4030  -82.5920  -78.1190 N.3   384  ASP384     -0.1239
    188  CA        36.5090  -81.8450  -78.7170 C.3   384  ASP384      0.1674
    189  C         37.4170  -81.2830  -77.6290 C.2   384  ASP384      0.2266
    190  O         37.7970  -80.1100  -77.6310 O.2   384  ASP384     -0.2867
    191  CB        35.9920  -80.7450  -79.6410 C.3   384  ASP384      0.1410
    192  CG        37.1040  -80.0810  -80.4280 C.2   384  ASP384      0.3668
    193  OD1       38.1870  -80.6850  -80.5570 O.co2 384  ASP384     -0.2456
    194  OD2       36.8990  -78.9550  -80.9170 O.co2 384  ASP384     -0.2456
    195  N         37.4380  -78.1800  -75.8800 N.3   387  ASN387     -0.1240
    196  CA        36.6540  -77.0990  -76.4830 C.3   387  ASN387      0.1653
    197  C         35.2070  -77.1250  -76.0150 C.2   387  ASN387      0.2266
    198  O         34.6260  -76.0810  -75.6940 O.2   387  ASN387     -0.2867
    199  CB        36.6870  -77.1710  -78.0130 C.3   387  ASN387      0.1155
    200  CG        38.0170  -76.7620  -78.6000 C.2   387  ASN387      0.2627
    201  OD1       38.4070  -75.5960  -78.5290 O.2   387  ASN387     -0.2716
    202  ND2       38.6840  -77.6990  -79.2570 N.am  387  ASN387     -0.0877
    203  N         18.3380  -73.6640  -69.4770 N.3   416  HIS416     -0.1226
    204  CA        17.4910  -72.6130  -70.0130 C.3   416  HIS416      0.1752
    205  C         16.3570  -73.2220  -70.8320 C.2   416  HIS416      0.2596
    206  O         16.4880  -74.3060  -71.4090 O.2   416  HIS416     -0.2718
    207  CB        18.3260  -71.6690  -70.8760 C.3   416  HIS416      0.0759
    208  CG        17.6850  -70.3400  -71.1130 C.ar  416  HIS416      0.0818
    209  ND1       16.8620  -70.0930  -72.1900 N.ar  416  HIS416     -0.2268
    210  CD2       17.7520  -69.1820  -70.4150 C.ar  416  HIS416      0.1154
    211  CE1       16.4450  -68.8410  -72.1430 C.ar  416  HIS416      0.1986
    212  NE2       16.9710  -68.2660  -71.0760 N.ar  416  HIS416     -0.2212
    213  N         15.2280  -72.5130  -70.8720 N.am  417  LYS417     -0.1966
    214  CA        14.0500  -73.0020  -71.5810 C.3   417  LYS417      0.1728
    215  C         14.3100  -73.2080  -73.0690 C.2   417  LYS417      0.2616
    216  O         13.6390  -74.0360  -73.6970 O.2   417  LYS417     -0.2715
    217  CB        12.8910  -72.0280  -71.3530 C.3   417  LYS417      0.0311
    218  CG        11.7970  -72.0460  -72.4050 C.3   417  LYS417      0.0038
    219  CD        10.4290  -71.9720  -71.7500 C.3   417  LYS417      0.0206
    220  CE         9.3090  -71.9880  -72.7750 C.3   417  LYS417      0.1093
    221  NZ         9.0810  -70.6300  -73.3460 N.3   417  LYS417     -0.1314
    222  N         15.2890  -72.4980  -73.6370 N.am  418  TRP418     -0.1974
    223  CA        15.5950  -72.6280  -75.0570 C.3   418  TRP418      0.1640
    224  C         15.9660  -74.0510  -75.4540 C.2   418  TRP418      0.2290
    225  O         15.8310  -74.4080  -76.6300 O.2   418  TRP418     -0.2864
    226  CB        16.7230  -71.6720  -75.4410 C.3   418  TRP418      0.0576
    227  CG        16.2350  -70.3370  -75.8970 C.ar  418  TRP418      0.0006
    228  CD1       15.0730  -69.7210  -75.5350 C.ar  418  TRP418      0.0946
    229  CD2       16.8920  -69.4510  -76.8090 C.ar  418  TRP418      0.0152
    230  NE1       14.9680  -68.5040  -76.1610 N.ar  418  TRP418     -0.2442
    231  CE2       16.0720  -68.3150  -76.9500 C.ar  418  TRP418      0.0810
    232  CE3       18.0950  -69.5070  -77.5200 C.ar  418  TRP418      0.0012
    233  CZ2       16.4160  -67.2440  -77.7700 C.ar  418  TRP418      0.0191
    234  CZ3       18.4340  -68.4460  -78.3340 C.ar  418  TRP418      0.0001
    235  CH2       17.5980  -67.3280  -78.4520 C.ar  418  TRP418      0.0015
    236  N         12.4610  -75.1650  -76.3570 N.3   421  ARG421     -0.1245
    237  CA        11.8370  -74.3710  -77.4090 C.3   421  ARG421      0.1563
    238  C         12.5620  -74.5210  -78.7380 C.2   421  ARG421      0.2260
    239  O         11.9250  -74.5820  -79.7950 O.2   421  ARG421     -0.2867
    240  CB        11.7960  -72.8990  -77.0040 C.3   421  ARG421      0.0307
    241  CG        10.8020  -72.6020  -75.9180 C.3   421  ARG421      0.0489
    242  CD         9.9760  -71.3780  -76.2520 C.3   421  ARG421      0.2205
    243  NE        10.7100  -70.1350  -76.0340 N.pl3 421  ARG421     -0.0865
    244  CZ        10.8320  -69.1760  -76.9440 C.cat 421  ARG421      0.5346
    245  NH1       10.2590  -69.3150  -78.1310 N.pl3 421  ARG421      0.1354
    246  NH2       11.5130  -68.0730  -76.6650 N.pl3 421  ARG421      0.1354
@<TRIPOS>BOND
     1    14    13    2
     2    13    12    1
     3    11    12    1
     4    12    15    1
     5    21    22    1
     6    15    16    1
     7    18    16   ar
     8    18    20   ar
     9    16    17   ar
    10    22    25    1
    11    22    23    1
    12    20    19   ar
    13    25    26    1
    14    23    24    2
    15    23    29   am
    16    17    19   ar
    17    93    94    1
    18    29    30    1
    19    46    45    2
    20    26    27    1
    21    26    28    1
    22    97    94    1
    23    97    98    1
    24    41    39   ar
    25    41    42   ar
    26    45    44    1
    27    94    95    1
    28    31    30    1
    29    31    32    2
    30    98    99    1
    31    39    38   ar
    32    42    40   ar
    33    36    35    2
    34    35    34    1
    35    33    34    1
    36    91    90    1
    37    44    47    1
    38    44    43    1
    39    95   101   am
    40    95    96    2
    41    38    40   ar
    42    38    37    1
    43    47    48    1
    44    34    37    1
    45    54    55    1
    46   101   102    1
    47    88    89    2
    48    88    87    1
    49    99   100    1
    50    92    90    1
    51    90    87    1
    52    87    86    1
    53    65    67   ar
    54    65    63   ar
    55    55    56    1
    56    55    58    1
    57    67    66   ar
    58    48    50   ar
    59    48    49   ar
    60    70    69    1
    61    70    71    2
    62    68    56   am
    63    68    69    1
    64    62    63   ar
    65    62    60   ar
    66    63    61   ar
    67   102   103    1
    68   102   105    1
    69    66    64   ar
    70    60    59   ar
    71    61    64   ar
    72    61    59   ar
    73   103   104    2
    74    56    57    2
    75    50    52   ar
    76    72    69    1
    77    72    73    1
    78   106   105    1
    79   106   107    1
    80    59    58    1
    81    10     9   ar
    82    10     8   ar
    83   110   111    1
    84    49    51   ar
    85   194   192   ar
    86    73    74    1
    87     9     7   ar
    88   193   192   ar
    89     8     6   ar
    90   192   191    1
    91   124   123    1
    92   107   109   ar
    93   107   108   ar
    94    52    53   ar
    95    74    75    1
    96   123   125    1
    97   123   122    1
    98   111   114    1
    99   111   112    1
   100   239   238    2
   101    51    53   ar
   102   191   188    1
   103   114   115    1
   104     7     6   ar
   105    75    76    2
   106   202   200   am
   107     6     5    1
   108   186   184   am
   109   238   237    1
   110   112   113    2
   111   188   187    1
   112   188   189    1
   113   200   201    2
   114   200   199    1
   115   116   115    1
   116   118   119    1
   117    76    78    1
   118    76    77    1
   119   122   119    1
   120   235   234   ar
   121   235   233   ar
   122   183   184    1
   123   183   182    1
   124   115   117    1
   125   234   232   ar
   126   245   244    1
   127   199   196    1
   128   184   185    2
   129   119   120    1
   130   181   180    2
   131   179   182    1
   132   179   178    1
   133   179   180    1
   134     5     2    1
   135   233   231   ar
   136   169   168    1
   137   170   168    1
   138   190   189    2
   139     2     1    1
   140     2     3    1
   141   232   229   ar
   142   237   240    1
   143   237   236    1
   144   240   241    1
   145   231   229   ar
   146   231   230   ar
   147   244   246    1
   148   244   243    2
   149    83    84    1
   150    83    85    1
   151    83    80    1
   152   168   165    1
   153    81    82    2
   154    81    80    1
   155   229   227   ar
   156   225   224    2
   157   167   166    2
   158   196   197    1
   159   196   195    1
   160   120   126   am
   161   120   121    2
   162   165   166    1
   163   165   164    1
   164   156   155    1
   165     3     4    2
   166   242   243    1
   167   242   241    1
   168    80    79    1
   169   230   228   ar
   170   197   198    2
   171   227   228   ar
   172   227   226    1
   173   166   171   am
   174   126   127    1
   175   224   223    1
   176   226   223    1
   177   153   155   ar
   178   153   151   ar
   179   142   144   ar
   180   142   140   ar
   181   155   154   ar
   182   164   159   am
   183   160   159    2
   184   223   222    1
   185   144   143   ar
   186   140   139   ar
   187   159   158    1
   188   132   131    2
   189   171   172    1
   190   171   177    1
   191   127   130    1
   192   127   128    1
   193   174   173    2
   194   172   173    1
   195   172   175    1
   196   151   150   ar
   197   161   162    1
   198   161   158    1
   199   131   130    1
   200   131   133   am
   201   143   141   ar
   202   139   141   ar
   203   139   138    1
   204   154   152   ar
   205   177   176    1
   206   138   135    1
   207   162   163    1
   208   128   129    2
   209   216   215    2
   210   158   157    1
   211   222   215   am
   212   221   220    1
   213   176   175    1
   214   215   214    1
   215   150   152   ar
   216   150   149    1
   217   220   219    1
   218   157   163    1
   219   135   134    1
   220   135   136    1
   221   218   219    1
   222   218   217    1
   223   209   211   ar
   224   209   208   ar
   225   211   212   ar
   226   149   146    1
   227   214   217    1
   228   214   213    1
   229   206   205    2
   230   136   137    2
   231   146   145    1
   232   146   147    1
   233   208   207    1
   234   208   210   ar
   235   212   210   ar
   236   207   204    1
   237   213   205   am
   238   205   204    1
   239   204   203    1
   240   147   148    2
