@<TRIPOS>MOLECULE
tmp/5t65B00.pdb
 139 133 0 0 0
SMALL
GASTEIGER

@<TRIPOS>ATOM
      1  N         27.6760   46.6530  -17.4410 N.3    65  PHE65      -0.1241
      2  CA        27.2280   48.0320  -17.2360 C.3    65  PHE65       0.1605
      3  C         26.9220   48.3110  -15.7750 C.2    65  PHE65       0.2264
      4  O         26.3860   47.4570  -15.0660 O.2    65  PHE65      -0.2867
      5  CB        25.9870   48.3320  -18.0930 C.3    65  PHE65       0.0534
      6  CG        26.2450   48.1980  -19.5750 C.ar   65  PHE65      -0.0203
      7  CD1       26.7990   49.2450  -20.2840 C.ar   65  PHE65      -0.0042
      8  CD2       25.9910   47.0040  -20.2350 C.ar   65  PHE65      -0.0042
      9  CE1       27.0630   49.1260  -21.6540 C.ar   65  PHE65      -0.0003
     10  CE2       26.2420   46.8700  -21.6010 C.ar   65  PHE65      -0.0003
     11  CZ        26.7790   47.9350  -22.3130 C.ar   65  PHE65      -0.0000
     12  N         24.9870   51.4600  -13.4480 N.3    67  TYR67      -0.1241
     13  CA        24.1420   52.6150  -13.6800 C.3    67  TYR67       0.1605
     14  C         23.3830   53.0940  -12.4570 C.2    67  TYR67       0.2264
     15  O         23.2220   52.3670  -11.4830 O.2    67  TYR67      -0.2867
     16  CB        23.1490   52.3010  -14.8040 C.3    67  TYR67       0.0534
     17  CG        22.5740   50.9160  -14.7350 C.ar   67  TYR67      -0.0201
     18  CD1       21.5240   50.6190  -13.8790 C.ar   67  TYR67      -0.0009
     19  CD2       23.0960   49.8980  -15.5140 C.ar   67  TYR67      -0.0009
     20  CE1       21.0060   49.3450  -13.8080 C.ar   67  TYR67       0.0417
     21  CE2       22.5830   48.6260  -15.4610 C.ar   67  TYR67       0.0417
     22  CZ        21.5290   48.3560  -14.6130 C.ar   67  TYR67       0.1957
     23  OH        21.0000   47.0920  -14.5720 O.3    67  TYR67      -0.2866
     24  N         18.4750   58.7080  -15.9500 N.3    75  PHE75      -0.1241
     25  CA        19.2860   57.4940  -16.0320 C.3    75  PHE75       0.1605
     26  C         20.7170   57.8280  -16.4500 C.2    75  PHE75       0.2264
     27  O         20.9270   58.5590  -17.4160 O.2    75  PHE75      -0.2867
     28  CB        18.6540   56.5190  -17.0260 C.3    75  PHE75       0.0534
     29  CG        19.3240   55.1740  -17.0860 C.ar   75  PHE75      -0.0203
     30  CD1       19.2680   54.2940  -16.0050 C.ar   75  PHE75      -0.0042
     31  CD2       19.9500   54.7580  -18.2530 C.ar   75  PHE75      -0.0042
     32  CE1       19.8570   53.0290  -16.0710 C.ar   75  PHE75      -0.0003
     33  CE2       20.5510   53.4910  -18.3340 C.ar   75  PHE75      -0.0003
     34  CZ        20.5050   52.6220  -17.2390 C.ar   75  PHE75      -0.0000
     35  N         24.6240   55.8690  -17.0140 N.3    77  MET77      -0.1245
     36  CA        25.2000   54.5340  -17.1660 C.3    77  MET77       0.1570
     37  C         26.6260   54.5610  -17.7310 C.2    77  MET77       0.2261
     38  O         26.9460   55.3960  -18.5770 O.2    77  MET77      -0.2867
     39  CB        24.3020   53.6720  -18.0700 C.3    77  MET77       0.0387
     40  CG        24.1750   54.1740  -19.5110 C.3    77  MET77       0.0595
     41  SD        23.1360   53.1560  -20.6010 S.3    77  MET77      -0.1393
     42  CE        23.8520   51.5360  -20.3340 C.3    77  MET77       0.0692
     43  N         26.1710   52.7930  -24.1660 N.3    81  SER81      -0.1217
     44  CA        25.4430   51.8480  -24.9770 C.3    81  SER81       0.1889
     45  C         24.3510   52.5950  -25.7250 C.2    81  SER81       0.2288
     46  O         23.8170   53.5870  -25.2240 O.2    81  SER81      -0.2866
     47  CB        24.8250   50.7370  -24.1030 C.3    81  SER81       0.2089
     48  OG        23.9160   49.9610  -24.8600 O.3    81  SER81      -0.2183
     49  N         20.6160   53.1030  -26.5810 N.3    83  MET83      -0.1245
     50  CA        19.4970   52.8880  -25.6800 C.3    83  MET83       0.1570
     51  C         18.2060   52.9400  -26.4770 C.2    83  MET83       0.2261
     52  O         18.1240   53.6750  -27.4670 O.2    83  MET83      -0.2867
     53  CB        19.5070   53.9290  -24.5520 C.3    83  MET83       0.0387
     54  CG        20.5940   53.6860  -23.4960 C.3    83  MET83       0.0595
     55  SD        20.2680   52.1770  -22.5630 S.3    83  MET83      -0.1393
     56  CE        18.8900   52.8130  -21.5940 C.3    83  MET83       0.0692
     57  N         12.6830   54.4940  -22.6330 N.3    87  TYR87      -0.1241
     58  CA        13.2960   53.8380  -21.4720 C.3    87  TYR87       0.1605
     59  C         13.0370   54.6050  -20.1800 C.2    87  TYR87       0.2264
     60  O         13.2240   55.8090  -20.1110 O.2    87  TYR87      -0.2867
     61  CB        14.7970   53.6770  -21.6610 C.3    87  TYR87       0.0534
     62  CG        15.4590   52.9070  -20.5370 C.ar   87  TYR87      -0.0201
     63  CD1       15.4140   51.5120  -20.5020 C.ar   87  TYR87      -0.0009
     64  CD2       16.1460   53.5700  -19.5250 C.ar   87  TYR87      -0.0009
     65  CE1       16.0150   50.7940  -19.4680 C.ar   87  TYR87       0.0417
     66  CE2       16.7520   52.8650  -18.4860 C.ar   87  TYR87       0.0417
     67  CZ        16.6770   51.4820  -18.4660 C.ar   87  TYR87       0.1957
     68  OH        17.2860   50.7970  -17.4520 O.3    87  TYR87      -0.2866
     69  N         11.8780   49.1940  -14.4510 N.3    92  ARG92      -0.1245
     70  CA        12.7100   48.0250  -14.7170 C.3    92  ARG92       0.1563
     71  C         12.7390   47.0880  -13.5060 C.2    92  ARG92       0.2260
     72  O         12.5520   47.5340  -12.3720 O.2    92  ARG92      -0.2867
     73  CB        14.1300   48.4750  -15.0940 C.3    92  ARG92       0.0307
     74  CG        14.1650   49.4360  -16.2900 C.3    92  ARG92       0.0489
     75  CD        13.5530   48.7480  -17.5190 C.3    92  ARG92       0.2205
     76  NE        14.4520   47.7290  -18.0700 N.pl3  92  ARG92      -0.0865
     77  CZ        14.0440   46.6330  -18.7070 C.cat  92  ARG92       0.5346
     78  NH1       12.7570   46.3900  -18.8480 N.pl3  92  ARG92       0.1354
     79  NH2       14.9240   45.7680  -19.1800 N.pl3  92  ARG92       0.1354
     80  N         15.1330   45.5250  -11.9650 N.3    94  TRP94      -0.1241
     81  CA        16.1550   45.8320  -10.9730 C.3    94  TRP94       0.1605
     82  C         15.7740   47.0050  -10.0800 C.2    94  TRP94       0.2264
     83  O         16.0970   47.0280   -8.8850 O.2    94  TRP94      -0.2867
     84  CB        17.4860   46.1230  -11.6500 C.3    94  TRP94       0.0550
     85  CG        17.4610   47.1740  -12.7210 C.ar   94  TRP94       0.0003
     86  CD1       17.2470   46.9790  -14.0550 C.ar   94  TRP94       0.0946
     87  CD2       17.6950   48.5750  -12.5450 C.ar   94  TRP94       0.0152
     88  NE1       17.3360   48.1760  -14.7240 N.ar   94  TRP94      -0.2442
     89  CE2       17.6140   49.1730  -13.8200 C.ar   94  TRP94       0.0810
     90  CE3       17.9810   49.3870  -11.4330 C.ar   94  TRP94       0.0012
     91  CZ2       17.7990   50.5480  -14.0220 C.ar   94  TRP94       0.0191
     92  CZ3       18.1680   50.7570  -11.6300 C.ar   94  TRP94       0.0001
     93  CH2       18.0690   51.3230  -12.9230 C.ar   94  TRP94       0.0015
     94  N         16.1900   38.7640  -16.6580 N.3   110  TYR110     -0.1241
     95  CA        15.1790   39.5060  -17.4100 C.3   110  TYR110      0.1605
     96  C         15.7880   39.9470  -18.7440 C.2   110  TYR110      0.2264
     97  O         17.0110   39.9280  -18.9200 O.2   110  TYR110     -0.2867
     98  CB        14.6620   40.7040  -16.6070 C.3   110  TYR110      0.0534
     99  CG        15.7390   41.7270  -16.3480 C.ar  110  TYR110     -0.0201
    100  CD1       16.6250   41.5830  -15.2800 C.ar  110  TYR110     -0.0009
    101  CD2       15.8820   42.8320  -17.1750 C.ar  110  TYR110     -0.0009
    102  CE1       17.6460   42.5370  -15.0520 C.ar  110  TYR110      0.0417
    103  CE2       16.8770   43.7660  -16.9640 C.ar  110  TYR110      0.0417
    104  CZ        17.7550   43.6190  -15.9010 C.ar  110  TYR110      0.1957
    105  OH        18.7450   44.5670  -15.7440 O.3   110  TYR110     -0.2866
    106  N         17.2840   42.2140  -21.1620 N.3   112  ASP112     -0.1225
    107  CA        18.0120   43.4750  -21.1290 C.3   112  ASP112      0.1805
    108  C         17.4560   44.4540  -22.1630 C.2   112  ASP112      0.2598
    109  O         17.2330   44.0890  -23.3170 O.2   112  ASP112     -0.2718
    110  CB        19.5030   43.2420  -21.3820 C.3   112  ASP112      0.1424
    111  CG        20.3090   44.5280  -21.3510 C.2   112  ASP112      0.3668
    112  OD1       20.4150   45.1880  -22.4070 O.co2 112  ASP112     -0.2456
    113  OD2       20.8400   44.8870  -20.2830 O.co2 112  ASP112     -0.2456
    114  N         17.2630   45.7010  -21.7610 N.am  113  ALA113     -0.1966
    115  CA        16.5720   46.6790  -22.6210 C.3   113  ALA113      0.1728
    116  C         17.3550   47.0410  -23.8940 C.2   113  ALA113      0.2616
    117  O         16.7600   47.4450  -24.8960 O.2   113  ALA113     -0.2715
    118  CB        16.2520   47.9470  -21.8250 C.3   113  ALA113      0.0334
    119  N         18.6780   46.8950  -23.8540 N.am  114  ALA114     -0.1977
    120  CA        19.5210   47.2780  -24.9870 C.3   114  ALA114      0.1597
    121  C         19.8620   46.1120  -25.9060 C.2   114  ALA114      0.2287
    122  O         19.9580   46.2970  -27.1160 O.2   114  ALA114     -0.2864
    123  CB        20.8080   47.9280  -24.4970 C.3   114  ALA114      0.0319
    124  N         19.7310   38.9230  -18.7820 N.3   119  ILE119     -0.1245
    125  CA        20.8040   39.2660  -17.8620 C.3   119  ILE119      0.1561
    126  C         20.2940   39.2170  -16.4360 C.2   119  ILE119      0.2260
    127  O         19.0940   39.1450  -16.1910 O.2   119  ILE119     -0.2867
    128  CB        21.3950   40.6660  -18.1210 C.3   119  ILE119      0.0252
    129  CG1       20.2970   41.7190  -18.0660 C.3   119  ILE119      0.0019
    130  CG2       22.1480   40.7320  -19.4500 C.3   119  ILE119      0.0019
    131  CD1       20.8330   43.0840  -17.8050 C.3   119  ILE119      0.0001
    132  N         25.1330   44.9050  -13.9400 N.3   139  ASP139     -0.1239
    133  CA        24.6470   43.7970  -14.7360 C.3   139  ASP139      0.1674
    134  C         25.6520   42.6530  -14.7680 C.2   139  ASP139      0.2266
    135  O         26.8520   42.8910  -14.8760 O.2   139  ASP139     -0.2867
    136  CB        24.3510   44.2540  -16.1660 C.3   139  ASP139      0.1410
    137  CG        23.0850   45.0550  -16.2630 C.2   139  ASP139      0.3668
    138  OD1       22.2760   45.0220  -15.3040 O.co2 139  ASP139     -0.2456
    139  OD2       22.8800   45.6840  -17.3200 O.co2 139  ASP139     -0.2456
@<TRIPOS>BOND
     1    52    51    2
     2   122   121    2
     3    49    50    1
     4    51    50    1
     5   121   120    1
     6    45    46    2
     7    45    44    1
     8    50    53    1
     9   120   123    1
    10   120   119    1
    11    44    43    1
    12    44    47    1
    13   117   116    2
    14    48    47    1
    15    53    54    1
    16   116   119   am
    17   116   115    1
    18    54    55    1
    19   109   108    2
    20    57    58    1
    21   115   118    1
    22   115   114    1
    23    55    56    1
    24   112   111   ar
    25    11     9   ar
    26    11    10   ar
    27   108   114   am
    28   108   107    1
    29    61    58    1
    30    61    62    1
    31     9     7   ar
    32    10     8   ar
    33    58    59    1
    34   110   111    1
    35   110   107    1
    36   111   113   ar
    37   106   107    1
    38    41    42    1
    39    41    40    1
    40    62    63   ar
    41    62    64   ar
    42    63    65   ar
    43     7     6   ar
    44     8     6   ar
    45    59    60    2
    46     6     5    1
    47    64    66   ar
    48    40    39    1
    49    65    67   ar
    50   130   128    1
    51    79    77    1
    52    97    96    2
    53    78    77    1
    54   124   125    1
    55    96    95    1
    56    77    76    2
    57    38    37    2
    58    66    67   ar
    59    67    68    1
    60    33    31   ar
    61    33    34   ar
    62    31    29   ar
    63   128   129    1
    64   128   125    1
    65     5     2    1
    66    76    75    1
    67    39    36    1
    68   129   131    1
    69   125   126    1
    70    37    36    1
    71    75    74    1
    72     1     2    1
    73    27    26    2
    74    95    94    1
    75    95    98    1
    76   139   137   ar
    77    34    32   ar
    78     2     3    1
    79   101   103   ar
    80   101    99   ar
    81    36    35    1
    82    29    28    1
    83    29    30   ar
    84    28    25    1
    85   103   104   ar
    86    98    99    1
    87    26    25    1
    88   126   127    2
    89    99   100   ar
    90    74    73    1
    91   137   136    1
    92   137   138   ar
    93   136   133    1
    94    32    30   ar
    95    25    24    1
    96   104   105    1
    97   104   102   ar
    98     3     4    2
    99    19    21   ar
   100    19    17   ar
   101    21    22   ar
   102   100   102   ar
   103    73    70    1
   104   135   134    2
   105    16    17    1
   106    16    13    1
   107   134   133    1
   108   133   132    1
   109    17    18   ar
   110    88    86   ar
   111    88    89   ar
   112    70    69    1
   113    70    71    1
   114    22    23    1
   115    22    20   ar
   116    86    85   ar
   117    91    89   ar
   118    91    93   ar
   119    18    20   ar
   120    89    87   ar
   121    13    12    1
   122    13    14    1
   123    71    72    2
   124    93    92   ar
   125    85    87   ar
   126    85    84    1
   127    87    90   ar
   128    14    15    2
   129    80    81    1
   130    84    81    1
   131    92    90   ar
   132    81    82    1
   133    82    83    2
