@<TRIPOS>MOLECULE
tmp/5t66A00.pdb
 114 107 0 0 0
SMALL
GASTEIGER

@<TRIPOS>ATOM
      1  N        -43.3360    8.0940   19.9650 N.3    44  SER44      -0.1217
      2  CA       -42.7470    8.4740   21.2590 C.3    44  SER44       0.1889
      3  C        -42.4000    9.9640   21.4030 C.2    44  SER44       0.2288
      4  O        -42.0540   10.3760   22.4640 O.2    44  SER44      -0.2866
      5  CB       -41.4810    7.6230   21.5560 C.3    44  SER44       0.2089
      6  OG       -41.8670    6.2440   21.7060 O.3    44  SER44      -0.2183
      7  N        -43.7810   -3.6970   25.1370 N.3    78  ASN78      -0.1225
      8  CA       -42.8420   -4.1150   24.1020 C.3    78  ASN78       0.1785
      9  C        -41.4380   -3.5510   24.2800 C.2    78  ASN78       0.2597
     10  O        -40.4780   -4.1440   23.7750 O.2    78  ASN78      -0.2718
     11  CB       -43.3560   -3.6760   22.7330 C.3    78  ASN78       0.1169
     12  CG       -43.4400   -2.1680   22.6150 C.2    78  ASN78       0.2627
     13  OD1      -43.8490   -1.4850   23.5570 O.2    78  ASN78      -0.2716
     14  ND2      -43.0440   -1.6400   21.4650 N.am   78  ASN78      -0.0877
     15  N        -41.2900   -2.4140   24.9600 N.am   79  TYR79      -0.1976
     16  CA       -39.9900   -1.7500   25.0500 C.3    79  TYR79       0.1639
     17  C        -39.9150   -1.0750   26.4180 C.2    79  TYR79       0.2290
     18  O        -40.4700    0.0120   26.6070 O.2    79  TYR79      -0.2864
     19  CB       -39.8070   -0.7500   23.9130 C.3    79  TYR79       0.0560
     20  CG       -38.3950   -0.2240   23.7980 C.ar   79  TYR79      -0.0198
     21  CD1      -37.3610   -1.0570   23.3960 C.ar   79  TYR79      -0.0009
     22  CD2      -38.0930    1.1000   24.0940 C.ar   79  TYR79      -0.0009
     23  CE1      -36.0660   -0.5920   23.2930 C.ar   79  TYR79       0.0417
     24  CE2      -36.7970    1.5760   23.9930 C.ar   79  TYR79       0.0417
     25  CZ       -35.7900    0.7230   23.5900 C.ar   79  TYR79       0.1957
     26  OH       -34.4990    1.1800   23.4860 O.3    79  TYR79      -0.2866
     27  N        -36.8920    6.3620   26.0230 N.3   104  SER104     -0.1217
     28  CA       -38.1520    6.0470   25.3510 C.3   104  SER104      0.1889
     29  C        -38.7940    4.7940   25.9450 C.2   104  SER104      0.2288
     30  O        -39.3730    3.9710   25.2330 O.2   104  SER104     -0.2866
     31  CB       -37.9530    5.9040   23.8420 C.3   104  SER104      0.2089
     32  OG       -39.1200    6.3140   23.1500 O.3   104  SER104     -0.2183
     33  N        -41.5590    2.6620   27.4070 N.3   106  ASN106     -0.1240
     34  CA       -42.9990    2.7470   27.1830 C.3   106  ASN106      0.1653
     35  C        -43.7940    2.5980   28.4730 C.2   106  ASN106      0.2266
     36  O        -44.8620    3.2050   28.6080 O.2   106  ASN106     -0.2867
     37  CB       -43.4430    1.6890   26.1710 C.3   106  ASN106      0.1155
     38  CG       -43.2410    2.1380   24.7320 C.2   106  ASN106      0.2627
     39  OD1      -43.0520    3.3230   24.4640 O.2   106  ASN106     -0.2716
     40  ND2      -43.2920    1.1910   23.8000 N.am  106  ASN106     -0.0877
     41  N        -48.4620    0.1810   23.9860 N.3   141  PRO141     -0.2116
     42  CA       -47.7440    0.5250   22.7550 C.3   141  PRO141      0.1372
     43  C        -48.6380    0.8820   21.5640 C.2   141  PRO141      0.2244
     44  O        -48.1110    1.2760   20.5240 O.2   141  PRO141     -0.2868
     45  CB       -46.9760   -0.7590   22.4580 C.3   141  PRO141      0.0268
     46  CG       -47.9250   -1.8270   22.8820 C.3   141  PRO141      0.0207
     47  CD       -48.6960   -1.2720   24.0710 C.3   141  PRO141      0.0892
     48  N        -48.5470    3.8060   18.6990 N.3   144  ASN144     -0.1225
     49  CA       -47.5280    3.8800   17.6600 C.3   144  ASN144      0.1785
     50  C        -47.9160    3.1440   16.3810 C.2   144  ASN144      0.2597
     51  O        -47.0510    2.9340   15.5220 O.2   144  ASN144     -0.2718
     52  CB       -46.2060    3.2960   18.1730 C.3   144  ASN144      0.1169
     53  CG       -45.7480    3.9280   19.4650 C.2   144  ASN144      0.2627
     54  OD1      -45.2430    5.0550   19.4790 O.2   144  ASN144     -0.2716
     55  ND2      -45.9050    3.1960   20.5630 N.am  144  ASN144     -0.0877
     56  N        -49.1810    2.7330   16.2320 N.am  145  THR145     -0.1953
     57  CA       -49.5620    1.9690   15.0460 C.3   145  THR145      0.1897
     58  C        -49.3170    2.7670   13.7710 C.2   145  THR145      0.2313
     59  O        -48.8220    2.2250   12.7760 O.2   145  THR145     -0.2863
     60  CB       -51.0270    1.5310   15.1270 C.3   145  THR145      0.1794
     61  OG1      -51.8500    2.6420   15.5040 O.3   145  THR145     -0.2208
     62  CG2      -51.1920    0.3990   16.1290 C.3   145  THR145      0.0378
     63  N        -31.1120    8.4180   22.6940 N.3   190  THR190     -0.1218
     64  CA       -31.6390    7.7340   21.5190 C.3   190  THR190      0.1862
     65  C        -31.4780    8.5190   20.2240 C.2   190  THR190      0.2287
     66  O        -31.8550    8.0070   19.1650 O.2   190  THR190     -0.2866
     67  CB       -33.1310    7.4220   21.7050 C.3   190  THR190      0.1770
     68  OG1      -33.8700    8.6500   21.7420 O.3   190  THR190     -0.2211
     69  CG2      -33.3770    6.6370   22.9830 C.3   190  THR190      0.0375
     70  N        -36.2160   14.3980   21.3630 N.3   208  LYS208     -0.1231
     71  CA       -36.9760   13.1850   21.6450 C.3   208  LYS208      0.1693
     72  C        -37.3280   12.5250   20.3200 C.2   208  LYS208      0.2593
     73  O        -37.9620   13.1470   19.4610 O.2   208  LYS208     -0.2718
     74  CB       -38.2490   13.4800   22.4440 C.3   208  LYS208      0.0285
     75  CG       -39.0800   12.2310   22.7540 C.3   208  LYS208      0.0035
     76  CD       -38.4390   11.3810   23.8390 C.3   208  LYS208      0.0206
     77  CE       -38.9160    9.9370   23.7930 C.3   208  LYS208      0.1093
     78  NZ       -38.2910    9.1790   22.6770 N.3   208  LYS208     -0.1314
     79  N        -36.9160   11.2710   20.1640 N.am  209  THR209     -0.1939
     80  CA       -37.1480   10.4800   18.9650 C.3   209  THR209      0.2028
     81  C        -38.4720    9.7190   19.0480 C.2   209  THR209      0.2643
     82  O        -39.1120    9.6350   20.0990 O.2   209  THR209     -0.2714
     83  CB       -36.0010    9.4930   18.7740 C.3   209  THR209      0.1808
     84  OG1      -35.8020    8.7700   19.9990 O.3   209  THR209     -0.2208
     85  CG2      -34.7160   10.2210   18.3940 C.3   209  THR209      0.0379
     86  N        -38.8690    9.1450   17.9200 N.am  210  GLY210     -0.1939
     87  CA       -40.0410    8.2840   17.8820 C.3   210  GLY210      0.2014
     88  C        -39.9290    7.2570   16.7790 C.2   210  GLY210      0.2640
     89  O        -39.3630    7.5230   15.7150 O.2   210  GLY210     -0.2714
     90  N        -40.4630    6.0620   17.0510 N.am  211  SER211     -0.1935
     91  CA       -40.5060    4.9560   16.1020 C.3   211  SER211      0.2055
     92  C        -41.8680    4.2800   16.1850 C.2   211  SER211      0.2644
     93  O        -42.4200    4.1200   17.2770 O.2   211  SER211     -0.2714
     94  CB       -39.4190    3.9090   16.3860 C.3   211  SER211      0.2130
     95  OG       -38.1190    4.4640   16.3330 O.3   211  SER211     -0.2179
     96  N        -42.3990    3.8630   15.0410 N.am  212  GLY212     -0.1939
     97  CA       -43.6790    3.1930   15.0430 C.3   212  GLY212      0.2014
     98  C        -43.8930    2.3690   13.7950 C.2   212  GLY212      0.2639
     99  O        -42.9810    2.1740   12.9870 O.2   212  GLY212     -0.2714
    100  N        -45.1160    1.8680   13.6640 N.am  213  GLY213     -0.1954
    101  CA       -45.5030    1.1290   12.4800 C.3   213  GLY213      0.1869
    102  C        -45.3600    1.9710   11.2290 C.2   213  GLY213      0.2309
    103  O        -45.1750    3.1870   11.2620 O.2   213  GLY213     -0.2863
    104  N        -33.8480    6.7350   10.1760 N.3   248  ARG248     -0.1245
    105  CA       -33.2910    7.8560   10.9210 C.3   248  ARG248      0.1563
    106  C        -32.3750    8.6980   10.0420 C.2   248  ARG248      0.2260
    107  O        -32.2410    9.9060   10.2650 O.2   248  ARG248     -0.2867
    108  CB       -32.5500    7.3450   12.1540 C.3   248  ARG248      0.0307
    109  CG       -33.4630    6.6810   13.1820 C.3   248  ARG248      0.0489
    110  CD       -32.6840    6.1400   14.3770 C.3   248  ARG248      0.2205
    111  NE       -31.7650    5.0760   13.9900 N.pl3 248  ARG248     -0.0865
    112  CZ       -30.8680    4.5250   14.8020 C.cat 248  ARG248      0.5346
    113  NH1      -30.7550    4.9400   16.0570 N.pl3 248  ARG248      0.1354
    114  NH2      -30.0750    3.5610   14.3550 N.pl3 248  ARG248      0.1354
@<TRIPOS>BOND
     1   106   107    2
     2   106   105    1
     3   104   105    1
     4   105   108    1
     5   102   103    2
     6   102   101    1
     7   108   109    1
     8   101   100    1
     9    59    58    2
    10    99    98    2
    11   109   110    1
    12   100    98   am
    13    58    57    1
    14    98    97    1
    15   111   110    1
    16   111   112    2
    17   114   112    1
    18   112   113    1
    19    96    97    1
    20    96    92   am
    21    57    60    1
    22    57    56    1
    23    60    61    1
    24    60    62    1
    25    51    50    2
    26    89    88    2
    27    91    92    1
    28    91    94    1
    29    91    90    1
    30    92    93    2
    31    56    50   am
    32    95    94    1
    33    50    49    1
    34    88    90   am
    35    88    87    1
    36    49    52    1
    37    49    48    1
    38    87    86    1
    39    86    81   am
    40    52    53    1
    41    85    83    1
    42    83    80    1
    43    83    84    1
    44    80    81    1
    45    80    79    1
    46    81    82    2
    47    66    65    2
    48    73    72    2
    49    53    54    2
    50    53    55   am
    51     1     2    1
    52    79    72   am
    53    65    64    1
    54    72    71    1
    55    44    43    2
    56     2     3    1
    57     2     5    1
    58    70    71    1
    59     3     4    2
    60    14    12   am
    61    64    67    1
    62    64    63    1
    63     5     6    1
    64    43    42    1
    65    71    74    1
    66    67    68    1
    67    67    69    1
    68    74    75    1
    69    45    42    1
    70    45    46    1
    71    12    11    1
    72    12    13    2
    73    78    77    1
    74    11     8    1
    75    75    76    1
    76    42    41    1
    77    46    47    1
    78    32    31    1
    79    23    21   ar
    80    23    25   ar
    81    21    20   ar
    82    26    25    1
    83    25    24   ar
    84    10     9    2
    85    77    76    1
    86    20    19    1
    87    20    22   ar
    88    40    38   am
    89    31    28    1
    90    19    16    1
    91    41    47    1
    92    24    22   ar
    93     8     9    1
    94     8     7    1
    95     9    15   am
    96    39    38    2
    97    38    37    1
    98    15    16    1
    99    16    17    1
   100    30    29    2
   101    28    29    1
   102    28    27    1
   103    37    34    1
   104    17    18    2
   105    34    33    1
   106    34    35    1
   107    35    36    2
