@<TRIPOS>MOLECULE
tmp/5t68B00.pdb
 149 140 0 0 0
SMALL
GASTEIGER

@<TRIPOS>ATOM
      1  N          5.4850   -6.7490   34.8350 N.3    15  LEU15      -0.1231
      2  CA         6.6620   -6.2670   34.1100 C.3    15  LEU15       0.1693
      3  C          6.3190   -6.0370   32.6300 C.2    15  LEU15       0.2593
      4  O          7.1190   -5.4560   31.8870 O.2    15  LEU15      -0.2718
      5  CB         7.8140   -7.2720   34.2240 C.3    15  LEU15       0.0284
      6  CG         8.3770   -7.4870   35.5990 C.3    15  LEU15       0.0019
      7  CD1        9.0860   -8.7880   35.6580 C.3    15  LEU15       0.0001
      8  CD2        9.2770   -6.3370   36.0130 C.3    15  LEU15       0.0001
      9  N          5.1350   -6.5010   32.2340 N.am   16  GLY16      -0.1942
     10  CA         4.6160   -6.3710   30.8810 C.3    16  GLY16       0.2014
     11  C          3.2590   -7.0230   30.7200 C.2    16  GLY16       0.2639
     12  O          2.6390   -7.4390   31.7060 O.2    16  GLY16      -0.2714
     13  N          2.7910   -7.0980   29.4550 N.am   17  SER17      -0.1949
     14  CA         1.5190   -7.7000   29.0570 C.3    17  SER17       0.1924
     15  C          1.4470   -7.8690   27.5300 C.2    17  SER17       0.2314
     16  O          2.3250   -7.3740   26.8150 O.2    17  SER17      -0.2863
     17  CB         0.3170   -6.9240   29.6000 C.3    17  SER17       0.2116
     18  OG        -0.9010   -7.5130   29.1760 O.3    17  SER17      -0.2180
     19  N         -1.1110  -12.7540   25.0270 N.3    20  PHE20      -0.1241
     20  CA        -0.7060  -13.9380   25.7630 C.3    20  PHE20       0.1605
     21  C         -1.2320  -13.8490   27.2000 C.2    20  PHE20       0.2264
     22  O         -1.9650  -14.7340   27.6290 O.2    20  PHE20      -0.2867
     23  CB         0.8230  -14.1480   25.6960 C.3    20  PHE20       0.0534
     24  CG         1.7150  -12.9790   26.0560 C.ar   20  PHE20      -0.0203
     25  CD1        2.1530  -12.7930   27.3650 C.ar   20  PHE20      -0.0042
     26  CD2        2.1950  -12.1180   25.0730 C.ar   20  PHE20      -0.0042
     27  CE1        3.0040  -11.7280   27.6940 C.ar   20  PHE20      -0.0003
     28  CE2        3.0610  -11.0620   25.4010 C.ar   20  PHE20      -0.0003
     29  CZ         3.4560  -10.8720   26.7090 C.ar   20  PHE20      -0.0000
     30  N          3.0300  -10.4980   32.5480 N.3    23  VAL23      -0.1245
     31  CA         4.4000  -10.8950   32.8980 C.3    23  VAL23       0.1561
     32  C          4.7000  -10.4580   34.3440 C.2    23  VAL23       0.2260
     33  O          5.3540   -9.4380   34.5470 O.2    23  VAL23      -0.2867
     34  CB         5.4780  -10.4160   31.8700 C.3    23  VAL23       0.0252
     35  CG1        6.8630  -10.9680   32.2120 C.3    23  VAL23       0.0019
     36  CG2        5.1000  -10.8050   30.4470 C.3    23  VAL23       0.0019
     37  N         10.9050  -13.9530   35.8730 N.3    38  ALA38      -0.1245
     38  CA         9.9180  -13.2030   35.0940 C.3    38  ALA38       0.1562
     39  C          8.9370  -14.2890   34.6700 C.2    38  ALA38       0.2260
     40  O          9.3700  -15.3800   34.2690 O.2    38  ALA38      -0.2867
     41  CB        10.5720  -12.5850   33.8850 C.3    38  ALA38       0.0290
     42  N          5.4900  -15.3700   32.4970 N.3    40  LYS40      -0.1245
     43  CA         4.4820  -15.2280   31.4470 C.3    40  LYS40       0.1561
     44  C          3.2510  -16.0930   31.8700 C.2    40  LYS40       0.2260
     45  O          3.3490  -17.3240   31.9900 O.2    40  LYS40      -0.2867
     46  CB         5.0860  -15.7100   30.1010 C.3    40  LYS40       0.0271
     47  CG         4.6390  -14.9320   28.8580 C.3    40  LYS40       0.0035
     48  CD         5.6940  -14.9320   27.7200 C.3    40  LYS40       0.0206
     49  CE         6.8590  -13.9770   27.9630 C.3    40  LYS40       0.1093
     50  NZ         7.8660  -13.9630   26.8590 N.3    40  LYS40      -0.1314
     51  N         17.6960  -14.8850   27.0680 N.3    66  VAL66      -0.1245
     52  CA        16.7800  -15.0880   28.2050 C.3    66  VAL66       0.1561
     53  C         16.5080  -16.5760   28.4540 C.2    66  VAL66       0.2260
     54  O         15.6700  -17.1920   27.7780 O.2    66  VAL66      -0.2867
     55  CB        15.4650  -14.2720   28.0780 C.3    66  VAL66       0.0252
     56  CG1       14.4840  -14.6290   29.1910 C.3    66  VAL66       0.0019
     57  CG2       15.7410  -12.7690   28.0780 C.3    66  VAL66       0.0019
     58  N         10.9650  -17.6510   33.3200 N.3    81  MET81      -0.1230
     59  CA        12.2630  -17.2610   32.7390 C.3    81  MET81       0.1702
     60  C         13.2170  -16.5520   33.7260 C.2    81  MET81       0.2592
     61  O         12.8480  -16.2240   34.8540 O.2    81  MET81      -0.2718
     62  CB        12.0670  -16.3860   31.4810 C.3    81  MET81       0.0401
     63  CG        11.1880  -17.0020   30.4520 C.3    81  MET81       0.0596
     64  SD        10.2340  -15.7890   29.5300 S.3    81  MET81      -0.1393
     65  CE         9.0500  -15.2400   30.7860 C.3    81  MET81       0.0692
     66  N         14.4460  -16.3090   33.2820 N.am   82  GLU82      -0.1966
     67  CA        15.4210  -15.6240   34.0910 C.3    82  GLU82       0.1733
     68  C         15.1670  -14.1390   33.9330 C.2    82  GLU82       0.2616
     69  O         14.9620  -13.6470   32.8180 O.2    82  GLU82      -0.2715
     70  CB        16.8520  -16.1370   33.8120 C.3    82  GLU82       0.0429
     71  CG        17.7850  -15.2950   32.9590 C.3    82  GLU82       0.1163
     72  CD        19.2360  -15.7270   33.1100 C.2    82  GLU82       0.3649
     73  OE1       19.7940  -15.6230   34.2300 O.co2  82  GLU82      -0.2457
     74  OE2       19.8080  -16.2060   32.1060 O.co2  82  GLU82      -0.2457
     75  N         15.0090  -13.4660   35.0750 N.am   83  MET83      -0.1963
     76  CA        14.6570  -12.0400   35.1910 C.3    83  MET83       0.1736
     77  C         15.6960  -11.0440   34.5980 C.2    83  MET83       0.2616
     78  O         16.8730  -11.0720   34.9630 O.2    83  MET83      -0.2715
     79  CB        14.3700  -11.7240   36.6780 C.3    83  MET83       0.0427
     80  CG        14.1020  -10.2850   36.9790 C.3    83  MET83       0.0599
     81  SD        12.5200   -9.7820   36.3120 S.3    83  MET83      -0.1393
     82  CE        12.4150   -8.1470   36.9800 C.3    83  MET83       0.0692
     83  N         15.2450  -10.1380   33.7320 N.am   84  ALA84      -0.1963
     84  CA        16.1370   -9.0900   33.2430 C.3    84  ALA84       0.1728
     85  C         15.8610   -7.8390   34.1170 C.2    84  ALA84       0.2616
     86  O         15.0740   -6.9710   33.7490 O.2    84  ALA84      -0.2715
     87  CB        15.8800   -8.8020   31.7770 C.3    84  ALA84       0.0334
     88  N         16.5210   -7.7720   35.2740 N.am   85  GLU85      -0.1963
     89  CA        16.3850   -6.7650   36.3280 C.3    85  GLU85       0.1733
     90  C         16.1090   -5.2740   35.8930 C.2    85  GLU85       0.2616
     91  O         15.4350   -4.5550   36.6270 O.2    85  GLU85      -0.2715
     92  CB        17.6150   -6.8280   37.2480 C.3    85  GLU85       0.0429
     93  CG        17.8890   -8.2230   37.8250 C.3    85  GLU85       0.1163
     94  CD        17.1760   -8.5960   39.1210 C.2    85  GLU85       0.3649
     95  OE1       17.8640   -9.0800   40.0510 O.co2  85  GLU85      -0.2457
     96  OE2       15.9390   -8.4080   39.2100 O.co2  85  GLU85      -0.2457
     97  N         16.5800   -4.8300   34.7230 N.am   86  LEU86      -0.1963
     98  CA        16.4180   -3.4360   34.2610 C.3    86  LEU86       0.1728
     99  C         15.3890   -3.2280   33.1200 C.2    86  LEU86       0.2617
    100  O         14.9620   -2.1000   32.8830 O.2    86  LEU86      -0.2715
    101  CB        17.7900   -2.8530   33.8650 C.3    86  LEU86       0.0311
    102  CG        18.6390   -2.1610   34.9340 C.3    86  LEU86       0.0022
    103  CD1       19.0670   -3.1100   36.0210 C.3    86  LEU86       0.0001
    104  CD2       19.8790   -1.5710   34.3070 C.3    86  LEU86       0.0001
    105  N         15.0210   -4.2830   32.4180 N.am   87  GLY87      -0.1941
    106  CA        13.9910   -4.1790   31.3980 C.3    87  GLY87       0.1998
    107  C         14.3930   -3.7790   29.9970 C.2    87  GLY87       0.2480
    108  O         15.5870   -3.7170   29.6740 O.2    87  GLY87      -0.2729
    109  N         13.3630   -3.5270   29.1430 N.am   88  PRO88      -0.2726
    110  CA        13.6150   -3.2740   27.7120 C.3    88  PRO88       0.1402
    111  C         14.5690   -2.1350   27.3970 C.2    88  PRO88       0.2269
    112  O         14.4430   -1.0640   27.9780 O.2    88  PRO88      -0.2865
    113  CB        12.2140   -3.0260   27.1490 C.3    88  PRO88       0.0296
    114  CG        11.3080   -3.7790   28.0540 C.3    88  PRO88       0.0237
    115  CD        11.9140   -3.6250   29.4180 C.3    88  PRO88       0.0939
    116  N         12.9400    1.5140   26.3750 N.3    91  LYS91      -0.1245
    117  CA        12.4630    2.2200   27.5670 C.3    91  LYS91       0.1561
    118  C         13.6200    2.5660   28.4830 C.2    91  LYS91       0.2260
    119  O         13.6630    3.7010   28.9500 O.2    91  LYS91      -0.2867
    120  CB        11.3560    1.4570   28.3090 C.3    91  LYS91       0.0271
    121  CG         9.9900    2.1230   28.1290 C.3    91  LYS91       0.0035
    122  CD         8.8080    1.1550   28.2840 C.3    91  LYS91       0.0206
    123  CE         8.4560    0.4180   27.0090 C.3    91  LYS91       0.1093
    124  NZ         7.0700   -0.1170   27.0400 N.3    91  LYS91      -0.1314
    125  N         13.0850   -3.0900   21.9780 N.3   131  ARG131     -0.1245
    126  CA        12.0630   -3.5610   22.9300 C.3   131  ARG131      0.1563
    127  C         12.2330   -5.0780   23.3390 C.2   131  ARG131      0.2260
    128  O         11.9550   -5.4220   24.4820 O.2   131  ARG131     -0.2867
    129  CB        10.6290   -3.2330   22.3980 C.3   131  ARG131      0.0307
    130  CG         9.9560   -4.2560   21.4800 C.3   131  ARG131      0.0489
    131  CD         9.6610   -3.7270   20.0860 C.3   131  ARG131      0.2205
    132  NE         8.9830   -4.7410   19.2610 N.pl3 131  ARG131     -0.0865
    133  CZ         8.6620   -4.6110   17.9710 C.cat 131  ARG131      0.5346
    134  NH1        8.9460   -3.4910   17.3160 N.pl3 131  ARG131      0.1354
    135  NH2        8.0540   -5.5970   17.3300 N.pl3 131  ARG131      0.1354
    136  N         16.4140   -7.1260   26.6760 N.3   134  LEU134     -0.1245
    137  CA        16.2000   -6.7100   28.0580 C.3   134  LEU134      0.1561
    138  C         17.5410   -6.5680   28.7670 C.2   134  LEU134      0.2260
    139  O         18.4850   -7.3070   28.4680 O.2   134  LEU134     -0.2867
    140  CB        15.3070   -7.6830   28.8120 C.3   134  LEU134      0.0270
    141  CG        14.0710   -8.1970   28.1090 C.3   134  LEU134      0.0019
    142  CD1       13.6120   -9.4830   28.7450 C.3   134  LEU134      0.0001
    143  CD2       12.9570   -7.1660   28.0680 C.3   134  LEU134      0.0001
    144  N         15.1400  -11.5640   24.1490 N.3   144  SER144     -0.1217
    145  CA        13.8760  -12.1440   24.6260 C.3   144  SER144      0.1889
    146  C         12.8020  -12.1140   23.5330 C.2   144  SER144      0.2288
    147  O         13.0880  -11.6920   22.4150 O.2   144  SER144     -0.2866
    148  CB        13.3680  -11.3390   25.8080 C.3   144  SER144      0.2089
    149  OG        13.0700  -10.0080   25.4120 O.3   144  SER144     -0.2183
@<TRIPOS>BOND
     1   134   133    1
     2   135   133    1
     3   133   132    2
     4   132   131    1
     5   131   130    1
     6   130   129    1
     7   125   126    1
     8   129   126    1
     9   147   146    2
    10   126   127    1
    11   127   128    2
    12   146   145    1
    13   144   145    1
    14   145   148    1
    15    19    20    1
    16    26    28   ar
    17    26    24   ar
    18    28    29   ar
    19   149   148    1
    20    23    20    1
    21    23    24    1
    22    20    21    1
    23    24    25   ar
    24   116   117    1
    25   136   137    1
    26    29    27   ar
    27    16    15    2
    28    50    49    1
    29   123   124    1
    30   123   122    1
    31    51    52    1
    32   113   110    1
    33   113   114    1
    34    21    22    2
    35    25    27   ar
    36   111   110    1
    37   111   112    2
    38    15    14    1
    39   117   120    1
    40   117   118    1
    41   110   109    1
    42    48    49    1
    43    48    47    1
    44    54    53    2
    45   114   115    1
    46   137   138    1
    47   137   140    1
    48   143   141    1
    49    57    55    1
    50    55    52    1
    51    55    56    1
    52   141   142    1
    53   141   140    1
    54   121   122    1
    55   121   120    1
    56    52    53    1
    57   139   138    2
    58   118   119    2
    59    47    46    1
    60    14    13    1
    61    14    17    1
    62   109   115    1
    63   109   107   am
    64    18    17    1
    65    13    11   am
    66    64    63    1
    67    64    65    1
    68   108   107    2
    69   107   106    1
    70    46    43    1
    71    36    34    1
    72    63    62    1
    73    11    10    1
    74    11    12    2
    75    10     9    1
    76   106   105    1
    77    43    44    1
    78    43    42    1
    79    62    59    1
    80    87    84    1
    81    44    45    2
    82    34    35    1
    83    34    31    1
    84     4     3    2
    85    74    72   ar
    86     9     3   am
    87   105    99   am
    88    30    31    1
    89     3     2    1
    90    59    58    1
    91    59    60    1
    92    69    68    2
    93   100    99    2
    94    31    32    1
    95    71    72    1
    96    71    70    1
    97    72    73   ar
    98    99    98    1
    99    84    83    1
   100    84    85    1
   101    66    60   am
   102    66    67    1
   103    60    61    2
   104    83    77   am
   105    86    85    2
   106    70    67    1
   107   101    98    1
   108   101   102    1
   109    41    38    1
   110    68    67    1
   111    68    75   am
   112     2     5    1
   113     2     1    1
   114    85    88   am
   115     5     6    1
   116    98    97    1
   117    40    39    2
   118   104   102    1
   119    32    33    2
   120    77    78    2
   121    77    76    1
   122    39    38    1
   123    97    90   am
   124   102   103    1
   125    75    76    1
   126    38    37    1
   127    76    79    1
   128    88    89    1
   129     6     7    1
   130     6     8    1
   131    90    89    1
   132    90    91    2
   133    81    80    1
   134    81    82    1
   135    89    92    1
   136    79    80    1
   137    92    93    1
   138    93    94    1
   139    94    96   ar
   140    94    95   ar
