@<TRIPOS>MOLECULE
tmp/5t6bB02.pdb
 158 149 0 0 0
SMALL
GASTEIGER

@<TRIPOS>ATOM
      1  N         19.1300  -13.3960   -0.4040 N.3    70  TYR70      -0.1241
      2  CA        17.7020  -13.1360   -0.4800 C.3    70  TYR70       0.1605
      3  C         16.8020  -14.1290    0.3250 C.2    70  TYR70       0.2264
      4  O         16.7850  -15.3570    0.0930 O.2    70  TYR70      -0.2867
      5  CB        17.2390  -13.0850   -1.9290 C.3    70  TYR70       0.0534
      6  CG        15.8590  -12.5310   -2.0630 C.ar   70  TYR70      -0.0201
      7  CD1       15.6120  -11.1700   -1.8380 C.ar   70  TYR70      -0.0009
      8  CD2       14.7920  -13.3520   -2.3590 C.ar   70  TYR70      -0.0009
      9  CE1       14.3310  -10.6550   -1.9340 C.ar   70  TYR70       0.0417
     10  CE2       13.5150  -12.8540   -2.4710 C.ar   70  TYR70       0.0417
     11  CZ        13.2870  -11.5020   -2.2640 C.ar   70  TYR70       0.1957
     12  OH        12.0210  -11.0120   -2.4030 O.3    70  TYR70      -0.2866
     13  N         10.2860   -9.4990    3.1480 N.3    75  SER75      -0.1217
     14  CA         9.2010   -8.6310    2.6520 C.3    75  SER75       0.1889
     15  C          7.8070   -8.9950    3.2330 C.2    75  SER75       0.2288
     16  O          7.3970  -10.1760    3.2240 O.2    75  SER75      -0.2866
     17  CB         9.1810   -8.6650    1.1010 C.3    75  SER75       0.2089
     18  OG         8.0370   -8.0520    0.5410 O.3    75  SER75      -0.2183
     19  N          5.0470   -9.7130    0.5620 N.3    78  MET78      -0.1245
     20  CA         5.3230  -11.0360    0.0240 C.3    78  MET78       0.1570
     21  C          4.8150  -12.1490    0.9520 C.2    78  MET78       0.2261
     22  O          4.2160  -13.1270    0.4770 O.2    78  MET78      -0.2867
     23  CB         6.8150  -11.1800   -0.3190 C.3    78  MET78       0.0387
     24  CG         7.2120  -10.3440   -1.5470 C.3    78  MET78       0.0595
     25  SD         6.0460  -10.3310   -2.9630 S.3    78  MET78      -0.1393
     26  CE         6.3370  -11.9870   -3.5670 C.3    78  MET78       0.0692
     27  N          6.4850   -6.9730   -7.5790 N.3   246  HIS246     -0.1241
     28  CA         7.8570   -7.0030   -8.1230 C.3   246  HIS246      0.1621
     29  C          8.0330   -6.2260   -9.4280 C.2   246  HIS246      0.2264
     30  O          8.7790   -6.6430  -10.3190 O.2   246  HIS246     -0.2867
     31  CB         8.3140   -8.4670   -8.3270 C.3   246  HIS246      0.0745
     32  CG         8.6910   -9.1540   -7.0650 C.ar  246  HIS246      0.0817
     33  ND1        9.6890   -8.6960   -6.2460 N.ar  246  HIS246     -0.2268
     34  CD2        8.2280  -10.2880   -6.4960 C.ar  246  HIS246      0.1154
     35  CE1        9.8130   -9.5110   -5.2140 C.ar  246  HIS246      0.1986
     36  NE2        8.9100  -10.4650   -5.3280 N.ar  246  HIS246     -0.2212
     37  N         18.5530    5.1380   -1.9090 N.3   315  TYR315     -0.1227
     38  CA        17.5820    4.5060   -1.0600 C.3   315  TYR315      0.1736
     39  C         17.1580    3.1340   -1.6100 C.2   315  TYR315      0.2596
     40  O         16.4700    3.0350   -2.6360 O.2   315  TYR315     -0.2718
     41  CB        16.3700    5.4090   -0.8920 C.3   315  TYR315      0.0548
     42  CG        15.6380    5.1530    0.4080 C.ar  315  TYR315     -0.0200
     43  CD1       14.9560    3.9520    0.6260 C.ar  315  TYR315     -0.0009
     44  CD2       15.6710    6.0780    1.4480 C.ar  315  TYR315     -0.0009
     45  CE1       14.3080    3.6970    1.8240 C.ar  315  TYR315      0.0417
     46  CE2       15.0220    5.8260    2.6450 C.ar  315  TYR315      0.0417
     47  CZ        14.3280    4.6400    2.8190 C.ar  315  TYR315      0.1957
     48  OH        13.6660    4.3740    3.9910 O.3   315  TYR315     -0.2866
     49  N         17.5540    2.0850   -0.8970 N.am  316  GLY316     -0.1942
     50  CA        17.2630    0.7200   -1.2650 C.3   316  GLY316      0.2014
     51  C         18.3970    0.1450   -2.0700 C.2   316  GLY316      0.2639
     52  O         18.6370    0.5720   -3.1980 O.2   316  GLY316     -0.2714
     53  N         19.1090   -0.8190   -1.5080 N.am  317  ALA317     -0.1963
     54  CA        20.2220   -1.4540   -2.2060 C.3   317  ALA317      0.1728
     55  C         19.7360   -2.7480   -2.7930 C.2   317  ALA317      0.2616
     56  O         20.1840   -3.8370   -2.4510 O.2   317  ALA317     -0.2715
     57  CB        21.4290   -1.6770   -1.2820 C.3   317  ALA317      0.0334
     58  N         18.8260   -2.5910   -3.7360 N.am  318  THR318     -0.1951
     59  CA        18.1590   -3.6950   -4.3570 C.3   318  THR318      0.1897
     60  C         19.1630   -4.4320   -5.2430 C.2   318  THR318      0.2313
     61  O         20.2300   -3.9010   -5.5730 O.2   318  THR318     -0.2863
     62  CB        17.0150   -3.1990   -5.2540 C.3   318  THR318      0.1794
     63  OG1       17.5760   -2.3900   -6.2890 O.3   318  THR318     -0.2208
     64  CG2       16.0340   -2.3380   -4.5090 C.3   318  THR318      0.0378
     65  N         18.3220   -5.1590   -8.3150 N.3   320  LYS320     -0.1245
     66  CA        18.1440   -4.4570   -9.5680 C.3   320  LYS320      0.1561
     67  C         19.1400   -3.3180   -9.6670 C.2   320  LYS320      0.2260
     68  O         19.6120   -2.9830  -10.7520 O.2   320  LYS320     -0.2867
     69  CB        16.7140   -3.9100   -9.6740 C.3   320  LYS320      0.0271
     70  CG        15.6330   -4.9700   -9.8280 C.3   320  LYS320      0.0035
     71  CD        14.2750   -4.4020  -10.2410 C.3   320  LYS320      0.0206
     72  CE        13.7120   -3.3200   -9.3300 C.3   320  LYS320      0.1093
     73  NZ        13.5640   -3.8460   -7.9580 N.3   320  LYS320     -0.1314
     74  N         19.7410    0.9620    3.4730 N.3   340  ASP340     -0.1225
     75  CA        19.0800   -0.2920    3.2250 C.3   340  ASP340      0.1805
     76  C         18.7620   -0.9800    4.5650 C.2   340  ASP340      0.2598
     77  O         19.5390   -0.8810    5.5190 O.2   340  ASP340     -0.2718
     78  CB        19.9490   -1.1950    2.3430 C.3   340  ASP340      0.1424
     79  CG        19.1730   -2.3830    1.7880 C.2   340  ASP340      0.3668
     80  OD1       18.5220   -2.2200    0.7310 O.co2 340  ASP340     -0.2456
     81  OD2       19.1940   -3.4630    2.4270 O.co2 340  ASP340     -0.2456
     82  N         17.6140   -1.6680    4.6120 N.am  341  THR341     -0.1939
     83  CA        17.1270   -2.3390    5.8300 C.3   341  THR341      0.2028
     84  C         17.5870   -3.7810    5.9440 C.2   341  THR341      0.2642
     85  O         17.2600   -4.4380    6.9130 O.2   341  THR341     -0.2714
     86  CB        15.5910   -2.3330    5.9100 C.3   341  THR341      0.1808
     87  OG1       15.0530   -3.1120    4.8290 O.3   341  THR341     -0.2208
     88  CG2       15.0670   -0.9140    5.8520 C.3   341  THR341      0.0379
     89  N         18.3290   -4.2850    4.9690 N.am  342  THR342     -0.1950
     90  CA        18.7380   -5.6610    5.0050 C.3   342  THR342      0.1897
     91  C         20.0040   -5.7520    5.8550 C.2   342  THR342      0.2313
     92  O         21.0120   -5.0850    5.5520 O.2   342  THR342     -0.2863
     93  CB        18.9600   -6.2270    3.6060 C.3   342  THR342      0.1794
     94  OG1       17.8840   -5.7630    2.7800 O.3   342  THR342     -0.2208
     95  CG2       18.9940   -7.8020    3.6280 C.3   342  THR342      0.0378
     96  N         23.2860   -6.9930    4.1350 N.3   345  LYS345     -0.1245
     97  CA        23.8880   -6.0060    3.2110 C.3   345  LYS345      0.1561
     98  C         24.6670   -4.9080    3.9110 C.2   345  LYS345      0.2260
     99  O         25.4830   -4.2280    3.2630 O.2   345  LYS345     -0.2867
    100  CB        22.8070   -5.3480    2.3530 C.3   345  LYS345      0.0271
    101  CG        22.2350   -6.2820    1.3180 C.3   345  LYS345      0.0035
    102  CD        21.0910   -5.6890    0.4920 C.3   345  LYS345      0.0206
    103  CE        20.5670   -6.7860   -0.4260 C.3   345  LYS345      0.1093
    104  NZ        19.3280   -6.4430   -1.1260 N.3   345  LYS345     -0.1314
    105  N         19.1180    2.0650    7.4390 N.3   360  ALA360     -0.1245
    106  CA        18.0500    3.0160    7.0880 C.3   360  ALA360      0.1562
    107  C         18.0910    4.2990    7.9380 C.2   360  ALA360      0.2260
    108  O         17.7850    5.4000    7.4600 O.2   360  ALA360     -0.2867
    109  CB        16.6880    2.3320    7.2090 C.3   360  ALA360      0.0290
    110  N         14.4940    1.5640   -4.9470 N.3   375  ALA375     -0.1245
    111  CA        13.4010    0.6740   -4.5810 C.3   375  ALA375      0.1562
    112  C         12.0930    1.2780   -5.0800 C.2   375  ALA375      0.2260
    113  O         11.1580    1.5160   -4.3070 O.2   375  ALA375     -0.2867
    114  CB        13.3680    0.4370   -3.0640 C.3   375  ALA375      0.0290
    115  N          9.6680    0.1220   -6.8280 N.3   377  ASN377     -0.1225
    116  CA         8.4130   -0.5950   -6.6150 C.3   377  ASN377      0.1785
    117  C          7.8340   -0.4800   -5.2070 C.2   377  ASN377      0.2597
    118  O          6.7370   -0.9760   -4.9770 O.2   377  ASN377     -0.2718
    119  CB         8.4590   -2.0600   -7.0790 C.3   377  ASN377      0.1169
    120  CG         9.6600   -2.8260   -6.5590 C.2   377  ASN377      0.2627
    121  OD1       10.8130   -2.3810   -6.7040 O.2   377  ASN377     -0.2716
    122  ND2        9.4090   -4.0110   -5.9860 N.am  377  ASN377     -0.0877
    123  N          8.5450    0.1510   -4.2730 N.am  378  HIS378     -0.1975
    124  CA         7.9800    0.5080   -2.9680 C.3   378  HIS378      0.1656
    125  C          8.0660    2.0250   -2.7690 C.2   378  HIS378      0.2291
    126  O          8.2980    2.5090   -1.6620 O.2   378  HIS378     -0.2864
    127  CB         8.7150   -0.2260   -1.8490 C.3   378  HIS378      0.0771
    128  CG         8.8950   -1.6950   -2.0900 C.ar  378  HIS378      0.0820
    129  ND1        7.8610   -2.5990   -1.9790 N.ar  378  HIS378     -0.2267
    130  CD2       10.0000   -2.4230   -2.3890 C.ar  378  HIS378      0.1154
    131  CE1        8.3170   -3.8180   -2.2070 C.ar  378  HIS378      0.1986
    132  NE2        9.6140   -3.7400   -2.4570 N.ar  378  HIS378     -0.2212
    133  N          4.9890    3.6610   -0.3030 N.3   381  GLU381     -0.1231
    134  CA         5.3790    3.2460    1.0500 C.3   381  GLU381      0.1699
    135  C          6.6430    3.9720    1.5960 C.2   381  GLU381      0.2592
    136  O          6.7040    4.3010    2.7850 O.2   381  GLU381     -0.2718
    137  CB         5.5980    1.7190    1.0900 C.3   381  GLU381      0.0402
    138  CG         6.5330    1.2000    2.1850 C.3   381  GLU381      0.1161
    139  CD         6.6660   -0.3120    2.1960 C.2   381  GLU381      0.3649
    140  OE1        6.8140   -0.9040    3.2960 O.co2 381  GLU381     -0.2457
    141  OE2        6.6540   -0.9130    1.0980 O.co2 381  GLU381     -0.2457
    142  N          7.6460    4.1690    0.7330 N.am  382  ILE382     -0.1980
    143  CA         8.9190    4.7930    1.1350 C.3   382  ILE382      0.1595
    144  C          8.7770    6.2820    1.3600 C.2   382  ILE382      0.2287
    145  O          9.1890    6.7810    2.4080 O.2   382  ILE382     -0.2864
    146  CB        10.0690    4.4690    0.1410 C.3   382  ILE382      0.0276
    147  CG1       10.7030    3.1250    0.5460 C.3   382  ILE382      0.0022
    148  CG2       11.1400    5.5570    0.1090 C.3   382  ILE382      0.0022
    149  CD1       11.5170    2.4430   -0.5260 C.3   382  ILE382      0.0001
    150  N          6.5970    7.0940    4.6000 N.3   385  LYS385     -0.1245
    151  CA         7.3830    7.0380    5.8480 C.3   385  LYS385      0.1561
    152  C          8.3230    8.2430    6.0370 C.2   385  LYS385      0.2260
    153  O          8.3120    8.9260    7.0810 O.2   385  LYS385     -0.2867
    154  CB         8.2420    5.7930    5.8710 C.3   385  LYS385      0.0271
    155  CG         7.4800    4.4800    5.9940 C.3   385  LYS385      0.0035
    156  CD         8.3250    3.2730    5.5670 C.3   385  LYS385      0.0206
    157  CE         9.8040    3.3820    5.9650 C.3   385  LYS385      0.1093
    158  NZ        10.5620    2.1290    5.7260 N.3   385  LYS385     -0.1314
@<TRIPOS>BOND
     1    68    67    2
     2    30    29    2
     3    71    70    1
     4    71    72    1
     5    70    69    1
     6    69    66    1
     7    67    66    1
     8    66    65    1
     9    29    28    1
    10    72    73    1
    11    31    28    1
    12    31    32    1
    13    28    27    1
    14   119   116    1
    15   119   120    1
    16    32    34   ar
    17    32    33   ar
    18   115   116    1
    19   121   120    2
    20   116   117    1
    21   120   122   am
    22    34    36   ar
    23    63    62    1
    24    33    35   ar
    25    61    60    2
    26    36    35   ar
    27    62    64    1
    28    62    59    1
    29    60    59    1
    30   117   118    2
    31   117   123   am
    32   112   111    1
    33   112   113    2
    34   110   111    1
    35   111   114    1
    36    59    58    1
    37   123   124    1
    38    58    55   am
    39    26    25    1
    40    52    51    2
    41   124   125    1
    42   124   127    1
    43    25    24    1
    44    55    56    2
    45    55    54    1
    46   125   126    2
    47    40    39    2
    48    10     8   ar
    49    10    11   ar
    50   132   130   ar
    51   132   131   ar
    52    12    11    1
    53   130   128   ar
    54     8     6   ar
    55    11     9   ar
    56   131   129   ar
    57    54    53    1
    58    54    57    1
    59   128   129   ar
    60   128   127    1
    61    51    53   am
    62    51    50    1
    63     6     5    1
    64     6     7   ar
    65     9     7   ar
    66     5     2    1
    67    37    38    1
    68    39    38    1
    69    39    49   am
    70    24    23    1
    71    50    49    1
    72   104   103    1
    73    38    41    1
    74    41    42    1
    75   149   147    1
    76     2     1    1
    77     2     3    1
    78   103   102    1
    79    23    20    1
    80   133   134    1
    81    20    19    1
    82    20    21    1
    83     4     3    2
    84   148   146    1
    85   146   147    1
    86   146   143    1
    87    42    43   ar
    88    42    44   ar
    89    22    21    2
    90   102   101    1
    91    18    17    1
    92    43    45   ar
    93    80    79   ar
    94   142   143    1
    95   142   135   am
    96   134   137    1
    97   134   135    1
    98   137   138    1
    99   141   139   ar
   100    17    14    1
   101   143   144    1
   102   101   100    1
   103   144   145    2
   104    44    46   ar
   105   135   136    2
   106    79    78    1
   107    79    81   ar
   108    45    47   ar
   109   138   139    1
   110   139   140   ar
   111    78    75    1
   112   100    97    1
   113    46    47   ar
   114    14    13    1
   115    14    15    1
   116    94    93    1
   117    47    48    1
   118    97    98    1
   119    97    96    1
   120    16    15    2
   121    75    74    1
   122    75    76    1
   123    99    98    2
   124    93    95    1
   125    93    90    1
   126    76    82   am
   127    76    77    2
   128   150   151    1
   129    82    83    1
   130    87    86    1
   131    89    90    1
   132    89    84   am
   133    90    91    1
   134    92    91    2
   135   156   157    1
   136   156   155    1
   137   158   157    1
   138    83    86    1
   139    83    84    1
   140   151   154    1
   141   151   152    1
   142    88    86    1
   143   154   155    1
   144    84    85    2
   145   152   153    2
   146   106   109    1
   147   106   105    1
   148   106   107    1
   149   108   107    2
