@<TRIPOS>MOLECULE
tmp/5t6bB00.pdb
 218 215 0 0 0
SMALL
GASTEIGER

@<TRIPOS>ATOM
      1  N         23.4370  -19.3410   -6.7210 N.3    64  PHE64      -0.1241
      2  CA        22.5530  -20.0960   -5.8250 C.3    64  PHE64       0.1605
      3  C         23.4390  -21.0290   -5.0260 C.2    64  PHE64       0.2264
      4  O         23.9750  -22.0160   -5.5500 O.2    64  PHE64      -0.2867
      5  CB        21.4880  -20.8290   -6.6350 C.3    64  PHE64       0.0534
      6  CG        20.7580  -19.9010   -7.5680 C.ar   64  PHE64      -0.0203
      7  CD1       20.1830  -18.7300   -7.0820 C.ar   64  PHE64      -0.0042
      8  CD2       20.7410  -20.1290   -8.9240 C.ar   64  PHE64      -0.0042
      9  CE1       19.5470  -17.8370   -7.9300 C.ar   64  PHE64      -0.0003
     10  CE2       20.1170  -19.2530   -9.7930 C.ar   64  PHE64      -0.0003
     11  CZ        19.5150  -18.0990   -9.2970 C.ar   64  PHE64      -0.0000
     12  N         23.2660  -17.6100   -0.1810 N.3    68  TYR68      -0.1241
     13  CA        22.3200  -16.7860   -0.9870 C.3    68  TYR68       0.1605
     14  C         21.6560  -15.7850   -0.0500 C.2    68  TYR68       0.2264
     15  O         21.1090  -16.2020    0.9550 O.2    68  TYR68      -0.2867
     16  CB        21.2640  -17.6690   -1.5930 C.3    68  TYR68       0.0534
     17  CG        20.4000  -16.9830   -2.5930 C.ar   68  TYR68      -0.0201
     18  CD1       19.0080  -16.9790   -2.4540 C.ar   68  TYR68      -0.0009
     19  CD2       20.9550  -16.3540   -3.7220 C.ar   68  TYR68      -0.0009
     20  CE1       18.2150  -16.3510   -3.3770 C.ar   68  TYR68       0.0417
     21  CE2       20.1460  -15.7400   -4.6780 C.ar   68  TYR68       0.0417
     22  CZ        18.7750  -15.7570   -4.4970 C.ar   68  TYR68       0.1957
     23  OH        17.9350  -15.1560   -5.4080 O.3    68  TYR68      -0.2866
     24  N         19.1300  -13.3960   -0.4040 N.3    70  TYR70      -0.1241
     25  CA        17.7020  -13.1360   -0.4800 C.3    70  TYR70       0.1605
     26  C         16.8020  -14.1290    0.3250 C.2    70  TYR70       0.2264
     27  O         16.7850  -15.3570    0.0930 O.2    70  TYR70      -0.2867
     28  CB        17.2390  -13.0850   -1.9290 C.3    70  TYR70       0.0534
     29  CG        15.8590  -12.5310   -2.0630 C.ar   70  TYR70      -0.0201
     30  CD1       15.6120  -11.1700   -1.8380 C.ar   70  TYR70      -0.0009
     31  CD2       14.7920  -13.3520   -2.3590 C.ar   70  TYR70      -0.0009
     32  CE1       14.3310  -10.6550   -1.9340 C.ar   70  TYR70       0.0417
     33  CE2       13.5150  -12.8540   -2.4710 C.ar   70  TYR70       0.0417
     34  CZ        13.2870  -11.5020   -2.2640 C.ar   70  TYR70       0.1957
     35  OH        12.0210  -11.0120   -2.4030 O.3    70  TYR70      -0.2866
     36  N         12.9470  -14.5410    1.1640 N.3    72  SER72      -0.1217
     37  CA        11.5920  -14.1100    0.7990 C.3    72  SER72       0.1889
     38  C         10.7820  -13.4910    1.9530 C.2    72  SER72       0.2288
     39  O         10.1320  -12.4410    1.7960 O.2    72  SER72      -0.2866
     40  CB        10.8660  -15.2970    0.2070 C.3    72  SER72       0.2089
     41  OG        11.6550  -15.8410   -0.8480 O.3    72  SER72      -0.2183
     42  N          5.0470   -9.7130    0.5620 N.3    78  MET78      -0.1245
     43  CA         5.3230  -11.0360    0.0240 C.3    78  MET78       0.1570
     44  C          4.8150  -12.1490    0.9520 C.2    78  MET78       0.2261
     45  O          4.2160  -13.1270    0.4770 O.2    78  MET78      -0.2867
     46  CB         6.8150  -11.1800   -0.3190 C.3    78  MET78       0.0387
     47  CG         7.2120  -10.3440   -1.5470 C.3    78  MET78       0.0595
     48  SD         6.0460  -10.3310   -2.9630 S.3    78  MET78      -0.1393
     49  CE         6.3370  -11.9870   -3.5670 C.3    78  MET78       0.0692
     50  N          2.0620  -14.7400   -0.6990 N.3    82  PHE82      -0.1241
     51  CA         2.2500  -16.1850   -0.7160 C.3    82  PHE82       0.1605
     52  C          1.2840  -16.9470    0.1990 C.2    82  PHE82       0.2264
     53  O          0.9520  -18.0970   -0.0710 O.2    82  PHE82      -0.2867
     54  CB         3.7220  -16.5350   -0.4540 C.3    82  PHE82       0.0534
     55  CG         4.6120  -16.2330   -1.6160 C.ar   82  PHE82      -0.0203
     56  CD1        4.3300  -16.7450   -2.8770 C.ar   82  PHE82      -0.0042
     57  CD2        5.7270  -15.4430   -1.4690 C.ar   82  PHE82      -0.0042
     58  CE1        5.1400  -16.4530   -3.9800 C.ar   82  PHE82      -0.0003
     59  CE2        6.5420  -15.1420   -2.5540 C.ar   82  PHE82      -0.0003
     60  CZ         6.2460  -15.6470   -3.8090 C.ar   82  PHE82      -0.0000
     61  N          7.2830  -27.1210   -4.9230 N.3   103  GLU103     -0.1231
     62  CA         7.6940  -25.7790   -5.2910 C.3   103  GLU103      0.1699
     63  C          9.1790  -25.7440   -5.6570 C.2   103  GLU103      0.2592
     64  O         10.0480  -26.2220   -4.9180 O.2   103  GLU103     -0.2718
     65  CB         7.4170  -24.7890   -4.1590 C.3   103  GLU103      0.0402
     66  CG         7.8800  -23.3580   -4.4710 C.3   103  GLU103      0.1161
     67  CD         7.4720  -22.3270   -3.4280 C.2   103  GLU103      0.3649
     68  OE1        7.6290  -21.1340   -3.7160 O.co2 103  GLU103     -0.2457
     69  OE2        7.0200  -22.7010   -2.3280 O.co2 103  GLU103     -0.2457
     70  N          9.4460  -25.1020   -6.7740 N.am  104  ILE104     -0.1966
     71  CA        10.7820  -24.8750   -7.2420 C.3   104  ILE104      0.1727
     72  C         11.1440  -23.5160   -6.7170 C.2   104  ILE104      0.2617
     73  O         10.4690  -22.5110   -7.0140 O.2   104  ILE104     -0.2715
     74  CB        10.8150  -24.8590   -8.7870 C.3   104  ILE104      0.0290
     75  CG1       10.3840  -26.2170   -9.3510 C.3   104  ILE104      0.0022
     76  CG2       12.1860  -24.4610   -9.3320 C.3   104  ILE104      0.0023
     77  CD1       10.1030  -26.1910  -10.8250 C.3   104  ILE104      0.0001
     78  N         12.2360  -23.4400   -5.9610 N.am  105  GLY105     -0.1940
     79  CA        12.6970  -22.1360   -5.4510 C.3   105  GLY105      0.2014
     80  C         11.9510  -21.6260   -4.2440 C.2   105  GLY105      0.2639
     81  O         11.7120  -20.4110   -4.1330 O.2   105  GLY105     -0.2714
     82  N         11.5670  -22.5640   -3.3490 N.am  106  CYS106     -0.1953
     83  CA        10.7680  -22.2410   -2.1760 C.3   106  CYS106      0.1843
     84  C         11.4320  -21.3340   -1.1790 C.2   106  CYS106      0.2625
     85  O         10.7290  -20.7750   -0.3370 O.2   106  CYS106     -0.2714
     86  CB        10.2830  -23.5320   -1.3990 C.3   106  CYS106      0.0997
     87  SG        11.5800  -24.4670   -0.5640 S.3   106  CYS106     -0.0797
     88  N         12.7610  -21.1810   -1.2470 N.am  107  ASN107     -0.1972
     89  CA        13.5190  -20.1960   -0.4390 C.3   107  ASN107      0.1688
     90  C         13.2310  -20.4800    1.0450 C.2   107  ASN107      0.2292
     91  O         13.2430  -21.6620    1.4210 O.2   107  ASN107     -0.2864
     92  CB        13.1790  -18.7690   -0.9090 C.3   107  ASN107      0.1181
     93  CG        14.1350  -17.7190   -0.3710 C.2   107  ASN107      0.2629
     94  OD1       13.8830  -17.1100    0.7000 O.2   107  ASN107     -0.2716
     95  ND2       15.2150  -17.4290   -1.1490 N.am  107  ASN107     -0.0877
     96  N          8.0840  -19.6480    2.7220 N.3   110  ILE110     -0.1245
     97  CA         6.9560  -18.7470    2.7900 C.3   110  ILE110      0.1561
     98  C          5.6050  -19.4170    2.3420 C.2   110  ILE110      0.2260
     99  O          4.7600  -19.8060    3.1890 O.2   110  ILE110     -0.2867
    100  CB         7.4410  -17.4590    2.0460 C.3   110  ILE110      0.0252
    101  CG1        6.6060  -16.2310    2.3930 C.3   110  ILE110      0.0019
    102  CG2        7.7340  -17.6790    0.5300 C.3   110  ILE110      0.0019
    103  CD1        7.2540  -14.9380    1.9120 C.3   110  ILE110      0.0001
    104  N         12.0730  -27.6290   -3.5250 N.3   125  PHE125     -0.1227
    105  CA        13.4650  -27.7390   -3.9940 C.3   125  PHE125      0.1736
    106  C         14.1080  -26.3770   -3.7850 C.2   125  PHE125      0.2595
    107  O         13.6020  -25.3670   -4.2810 O.2   125  PHE125     -0.2718
    108  CB        13.5800  -28.0870   -5.4680 C.3   125  PHE125      0.0547
    109  CG        13.2890  -29.5220   -5.7910 C.ar  125  PHE125     -0.0202
    110  CD1       14.3150  -30.4050   -6.1480 C.ar  125  PHE125     -0.0042
    111  CD2       12.0080  -29.9920   -5.7840 C.ar  125  PHE125     -0.0042
    112  CE1       14.0340  -31.7380   -6.5110 C.ar  125  PHE125     -0.0003
    113  CE2       11.7270  -31.3180   -6.0830 C.ar  125  PHE125     -0.0003
    114  CZ        12.7400  -32.1930   -6.4740 C.ar  125  PHE125     -0.0000
    115  N         15.2320  -26.3800   -3.0720 N.am  126  GLU126     -0.1966
    116  CA        15.9130  -25.1690   -2.7280 C.3   126  GLU126      0.1718
    117  C         17.4210  -25.4700   -2.6480 C.2   126  GLU126      0.2458
    118  O         17.9270  -25.9330   -1.6130 O.2   126  GLU126     -0.2730
    119  CB        15.3390  -24.6060   -1.4120 C.3   126  GLU126      0.0428
    120  CG        15.8410  -23.2190   -1.0230 C.3   126  GLU126      0.1163
    121  CD        16.0400  -22.3520   -2.2540 C.2   126  GLU126      0.3649
    122  OE1       15.0760  -21.7110   -2.6970 O.co2 126  GLU126     -0.2457
    123  OE2       17.1780  -22.3390   -2.7930 O.co2 126  GLU126     -0.2457
    124  N         18.1400  -25.2040   -3.7580 N.am  127  PRO127     -0.2716
    125  CA        19.5570  -25.5370   -3.7680 C.3   127  PRO127      0.1536
    126  C         20.3790  -24.6210   -2.8790 C.2   127  PRO127      0.2599
    127  O         21.5240  -24.9570   -2.6310 O.2   127  PRO127     -0.2715
    128  CB        19.9540  -25.3870   -5.2430 C.3   127  PRO127      0.0310
    129  CG        19.0010  -24.3880   -5.7890 C.3   127  PRO127      0.0237
    130  CD        17.7050  -24.6660   -5.0750 C.3   127  PRO127      0.0939
    131  N         19.8330  -23.4830   -2.4110 N.am  128  SER128     -0.1950
    132  CA        20.6030  -22.6000   -1.5620 C.3   128  SER128      0.1924
    133  C         20.3790  -23.0580   -0.1320 C.2   128  SER128      0.2314
    134  O         19.2730  -22.8680    0.4430 O.2   128  SER128     -0.2863
    135  CB        20.2440  -21.1530   -1.7720 C.3   128  SER128      0.2116
    136  OG        20.5110  -20.8150   -3.1350 O.3   128  SER128     -0.2180
    137  N         18.8670  -28.7150   -6.9380 N.3   146  PHE146     -0.1227
    138  CA        18.3100  -28.0200   -8.0910 C.3   146  PHE146      0.1736
    139  C         17.2090  -28.8680   -8.6900 C.2   146  PHE146      0.2595
    140  O         17.4370  -30.0500   -8.9880 O.2   146  PHE146     -0.2718
    141  CB        19.3850  -27.7500   -9.1550 C.3   146  PHE146      0.0547
    142  CG        20.4140  -26.7240   -8.7440 C.ar  146  PHE146     -0.0202
    143  CD1       20.1620  -25.3590   -8.8640 C.ar  146  PHE146     -0.0042
    144  CD2       21.6600  -27.1280   -8.2320 C.ar  146  PHE146     -0.0042
    145  CE1       21.1260  -24.4020   -8.4830 C.ar  146  PHE146     -0.0003
    146  CE2       22.6260  -26.1820   -7.8450 C.ar  146  PHE146     -0.0003
    147  CZ        22.3500  -24.8150   -7.9960 C.ar  146  PHE146     -0.0000
    148  N         16.0100  -28.2890   -8.8570 N.am  147  PHE147     -0.1976
    149  CA        14.9820  -28.9550   -9.6510 C.3   147  PHE147      0.1639
    150  C         15.4680  -29.0490  -11.0670 C.2   147  PHE147      0.2290
    151  O         15.8880  -28.0410  -11.6820 O.2   147  PHE147     -0.2864
    152  CB        13.6530  -28.2050   -9.6400 C.3   147  PHE147      0.0560
    153  CG        12.4850  -28.9790  -10.2620 C.ar  147  PHE147     -0.0200
    154  CD1       12.2230  -28.9190  -11.6160 C.ar  147  PHE147     -0.0042
    155  CD2       11.6050  -29.7150   -9.4540 C.ar  147  PHE147     -0.0042
    156  CE1       11.1320  -29.6000  -12.1690 C.ar  147  PHE147     -0.0003
    157  CE2       10.5120  -30.3590  -10.0050 C.ar  147  PHE147     -0.0003
    158  CZ        10.2740  -30.3140  -11.3700 C.ar  147  PHE147     -0.0000
    159  N          7.8100  -19.2850   -8.1410 N.3   168  ALA168     -0.1231
    160  CA         7.6990  -17.8390   -8.0230 C.3   168  ALA168      0.1694
    161  C          9.0890  -17.2450   -8.0860 C.2   168  ALA168      0.2592
    162  O          9.9750  -17.6290   -7.3220 O.2   168  ALA168     -0.2718
    163  CB         7.0090  -17.4840   -6.7220 C.3   168  ALA168      0.0304
    164  N          9.2870  -16.3350   -9.0350 N.am  169  ASN169     -0.1960
    165  CA        10.5110  -15.5930   -9.2090 C.3   169  ASN169      0.1819
    166  C         11.6990  -16.5090   -9.2800 C.2   169  ASN169      0.2621
    167  O         12.7350  -16.2110   -8.7190 O.2   169  ASN169     -0.2715
    168  CB        10.6620  -14.5700   -8.0780 C.3   169  ASN169      0.1195
    169  CG         9.4580  -13.6710   -7.9830 C.2   169  ASN169      0.2630
    170  OD1        9.2360  -12.9050   -8.8980 O.2   169  ASN169     -0.2716
    171  ND2        8.6610  -13.7590   -6.8910 N.am  169  ASN169     -0.0877
    172  N         11.5120  -17.6280   -9.9710 N.am  170  THR170     -0.1951
    173  CA        12.4820  -18.6940  -10.0470 C.3   170  THR170      0.1897
    174  C         12.6150  -19.2640  -11.4620 C.2   170  THR170      0.2313
    175  O         13.7210  -19.3960  -11.9620 O.2   170  THR170     -0.2863
    176  CB        12.1230  -19.8070   -9.0680 C.3   170  THR170      0.1794
    177  OG1       12.1010  -19.2550   -7.7430 O.3   170  THR170     -0.2208
    178  CG2       13.1550  -20.9580   -9.1600 C.3   170  THR170      0.0378
    179  N         14.9430  -17.4980  -13.5730 N.3   173  HIS173     -0.1226
    180  CA        16.3290  -17.6770  -13.1250 C.3   173  HIS173      0.1752
    181  C         17.0170  -18.8840  -13.7730 C.2   173  HIS173      0.2595
    182  O         18.2430  -18.9950  -13.6230 O.2   173  HIS173     -0.2718
    183  CB        16.4210  -17.8650  -11.5830 C.3   173  HIS173      0.0759
    184  CG        15.9690  -16.6830  -10.7870 C.ar  173  HIS173      0.0818
    185  ND1       14.9020  -15.8890  -11.1460 N.ar  173  HIS173     -0.2268
    186  CD2       16.3990  -16.1980   -9.5990 C.ar  173  HIS173      0.1154
    187  CE1       14.7290  -14.9320  -10.2500 C.ar  173  HIS173      0.1986
    188  NE2       15.6120  -15.1070   -9.2910 N.ar  173  HIS173     -0.2212
    189  N         16.2800  -19.7860  -14.4550 N.am  174  ILE174     -0.1980
    190  CA        16.7970  -21.1080  -14.7970 C.3   174  ILE174      0.1595
    191  C         16.8950  -21.1640  -16.3040 C.2   174  ILE174      0.2287
    192  O         15.8620  -21.1590  -16.9410 O.2   174  ILE174     -0.2864
    193  CB        15.8550  -22.2380  -14.3070 C.3   174  ILE174      0.0276
    194  CG1       15.6900  -22.2190  -12.7660 C.3   174  ILE174      0.0022
    195  CG2       16.3140  -23.6020  -14.8150 C.3   174  ILE174      0.0022
    196  CD1       14.5740  -23.1550  -12.2420 C.3   174  ILE174      0.0001
    197  N         17.9200  -23.6740  -18.0980 N.3   176  TYR176     -0.1241
    198  CA        17.7480  -25.0460  -18.5740 C.3   176  TYR176      0.1605
    199  C         16.2950  -25.4970  -18.5290 C.2   176  TYR176      0.2264
    200  O         15.9230  -26.5200  -17.9310 O.2   176  TYR176     -0.2867
    201  CB        18.6900  -26.0070  -17.8240 C.3   176  TYR176      0.0534
    202  CG        18.8220  -25.7970  -16.3140 C.ar  176  TYR176     -0.0201
    203  CD1       19.7610  -24.8620  -15.7980 C.ar  176  TYR176     -0.0009
    204  CD2       18.1050  -26.5650  -15.4290 C.ar  176  TYR176     -0.0009
    205  CE1       19.9130  -24.6970  -14.4480 C.ar  176  TYR176      0.0417
    206  CE2       18.2300  -26.3840  -14.0550 C.ar  176  TYR176      0.0417
    207  CZ        19.1240  -25.4480  -13.5720 C.ar  176  TYR176      0.1957
    208  OH        19.2900  -25.2880  -12.2220 O.3   176  TYR176     -0.2866
    209  N          6.4850   -6.9730   -7.5790 N.3   246  HIS246     -0.1241
    210  CA         7.8570   -7.0030   -8.1230 C.3   246  HIS246      0.1621
    211  C          8.0330   -6.2260   -9.4280 C.2   246  HIS246      0.2264
    212  O          8.7790   -6.6430  -10.3190 O.2   246  HIS246     -0.2867
    213  CB         8.3140   -8.4670   -8.3270 C.3   246  HIS246      0.0745
    214  CG         8.6910   -9.1540   -7.0650 C.ar  246  HIS246      0.0817
    215  ND1        9.6890   -8.6960   -6.2460 N.ar  246  HIS246     -0.2268
    216  CD2        8.2280  -10.2880   -6.4960 C.ar  246  HIS246      0.1154
    217  CE1        9.8130   -9.5110   -5.2140 C.ar  246  HIS246      0.1986
    218  NE2        8.9100  -10.4650   -5.3280 N.ar  246  HIS246     -0.2212
@<TRIPOS>BOND
     1   198   199    1
     2   198   197    1
     3   198   201    1
     4   199   200    2
     5   201   202    1
     6   192   191    2
     7   202   203   ar
     8   202   204   ar
     9   191   190    1
    10   203   205   ar
    11   204   206   ar
    12   195   193    1
    13   190   189    1
    14   190   193    1
    15   189   181   am
    16   205   207   ar
    17   193   194    1
    18   206   207   ar
    19   181   182    2
    20   181   180    1
    21   179   180    1
    22   207   208    1
    23   180   183    1
    24   194   196    1
    25   156   154   ar
    26   156   158   ar
    27   175   174    2
    28   151   150    2
    29   154   153   ar
    30   183   184    1
    31   174   173    1
    32   158   157   ar
    33   185   184   ar
    34   185   187   ar
    35   150   149    1
    36    77    75    1
    37   184   186   ar
    38   212   211    2
    39   153   152    1
    40   153   155   ar
    41   187   188   ar
    42   173   172    1
    43   173   176    1
    44   157   155   ar
    45   172   166   am
    46    10    11   ar
    47    10     8   ar
    48   149   152    1
    49   149   148    1
    50   186   188   ar
    51   211   210    1
    52    75    74    1
    53    76    74    1
    54    11     9   ar
    55   166   165    1
    56   166   167    2
    57   165   164    1
    58   165   168    1
    59   178   176    1
    60   141   142    1
    61   141   138    1
    62   176   177    1
    63   164   161   am
    64   140   139    2
    65     8     6   ar
    66   170   169    2
    67   143   142   ar
    68   143   145   ar
    69   148   139   am
    70    74    71    1
    71   142   144   ar
    72   139   138    1
    73   145   147   ar
    74   213   210    1
    75   213   214    1
    76   144   146   ar
    77   159   160    1
    78   210   209    1
    79   138   137    1
    80   161   160    1
    81   161   162    2
    82   168   169    1
    83   160   163    1
    84   147   146   ar
    85   169   171   am
    86     9     7   ar
    87     6     7   ar
    88     6     5    1
    89    71    70    1
    90    71    72    1
    91   214   216   ar
    92   214   215   ar
    93    73    72    2
    94    70    63   am
    95     1     2    1
    96    72    78   am
    97     5     2    1
    98   112   114   ar
    99   112   110   ar
   100   216   218   ar
   101   114   113   ar
   102   215   217   ar
   103   110   109   ar
   104   113   111   ar
   105    78    79    1
   106     2     3    1
   107   109   111   ar
   108   109   108    1
   109   129   128    1
   110   129   130    1
   111    63    62    1
   112    63    64    2
   113     4     3    2
   114   108   105    1
   115    79    80    1
   116    23    22    1
   117   218   217   ar
   118    62    61    1
   119    62    65    1
   120   128   125    1
   121   130   124    1
   122    21    22   ar
   123    21    19   ar
   124    22    20   ar
   125    66    65    1
   126    66    67    1
   127   107   106    2
   128    80    81    2
   129    80    82   am
   130   105   106    1
   131   105   104    1
   132    58    60   ar
   133    58    56   ar
   134    60    59   ar
   135   106   115   am
   136   125   124    1
   137   125   126    1
   138   124   117   am
   139    19    17   ar
   140    68    67   ar
   141    49    48    1
   142    67    69   ar
   143    20    18   ar
   144    82    83    1
   145   136   135    1
   146   115   116    1
   147    48    47    1
   148   126   127    2
   149   126   131   am
   150    56    55   ar
   151   123   121   ar
   152   116   117    1
   153   116   119    1
   154   122   121   ar
   155   117   118    2
   156    17    18   ar
   157    17    16    1
   158    59    57   ar
   159    33    31   ar
   160    33    34   ar
   161   131   132    1
   162    35    34    1
   163    31    29   ar
   164    34    32   ar
   165   121   120    1
   166    83    86    1
   167    83    84    1
   168    29    28    1
   169    29    30   ar
   170    32    30   ar
   171    28    25    1
   172   135   132    1
   173    55    57   ar
   174    55    54    1
   175    16    13    1
   176   132   133    1
   177    47    46    1
   178   119   120    1
   179    86    87    1
   180    88    84   am
   181    88    89    1
   182    84    85    2
   183    95    93   am
   184    13    12    1
   185    13    14    1
   186    92    89    1
   187    92    93    1
   188    41    40    1
   189    51    50    1
   190    51    54    1
   191    51    52    1
   192    25    24    1
   193    25    26    1
   194    89    90    1
   195    93    94    2
   196    46    43    1
   197   133   134    2
   198    53    52    2
   199    14    15    2
   200    43    42    1
   201    43    44    1
   202    27    26    2
   203    40    37    1
   204    45    44    2
   205   102   100    1
   206    37    36    1
   207    37    38    1
   208    90    91    2
   209    39    38    2
   210   103   101    1
   211   100   101    1
   212   100    97    1
   213    98    97    1
   214    98    99    2
   215    96    97    1
