@<TRIPOS>MOLECULE
tmp/5t6dA00.pdb
 168 158 0 0 0
SMALL
GASTEIGER

@<TRIPOS>ATOM
      1  N         12.1830   23.9410   -8.2920 N.3    17  SER17      -0.1217
      2  CA        12.9450   22.9780   -9.0870 C.3    17  SER17       0.1889
      3  C         12.1360   22.3510  -10.2410 C.2    17  SER17       0.2288
      4  O         12.4650   21.2400  -10.6920 O.2    17  SER17      -0.2866
      5  CB        13.5000   21.8860   -8.1840 C.3    17  SER17       0.2089
      6  OG        12.4810   21.2980   -7.4110 O.3    17  SER17      -0.2183
      7  N          6.4100   18.9020   -4.4390 N.3    33  HIS33      -0.1226
      8  CA         7.8260   18.7250   -4.1190 C.3    33  HIS33       0.1752
      9  C          8.7620   19.6470   -4.8790 C.2    33  HIS33       0.2595
     10  O          9.9500   19.6810   -4.5410 O.2    33  HIS33      -0.2718
     11  CB         8.3000   17.2850   -4.3370 C.3    33  HIS33       0.0759
     12  CG         8.3850   16.8720   -5.7690 C.ar   33  HIS33       0.0818
     13  ND1        7.3230   16.3080   -6.4380 N.ar   33  HIS33      -0.2268
     14  CD2        9.4190   16.8990   -6.6490 C.ar   33  HIS33       0.1154
     15  CE1        7.6880   16.0370   -7.6850 C.ar   33  HIS33       0.1986
     16  NE2        8.9580   16.3810   -7.8340 N.ar   33  HIS33      -0.2212
     17  N          8.2970   20.3920   -5.8890 N.am   34  VAL34      -0.1980
     18  CA         9.1850   21.3910   -6.4890 C.3    34  VAL34       0.1595
     19  C          9.0640   22.7570   -5.8150 C.2    34  VAL34       0.2287
     20  O          9.8390   23.6640   -6.1440 O.2    34  VAL34      -0.2864
     21  CB         8.9440   21.5420   -8.0090 C.3    34  VAL34       0.0276
     22  CG1        8.7920   20.1720   -8.6800 C.3    34  VAL34       0.0022
     23  CG2        7.7260   22.4400   -8.3030 C.3    34  VAL34       0.0022
     24  N          0.6240   15.8610   -3.5290 N.3    57  GLU57      -0.1245
     25  CA         1.5600   16.4850   -4.4540 C.3    57  GLU57       0.1567
     26  C          0.9350   17.5990   -5.2750 C.2    57  GLU57       0.2260
     27  O          1.6140   18.1560   -6.1390 O.2    57  GLU57      -0.2867
     28  CB         2.1660   15.4310   -5.3750 C.3    57  GLU57       0.0388
     29  CG         3.3400   14.7050   -4.6930 C.3    57  GLU57       0.1160
     30  CD         4.5050   15.6520   -4.3370 C.2    57  GLU57       0.3649
     31  OE1        4.8560   15.7530   -3.1200 O.co2  57  GLU57      -0.2457
     32  OE2        5.0740   16.2870   -5.2760 O.co2  57  GLU57      -0.2457
     33  N         -1.2400    6.6130   -4.1190 N.3   110  MET110     -0.1245
     34  CA         0.0570    6.0160   -4.3870 C.3   110  MET110      0.1570
     35  C          1.0560    6.5720   -3.3800 C.2   110  MET110      0.2261
     36  O          0.8750    7.6750   -2.8540 O.2   110  MET110     -0.2867
     37  CB         0.5280    6.3240   -5.8170 C.3   110  MET110      0.0387
     38  CG        -0.4740    5.9850   -6.9260 C.3   110  MET110      0.0595
     39  SD        -0.1640    6.8550   -8.5070 S.3   110  MET110     -0.1393
     40  CE        -1.5500    6.3050   -9.5170 C.3   110  MET110      0.0692
     41  N          4.9300    6.8520   -4.0140 N.3   112  ILE112     -0.1231
     42  CA         6.2410    6.7710   -4.6470 C.3   112  ILE112      0.1692
     43  C          7.2500    7.3750   -3.6790 C.2   112  ILE112      0.2591
     44  O          7.1320    8.5450   -3.2920 O.2   112  ILE112     -0.2718
     45  CB         6.2620    7.5000   -6.0010 C.3   112  ILE112      0.0266
     46  CG1        5.4170    6.6910   -7.0070 C.3   112  ILE112      0.0019
     47  CG2        7.6740    7.7180   -6.4870 C.3   112  ILE112      0.0020
     48  CD1        5.1310    7.4210   -8.2900 C.3   112  ILE112      0.0001
     49  N          8.2160    6.5680   -3.2500 N.am  113  GLN113     -0.1979
     50  CA         9.2980    7.0750   -2.4110 C.3   113  GLN113      0.1601
     51  C          8.7720    7.7070   -1.1080 C.2   113  GLN113      0.2287
     52  O          9.0720    8.8610   -0.7910 O.2   113  GLN113     -0.2864
     53  CB        10.1270    8.0760   -3.2320 C.3   113  GLN113      0.0394
     54  CG        10.5900    7.4600   -4.5470 C.3   113  GLN113      0.0908
     55  CD        11.4930    8.3490   -5.3590 C.2   113  GLN113      0.2608
     56  OE1       11.5900    9.5560   -5.1230 O.2   113  GLN113     -0.2717
     57  NE2       12.1700    7.7500   -6.3350 N.am  113  GLN113     -0.0878
     58  N          6.2270    9.4480   -0.3690 N.3   114  ARG114     -0.1245
     59  CA         5.2200   10.4180    0.0630 C.3   114  ARG114      0.1563
     60  C          3.8300    9.9740   -0.4080 C.2   114  ARG114      0.2260
     61  O          3.7160    9.0980   -1.2660 O.2   114  ARG114     -0.2867
     62  CB         5.5580   11.8210   -0.4640 C.3   114  ARG114      0.0307
     63  CG         6.8750   12.3140    0.1010 C.3   114  ARG114      0.0489
     64  CD         7.2040   13.6550   -0.5210 C.3   114  ARG114      0.2205
     65  NE         6.0180   14.4900   -0.5220 N.pl3 114  ARG114     -0.0865
     66  CZ         5.7930   15.4380    0.3850 C.cat 114  ARG114      0.5346
     67  NH1        6.6410   15.6630    1.3810 N.pl3 114  ARG114      0.1354
     68  NH2        4.6680   16.1490    0.3390 N.pl3 114  ARG114      0.1354
     69  N          0.8630   10.2230   -2.5390 N.3   116  VAL116     -0.1245
     70  CA         0.5070   10.8460   -3.8050 C.3   116  VAL116      0.1561
     71  C         -0.9410   10.5190   -4.1190 C.2   116  VAL116      0.2260
     72  O         -1.3060    9.3480   -4.2590 O.2   116  VAL116     -0.2867
     73  CB         1.4190   10.3760   -4.9450 C.3   116  VAL116      0.0252
     74  CG1        1.0750   11.1410   -6.2240 C.3   116  VAL116      0.0019
     75  CG2        2.8700   10.5520   -4.5760 C.3   116  VAL116      0.0019
     76  N         -2.2460    7.8650  -13.1830 N.3   120  SER120     -0.1217
     77  CA        -1.2190    7.3220  -14.0350 C.3   120  SER120      0.1889
     78  C         -1.6740    7.4740  -15.4850 C.2   120  SER120      0.2288
     79  O         -2.8540    7.6760  -15.7810 O.2   120  SER120     -0.2866
     80  CB        -0.9230    5.8520  -13.6910 C.3   120  SER120      0.2089
     81  OG        -1.8990    4.9950  -14.2470 O.3   120  SER120     -0.2183
     82  N          9.5550   12.1330  -20.1150 N.3   136  THR136     -0.1203
     83  CA         9.7610   13.1270  -19.0810 C.3   136  THR136      0.1994
     84  C         11.0200   12.7990  -18.2810 C.2   136  THR136      0.2618
     85  O         11.4420   11.6410  -18.1730 O.2   136  THR136     -0.2717
     86  CB         8.5310   13.1980  -18.1630 C.3   136  THR136      0.1784
     87  OG1        8.3180   11.9320  -17.5440 O.3   136  THR136     -0.2211
     88  CG2        7.2940   13.5480  -18.9630 C.3   136  THR136      0.0376
     89  N         11.6140   13.8380  -17.7030 N.am  137  ILE137     -0.1966
     90  CA        12.9280   13.7110  -17.0840 C.3   137  ILE137      0.1712
     91  C         12.9630   14.5880  -15.8350 C.2   137  ILE137      0.2458
     92  O         12.0720   15.4300  -15.6400 O.2   137  ILE137     -0.2730
     93  CB        14.0410   14.0850  -18.0730 C.3   137  ILE137      0.0289
     94  CG1       13.9330   15.5680  -18.4630 C.3   137  ILE137      0.0022
     95  CG2       13.9890   13.1470  -19.3470 C.3   137  ILE137      0.0023
     96  CD1       15.0830   16.0550  -19.2990 C.3   137  ILE137      0.0001
     97  N         13.9550   14.4130  -14.9680 N.am  138  PRO138     -0.2716
     98  CA        14.1070   15.3160  -13.8190 C.3   138  PRO138      0.1536
     99  C         14.1050   16.7690  -14.2720 C.2   138  PRO138      0.2599
    100  O         14.6900   17.1110  -15.2980 O.2   138  PRO138     -0.2715
    101  CB        15.4560   14.9070  -13.2370 C.3   138  PRO138      0.0310
    102  CG        15.5600   13.4250  -13.5980 C.3   138  PRO138      0.0237
    103  CD        15.0210   13.3990  -15.0140 C.3   138  PRO138      0.0939
    104  N         13.3860   17.6110  -13.5290 N.am  139  GLY139     -0.1955
    105  CA        13.2130   19.0000  -13.8720 C.3   139  GLY139      0.1869
    106  C         11.8930   19.3210  -14.5330 C.2   139  GLY139      0.2309
    107  O         11.5190   20.5000  -14.5880 O.2   139  GLY139     -0.2863
    108  N          8.8340   18.4010  -13.4850 N.3   141  CYS141     -0.1235
    109  CA         7.6610   18.3230  -12.6190 C.3   141  CYS141      0.1677
    110  C          6.9960   19.6850  -12.4990 C.2   141  CYS141      0.2270
    111  O          7.6490   20.7270  -12.5630 O.2   141  CYS141     -0.2867
    112  CB         8.0260   17.7650  -11.2470 C.3   141  CYS141      0.0956
    113  SG         8.2570   15.9470  -11.2790 S.3   141  CYS141     -0.0801
    114  N          2.6010   17.4220  -13.5800 N.3   159  HIS159     -0.1226
    115  CA         3.4800   16.2660  -13.6940 C.3   159  HIS159      0.1752
    116  C          4.2060   15.9850  -12.3600 C.2   159  HIS159      0.2596
    117  O          4.7580   16.8900  -11.7330 O.2   159  HIS159     -0.2718
    118  CB         4.4940   16.4580  -14.8390 C.3   159  HIS159      0.0759
    119  CG         5.3330   15.2520  -15.0470 C.ar  159  HIS159      0.0818
    120  ND1        4.7970   14.0650  -15.4800 N.ar  159  HIS159     -0.2268
    121  CD2        6.6300   15.0020  -14.7570 C.ar  159  HIS159      0.1154
    122  CE1        5.7440   13.1460  -15.5040 C.ar  159  HIS159      0.1986
    123  NE2        6.8630   13.6870  -15.0600 N.ar  159  HIS159     -0.2212
    124  N          4.2060   14.7240  -11.9240 N.am  160  ALA160     -0.1966
    125  CA         4.7940   14.3410  -10.6290 C.3   160  ALA160      0.1728
    126  C          5.8730   13.2830  -10.7220 C.2   160  ALA160      0.2616
    127  O          6.8350   13.3300   -9.9470 O.2   160  ALA160     -0.2715
    128  CB         3.7010   13.8400   -9.7020 C.3   160  ALA160      0.0334
    129  N          5.7420   12.3130  -11.6320 N.am  161  ALA161     -0.1963
    130  CA         6.6440   11.1740  -11.6200 C.3   161  ALA161      0.1728
    131  C          6.5460   10.4030  -12.9330 C.2   161  ALA161      0.2616
    132  O          5.5650   10.5040  -13.6730 O.2   161  ALA161     -0.2715
    133  CB         6.3410   10.2210  -10.4590 C.3   161  ALA161      0.0334
    134  N          7.5550    9.5740  -13.1570 N.am  162  ALA162     -0.1963
    135  CA         7.5550    8.6150  -14.2420 C.3   162  ALA162      0.1728
    136  C          8.4530    7.4420  -13.8800 C.2   162  ALA162      0.2617
    137  O          9.4870    7.6190  -13.2380 O.2   162  ALA162     -0.2715
    138  CB         8.0370    9.2630  -15.5380 C.3   162  ALA162      0.0334
    139  N          8.0580    6.2470  -14.3210 N.am  163  THR163     -0.1937
    140  CA         8.8600    5.0350  -14.1730 C.3   163  THR163      0.2028
    141  C         10.1710    5.1690  -14.9270 C.2   163  THR163      0.2642
    142  O         10.3380    6.0270  -15.7950 O.2   163  THR163     -0.2714
    143  CB         8.1330    3.7970  -14.7250 C.3   163  THR163      0.1808
    144  OG1        7.7100    4.0450  -16.0700 O.3   163  THR163     -0.2208
    145  CG2        6.9280    3.4340  -13.8980 C.3   163  THR163      0.0379
    146  N         11.1020    4.2650  -14.6080 N.am  164  LYS164     -0.1977
    147  CA        12.3950    4.2890  -15.2850 C.3   164  LYS164      0.1596
    148  C         12.2640    3.8210  -16.7360 C.2   164  LYS164      0.2287
    149  O         13.0120    4.2860  -17.6040 O.2   164  LYS164     -0.2864
    150  CB        13.4100    3.4410  -14.5120 C.3   164  LYS164      0.0298
    151  CG        14.8150    3.4120  -15.0440 C.3   164  LYS164      0.0038
    152  CD        15.4730    4.7270  -14.7730 C.3   164  LYS164      0.0206
    153  CE        16.9810    4.6440  -15.0320 C.3   164  LYS164      0.1093
    154  NZ        17.2880    4.5890  -16.4500 N.3   164  LYS164     -0.1314
    155  N          5.2490    4.9720  -18.3140 N.3   168  THR168     -0.1218
    156  CA         4.1960    5.3420  -17.3800 C.3   168  THR168      0.1862
    157  C          4.5720    6.6570  -16.7140 C.2   168  THR168      0.2287
    158  O          5.7130    6.8270  -16.2810 O.2   168  THR168     -0.2866
    159  CB         3.9930    4.2380  -16.3470 C.3   168  THR168      0.1770
    160  OG1        3.6660    3.0230  -17.0160 O.3   168  THR168     -0.2211
    161  CG2        2.8520    4.5920  -15.3390 C.3   168  THR168      0.0375
    162  N          2.9400    9.9310  -14.0040 N.3   170  VAL170     -0.1245
    163  CA         1.9620   10.2190  -12.9520 C.3   170  VAL170      0.1561
    164  C          1.8410   11.7270  -12.8140 C.2   170  VAL170      0.2260
    165  O          2.8580   12.4270  -12.7220 O.2   170  VAL170     -0.2867
    166  CB         2.3550    9.5850  -11.5990 C.3   170  VAL170      0.0252
    167  CG1        1.3460    9.9140  -10.5330 C.3   170  VAL170      0.0019
    168  CG2        2.4620    8.1090  -11.7130 C.3   170  VAL170      0.0019
@<TRIPOS>BOND
     1    82    83    1
     2    95    93    1
     3    96    94    1
     4    83    84    1
     5    83    86    1
     6    88    86    1
     7    94    93    1
     8   155   156    1
     9    84    85    2
    10    84    89   am
    11    86    87    1
    12    93    90    1
    13    89    90    1
    14   149   148    2
    15   156   157    1
    16   156   159    1
    17    90    91    1
    18   160   159    1
    19   148   147    1
    20   157   158    2
    21   154   153    1
    22   159   161    1
    23   144   143    1
    24    91    92    2
    25    91    97   am
    26   142   141    2
    27    79    78    2
    28   138   135    1
    29   122   120   ar
    30   122   123   ar
    31    78    77    1
    32   120   119   ar
    33   100    99    2
    34   147   146    1
    35   147   150    1
    36   123   121   ar
    37   119   118    1
    38   119   121   ar
    39   151   152    1
    40   151   150    1
    41   153   152    1
    42   103    97    1
    43   103   102    1
    44    97    98    1
    45   141   146   am
    46   141   140    1
    47   118   115    1
    48   143   140    1
    49   143   145    1
    50   107   106    2
    51   106   105    1
    52   139   140    1
    53   139   136   am
    54    99    98    1
    55    99   104   am
    56    81    80    1
    57   135   136    1
    58   135   134    1
    59    77    80    1
    60    77    76    1
    61   162   163    1
    62   136   137    2
    63   105   104    1
    64    98   101    1
    65   115   114    1
    66   115   116    1
    67   132   131    2
    68   102   101    1
    69   108   109    1
    70   134   131   am
    71   163   164    1
    72   163   166    1
    73   131   130    1
    74   164   165    2
    75   109   110    1
    76   109   112    1
    77   111   110    2
    78   116   124   am
    79   116   117    2
    80   124   125    1
    81   168   166    1
    82   129   130    1
    83   129   126   am
    84   130   133    1
    85   166   167    1
    86   113   112    1
    87   126   125    1
    88   126   127    2
    89     4     3    2
    90   125   128    1
    91     3     2    1
    92    40    39    1
    93     2     1    1
    94     2     5    1
    95    22    21    1
    96    39    38    1
    97    23    21    1
    98    48    46    1
    99     5     6    1
   100    21    18    1
   101    16    15   ar
   102    16    14   ar
   103    15    13   ar
   104    46    45    1
   105    38    37    1
   106    14    12   ar
   107    18    17    1
   108    18    19    1
   109    47    45    1
   110    13    12   ar
   111    57    55   am
   112    74    73    1
   113    20    19    2
   114    27    26    2
   115    45    42    1
   116    17     9   am
   117    37    34    1
   118    12    11    1
   119    28    29    1
   120    28    25    1
   121    55    56    2
   122    55    54    1
   123    32    30   ar
   124    26    25    1
   125    73    75    1
   126    73    70    1
   127     9    10    2
   128     9     8    1
   129    29    30    1
   130    42    41    1
   131    42    43    1
   132    54    53    1
   133    25    24    1
   134     7     8    1
   135    34    33    1
   136    34    35    1
   137    30    31   ar
   138    11     8    1
   139    72    71    2
   140    71    70    1
   141    70    69    1
   142    43    44    2
   143    43    49   am
   144    35    36    2
   145    49    50    1
   146    53    50    1
   147    50    51    1
   148    61    60    2
   149    51    52    2
   150    65    64    1
   151    65    66    2
   152    64    63    1
   153    62    59    1
   154    62    63    1
   155    60    59    1
   156    58    59    1
   157    68    66    1
   158    66    67    1
