@<TRIPOS>MOLECULE
tmp/5t6eA01.pdb
 228 219 0 0 0
SMALL
GASTEIGER

@<TRIPOS>ATOM
      1  N         16.7910   18.9230  -20.5170 N.3    47  TYR47      -0.1227
      2  CA        16.5110   17.4930  -20.4440 C.3    47  TYR47       0.1736
      3  C         16.1090   17.0940  -19.0220 C.2    47  TYR47       0.2595
      4  O         15.8370   17.9420  -18.1990 O.2    47  TYR47      -0.2718
      5  CB        17.6910   16.6720  -21.0050 C.3    47  TYR47       0.0548
      6  CG        17.3290   15.2490  -21.4510 C.ar   47  TYR47      -0.0200
      7  CD1       16.2420   15.0210  -22.2760 C.ar   47  TYR47      -0.0009
      8  CD2       18.0910   14.1370  -21.0410 C.ar   47  TYR47      -0.0009
      9  CE1       15.8840   13.7340  -22.6600 C.ar   47  TYR47       0.0417
     10  CE2       17.7440   12.8450  -21.4140 C.ar   47  TYR47       0.0417
     11  CZ        16.6320   12.6480  -22.2300 C.ar   47  TYR47       0.1957
     12  OH        16.2570   11.3880  -22.6440 O.3    47  TYR47      -0.2866
     13  N         16.0660   15.7930  -18.7570 N.am   48  VAL48      -0.1966
     14  CA        15.4910   15.1850  -17.5390 C.3    48  VAL48       0.1727
     15  C         15.9790   15.7860  -16.2110 C.2    48  VAL48       0.2616
     16  O         17.1850   15.6750  -15.8650 O.2    48  VAL48      -0.2715
     17  CB        15.8280   13.6790  -17.5160 C.3    48  VAL48       0.0290
     18  CG1       15.2220   13.0000  -16.3040 C.3    48  VAL48       0.0023
     19  CG2       15.3380   12.9920  -18.7760 C.3    48  VAL48       0.0023
     20  N         15.0350   16.3740  -15.4600 N.am   49  GLU49      -0.1963
     21  CA        15.2630   16.8470  -14.0620 C.3    49  GLU49       0.1733
     22  C         14.5280   15.9670  -13.0330 C.2    49  GLU49       0.2616
     23  O         13.5300   15.3330  -13.3620 O.2    49  GLU49      -0.2715
     24  CB        14.7930   18.2910  -13.8980 C.3    49  GLU49       0.0429
     25  CG        15.5210   19.2760  -14.7850 C.3    49  GLU49       0.1163
     26  CD        15.0630   20.7100  -14.6010 C.2    49  GLU49       0.3649
     27  OE1       14.3180   20.9820  -13.6560 O.co2  49  GLU49      -0.2457
     28  OE2       15.4410   21.5800  -15.4030 O.co2  49  GLU49      -0.2457
     29  N         14.9970   15.9230  -11.7870 N.am   50  ASP50      -0.1957
     30  CA        14.2440   15.2290  -10.7360 C.3    50  ASP50       0.1840
     31  C         13.0680   16.1210  -10.3640 C.2    50  ASP50       0.2622
     32  O         12.9610   17.2620  -10.8230 O.2    50  ASP50      -0.2715
     33  CB        15.1060   14.9050   -9.5040 C.3    50  ASP50       0.1450
     34  CG        15.5580   16.1460   -8.7690 C.2    50  ASP50       0.3671
     35  OD1       16.1190   17.0300   -9.4310 O.co2  50  ASP50      -0.2456
     36  OD2       15.3520   16.2490   -7.5350 O.co2  50  ASP50      -0.2456
     37  N         12.1710   15.6010   -9.5480 N.am   51  ASP51      -0.1971
     38  CA        10.9330   16.3430   -9.2570 C.3    51  ASP51       0.1709
     39  C         11.1330   17.5960   -8.3570 C.2    51  ASP51       0.2293
     40  O         10.2650   18.4800   -8.3130 O.2    51  ASP51      -0.2864
     41  CB         9.8690   15.3850   -8.6900 C.3    51  ASP51       0.1436
     42  CG         9.1740   14.5750   -9.7620 C.2    51  ASP51       0.3671
     43  OD1        9.1560   15.0100  -10.9270 O.co2  51  ASP51      -0.2456
     44  OD2        8.6330   13.5030   -9.4560 O.co2  51  ASP51      -0.2456
     45  N         18.7040   18.3290   -9.6630 N.3    55  PHE55      -0.1241
     46  CA        19.6280   17.7740  -10.6390 C.3    55  PHE55       0.1605
     47  C         19.0430   17.6510  -12.0420 C.2    55  PHE55       0.2264
     48  O         17.8780   17.2840  -12.2210 O.2    55  PHE55      -0.2867
     49  CB        20.0670   16.3790  -10.2320 C.3    55  PHE55       0.0534
     50  CG        20.5610   16.2830   -8.8330 C.ar   55  PHE55      -0.0203
     51  CD1       21.7090   16.9680   -8.4430 C.ar   55  PHE55      -0.0042
     52  CD2       19.9110   15.4840   -7.9070 C.ar   55  PHE55      -0.0042
     53  CE1       22.1960   16.8780   -7.1420 C.ar   55  PHE55      -0.0003
     54  CE2       20.3880   15.3880   -6.6030 C.ar   55  PHE55      -0.0003
     55  CZ        21.5360   16.0860   -6.2210 C.ar   55  PHE55      -0.0000
     56  N         20.1810   15.8190  -15.8070 N.3    57  PHE57      -0.1241
     57  CA        21.1190   14.9550  -16.5190 C.3    57  PHE57       0.1605
     58  C         21.9630   15.7990  -17.4740 C.2    57  PHE57       0.2264
     59  O         21.4630   16.7330  -18.1270 O.2    57  PHE57      -0.2867
     60  CB        20.3970   13.8340  -17.2600 C.3    57  PHE57       0.0534
     61  CG        20.0170   12.6690  -16.3830 C.ar   57  PHE57      -0.0203
     62  CD1       20.8910   11.6610  -16.1510 C.ar   57  PHE57      -0.0042
     63  CD2       18.7740   12.5920  -15.8110 C.ar   57  PHE57      -0.0042
     64  CE1       20.5350   10.5740  -15.3720 C.ar   57  PHE57      -0.0003
     65  CE2       18.4070   11.5230  -15.0170 C.ar   57  PHE57      -0.0003
     66  CZ        19.2940   10.5050  -14.7990 C.ar   57  PHE57      -0.0000
     67  N         24.2950   14.5800  -20.1000 N.3    59  TYR59      -0.1241
     68  CA        24.9610   13.7840  -21.1240 C.3    59  TYR59       0.1605
     69  C         26.0740   14.6130  -21.8190 C.2    59  TYR59       0.2264
     70  O         25.8270   15.7270  -22.3010 O.2    59  TYR59      -0.2867
     71  CB        23.9570   13.2680  -22.1610 C.3    59  TYR59       0.0534
     72  CG        22.9940   12.2340  -21.6100 C.ar   59  TYR59      -0.0201
     73  CD1       23.2440   10.8800  -21.7310 C.ar   59  TYR59      -0.0009
     74  CD2       21.8380   12.6090  -20.9680 C.ar   59  TYR59      -0.0009
     75  CE1       22.3760    9.9390  -21.2080 C.ar   59  TYR59       0.0417
     76  CE2       20.9600   11.6650  -20.4450 C.ar   59  TYR59       0.0417
     77  CZ        21.2330   10.3340  -20.5690 C.ar   59  TYR59       0.1957
     78  OH        20.3590    9.4140  -20.0590 O.3    59  TYR59      -0.2866
     79  N         15.0430    7.3980  -27.4310 N.3   113  ASN113     -0.1240
     80  CA        15.7000    8.1260  -26.3420 C.3   113  ASN113      0.1653
     81  C         15.8250    9.5870  -26.7390 C.2   113  ASN113      0.2266
     82  O         15.6080    9.9850  -27.8940 O.2   113  ASN113     -0.2867
     83  CB        17.0920    7.5050  -26.0170 C.3   113  ASN113      0.1155
     84  CG        17.4620    7.5880  -24.5400 C.2   113  ASN113      0.2627
     85  OD1       16.8380    8.2610  -23.7690 O.2   113  ASN113     -0.2716
     86  ND2       18.5020    6.8990  -24.1530 N.am  113  ASN113     -0.0877
     87  N         12.1500    3.5190  -22.2190 N.3   149  THR149     -0.1203
     88  CA        11.8610    3.7550  -20.8050 C.3   149  THR149      0.1994
     89  C         11.5010    5.1970  -20.5620 C.2   149  THR149      0.2618
     90  O         11.9200    6.0800  -21.3060 O.2   149  THR149     -0.2717
     91  CB        13.0740    3.4420  -19.9290 C.3   149  THR149      0.1784
     92  OG1       14.1690    4.3000  -20.2940 O.3   149  THR149     -0.2211
     93  CG2       13.4730    2.0090  -20.1130 C.3   149  THR149      0.0376
     94  N         10.7410    5.4350  -19.5030 N.am  150  ALA150     -0.1965
     95  CA        10.3840    6.7880  -19.1040 C.3   150  ALA150      0.1728
     96  C         10.2440    6.8130  -17.6000 C.2   150  ALA150      0.2616
     97  O         10.0550    5.7580  -16.9730 O.2   150  ALA150     -0.2715
     98  CB         9.0720    7.1940  -19.7650 C.3   150  ALA150      0.0334
     99  N         10.3470    8.0110  -17.0170 N.am  151  GLY151     -0.1955
    100  CA        10.0840    8.2030  -15.5780 C.3   151  GLY151      0.1869
    101  C          8.6130    8.3460  -15.2210 C.2   151  GLY151      0.2309
    102  O          8.2520    8.3370  -14.0760 O.2   151  GLY151     -0.2863
    103  N         15.4080    2.8540   -8.9160 N.3   163  TYR163     -0.1241
    104  CA        16.8000    3.3140   -8.8660 C.3   163  TYR163      0.1605
    105  C         17.3960    3.1600   -7.4690 C.2   163  TYR163      0.2264
    106  O         16.7270    3.4560   -6.4890 O.2   163  TYR163     -0.2867
    107  CB        16.8750    4.7930   -9.2460 C.3   163  TYR163      0.0534
    108  CG        16.9140    5.0770  -10.7240 C.ar  163  TYR163     -0.0201
    109  CD1       18.0790    4.8910  -11.4680 C.ar  163  TYR163     -0.0009
    110  CD2       15.7940    5.5770  -11.3770 C.ar  163  TYR163     -0.0009
    111  CE1       18.1080    5.1770  -12.8220 C.ar  163  TYR163      0.0417
    112  CE2       15.8090    5.8610  -12.7230 C.ar  163  TYR163      0.0417
    113  CZ        16.9580    5.6600  -13.4480 C.ar  163  TYR163      0.1957
    114  OH        16.9190    5.9590  -14.7910 O.3   163  TYR163     -0.2866
    115  N         21.2520    3.9800   -5.2190 N.3   165  HIS165     -0.1241
    116  CA        22.4330    4.8450   -5.2400 C.3   165  HIS165      0.1621
    117  C         23.4430    4.5330   -4.1240 C.2   165  HIS165      0.2264
    118  O         23.1600    4.7870   -2.9600 O.2   165  HIS165     -0.2867
    119  CB        22.0180    6.3060   -5.1040 C.3   165  HIS165      0.0745
    120  CG        20.8280    6.6860   -5.9280 C.ar  165  HIS165      0.0817
    121  ND1       20.9240    7.0610   -7.2500 N.ar  165  HIS165     -0.2268
    122  CD2       19.5120    6.7600   -5.6110 C.ar  165  HIS165      0.1154
    123  CE1       19.7170    7.3440   -7.7130 C.ar  165  HIS165      0.1986
    124  NE2       18.8450    7.1880   -6.7340 N.ar  165  HIS165     -0.2212
    125  N         21.9190   15.7470   -1.8850 N.3   178  PHE178     -0.1241
    126  CA        21.4130   14.4490   -2.2910 C.3   178  PHE178      0.1605
    127  C         21.2520   13.5060   -1.1030 C.2   178  PHE178      0.2264
    128  O         20.1780   12.9280   -0.9190 O.2   178  PHE178     -0.2867
    129  CB        22.2800   13.7850   -3.3660 C.3   178  PHE178      0.0534
    130  CG        21.8280   12.3940   -3.6800 C.ar  178  PHE178     -0.0203
    131  CD1       20.5180   12.1640   -4.1190 C.ar  178  PHE178     -0.0042
    132  CD2       22.6680   11.3060   -3.4590 C.ar  178  PHE178     -0.0042
    133  CE1       20.0680   10.8770   -4.3540 C.ar  178  PHE178     -0.0003
    134  CE2       22.2300   10.0190   -3.6990 C.ar  178  PHE178     -0.0003
    135  CZ        20.9310    9.8030   -4.1510 C.ar  178  PHE178     -0.0000
    136  N         27.9730    9.2790  -16.5540 N.3   276  LEU276     -0.1245
    137  CA        26.9050   10.1940  -16.8520 C.3   276  LEU276      0.1561
    138  C         26.7660   11.1910  -15.7200 C.2   276  LEU276      0.2260
    139  O         26.2650   10.8710  -14.6590 O.2   276  LEU276     -0.2867
    140  CB        25.5880    9.4270  -17.0480 C.3   276  LEU276      0.0270
    141  CG        24.3630   10.3060  -17.3010 C.3   276  LEU276      0.0019
    142  CD1       24.5990   11.2610  -18.4860 C.3   276  LEU276      0.0001
    143  CD2       23.1390    9.4120  -17.5260 C.3   276  LEU276      0.0001
    144  N         25.4590   14.5630  -13.6670 N.3   278  SER278     -0.1217
    145  CA        24.3270   15.4480  -13.5130 C.3   278  SER278      0.1889
    146  C         24.7860   16.8500  -13.1640 C.2   278  SER278      0.2288
    147  O         25.6660   17.0380  -12.3740 O.2   278  SER278     -0.2866
    148  CB        23.3750   14.9130  -12.4530 C.3   278  SER278      0.2089
    149  OG        22.6230   13.8560  -12.9890 O.3   278  SER278     -0.2183
    150  N         27.6950   16.5830  -10.3160 N.3   289  VAL289     -0.1245
    151  CA        27.7390   15.2430   -9.7040 C.3   289  VAL289      0.1561
    152  C         28.2380   14.2380  -10.7530 C.2   289  VAL289      0.2260
    153  O         27.6420   14.1310  -11.8210 O.2   289  VAL289     -0.2867
    154  CB        26.3520   14.7960   -9.1620 C.3   289  VAL289      0.0252
    155  CG1       26.2710   13.2690   -9.0200 C.3   289  VAL289      0.0019
    156  CG2       26.0850   15.4310   -7.8170 C.3   289  VAL289      0.0019
    157  N         26.9960    4.4790  -13.7130 N.3   293  TYR293     -0.1241
    158  CA        25.8600    3.5730  -13.7180 C.3   293  TYR293      0.1605
    159  C         26.2760    2.1680  -14.0790 C.2   293  TYR293      0.2264
    160  O         26.9990    1.9570  -15.0400 O.2   293  TYR293     -0.2867
    161  CB        24.8240    4.0240  -14.7360 C.3   293  TYR293      0.0534
    162  CG        24.1170    5.2910  -14.3720 C.ar  293  TYR293     -0.0201
    163  CD1       24.7540    6.5070  -14.4750 C.ar  293  TYR293     -0.0009
    164  CD2       22.7910    5.2710  -13.9650 C.ar  293  TYR293     -0.0009
    165  CE1       24.1060    7.6740  -14.1410 C.ar  293  TYR293      0.0417
    166  CE2       22.1300    6.4380  -13.6360 C.ar  293  TYR293      0.0417
    167  CZ        22.7890    7.6470  -13.7300 C.ar  293  TYR293      0.1957
    168  OH        22.1340    8.8420  -13.3850 O.3   293  TYR293     -0.2866
    169  N         29.3120    8.7200   -6.9680 N.3   332  VAL332     -0.1245
    170  CA        28.1540    7.8670   -6.6470 C.3   332  VAL332      0.1561
    171  C         27.9710    6.8440   -7.7510 C.2   332  VAL332      0.2260
    172  O         28.3160    7.1060   -8.8970 O.2   332  VAL332     -0.2867
    173  CB        26.8610    8.6820   -6.4210 C.3   332  VAL332      0.0252
    174  CG1       26.3720    9.3580   -7.6870 C.3   332  VAL332      0.0019
    175  CG2       25.7840    7.7990   -5.8250 C.3   332  VAL332      0.0019
    176  N         25.3130    4.1170   -9.4930 N.3   334  ASN334     -0.1240
    177  CA        23.8790    3.9880   -9.5970 C.3   334  ASN334      0.1653
    178  C         23.5120    2.6680  -10.2490 C.2   334  ASN334      0.2266
    179  O         24.2040    2.2160  -11.1500 O.2   334  ASN334     -0.2867
    180  CB        23.3130    5.1640  -10.3710 C.3   334  ASN334      0.1155
    181  CG        23.3670    6.4790   -9.5760 C.2   334  ASN334      0.2627
    182  OD1       23.5140    6.4790   -8.3620 O.2   334  ASN334     -0.2716
    183  ND2       23.2110    7.6050  -10.2700 N.am  334  ASN334     -0.0877
    184  N         14.2040    7.5580   -5.1140 N.3   354  ASP354     -0.1225
    185  CA        12.8320    7.9530   -5.4320 C.3   354  ASP354      0.1805
    186  C         12.5320    7.7900   -6.9140 C.2   354  ASP354      0.2598
    187  O         11.3900    7.7140   -7.3130 O.2   354  ASP354     -0.2718
    188  CB        12.6010    9.4070   -5.0440 C.3   354  ASP354      0.1424
    189  CG        12.9690    9.6960   -3.5880 C.2   354  ASP354      0.3668
    190  OD1       13.9760   10.3910   -3.3720 O.co2 354  ASP354     -0.2456
    191  OD2       12.2750    9.2250   -2.6630 O.co2 354  ASP354     -0.2456
    192  N         13.5800    7.7530   -7.7250 N.am  355  GLY355     -0.1942
    193  CA        13.4400    7.5160   -9.1470 C.3   355  GLY355      0.2014
    194  C         12.8910    6.1280   -9.4720 C.2   355  GLY355      0.2639
    195  O         13.2320    5.1270   -8.8150 O.2   355  GLY355     -0.2714
    196  N         12.0520    6.0960  -10.5140 N.am  356  GLN356     -0.1963
    197  CA        11.4580    4.8700  -11.0210 C.3   356  GLN356      0.1733
    198  C         11.5550    4.8830  -12.5250 C.2   356  GLN356      0.2616
    199  O         11.3020    5.9090  -13.1540 O.2   356  GLN356     -0.2715
    200  CB        10.0050    4.7820  -10.6250 C.3   356  GLN356      0.0408
    201  CG         9.4840    3.3540  -10.6570 C.3   356  GLN356      0.0908
    202  CD         9.8590    2.5800   -9.4250 C.2   356  GLN356      0.2608
    203  OE1       10.4250    3.1310   -8.4740 O.2   356  GLN356     -0.2717
    204  NE2        9.5370    1.2950   -9.4220 N.am  356  GLN356     -0.0878
    205  N         11.9520    3.7510  -13.0960 N.am  357  LEU357     -0.1977
    206  CA        12.0110    3.6220  -14.5400 C.3   357  LEU357      0.1596
    207  C         10.9880    2.6000  -15.0170 C.2   357  LEU357      0.2287
    208  O         11.0140    1.4460  -14.5830 O.2   357  LEU357     -0.2864
    209  CB        13.4140    3.2360  -14.9870 C.3   357  LEU357      0.0297
    210  CG        13.6980    3.6280  -16.4210 C.3   357  LEU357      0.0022
    211  CD1       13.6330    5.1440  -16.6030 C.3   357  LEU357      0.0001
    212  CD2       15.0490    3.1130  -16.8740 C.3   357  LEU357      0.0001
    213  N         18.8760    0.5270  -20.5870 N.3   391  MET391     -0.1230
    214  CA        18.8140    1.5990  -21.5790 C.3   391  MET391      0.1702
    215  C         19.4410    2.8530  -20.9840 C.2   391  MET391      0.2592
    216  O         19.3460    3.1110  -19.7810 O.2   391  MET391     -0.2718
    217  CB        17.3780    1.8450  -22.0690 C.3   391  MET391      0.0401
    218  CG        16.7540    0.6610  -22.8230 C.3   391  MET391      0.0596
    219  SD        15.2860    1.0860  -23.7910 S.3   391  MET391     -0.1393
    220  CE        15.9440    2.4120  -24.8150 C.3   391  MET391      0.0692
    221  N         20.0980    3.6180  -21.8410 N.am  392  LEU392     -0.1980
    222  CA        20.9350    4.7270  -21.4130 C.3   392  LEU392      0.1596
    223  C         20.1310    5.9860  -21.0060 C.2   392  LEU392      0.2287
    224  O         19.0240    6.1950  -21.4930 O.2   392  LEU392     -0.2864
    225  CB        21.9460    5.0250  -22.5430 C.3   392  LEU392      0.0297
    226  CG        22.8840    3.8570  -22.8270 C.3   392  LEU392      0.0022
    227  CD1       23.7180    4.1810  -24.0530 C.3   392  LEU392      0.0001
    228  CD2       23.8120    3.4990  -21.6720 C.3   392  LEU392      0.0001
@<TRIPOS>BOND
     1    82    81    2
     2    79    80    1
     3    81    80    1
     4    80    83    1
     5    83    84    1
     6   220   219    1
     7    84    86   am
     8    84    85    2
     9   227   226    1
    10   219   218    1
    11   226   225    1
    12   226   228    1
    13   218   217    1
    14     9     7   ar
    15     9    11   ar
    16    12    11    1
    17   225   222    1
    18    70    69    2
    19     7     6   ar
    20    11    10   ar
    21    87    88    1
    22    71    72    1
    23    71    68    1
    24   217   214    1
    25   221   222    1
    26   221   215   am
    27    69    68    1
    28    73    72   ar
    29    73    75   ar
    30    72    74   ar
    31   214   215    1
    32   214   213    1
    33   224   223    2
    34     6     8   ar
    35     6     5    1
    36    10     8   ar
    37   222   223    1
    38    90    89    2
    39    75    77   ar
    40    68    67    1
    41     5     2    1
    42   215   216    2
    43    74    76   ar
    44    88    89    1
    45    88    91    1
    46    77    76   ar
    47    77    78    1
    48    89    94   am
    49     1     2    1
    50     2     3    1
    51    92    91    1
    52    93    91    1
    53    98    95    1
    54    94    95    1
    55    95    96    1
    56     3    13   am
    57     3     4    2
    58    19    17    1
    59    13    14    1
    60   142   141    1
    61    59    58    2
    62    96    99   am
    63    96    97    2
    64    14    17    1
    65    14    15    1
    66   143   141    1
    67    17    18    1
    68    58    57    1
    69   141   140    1
    70    60    57    1
    71    60    61    1
    72   140   137    1
    73    99   100    1
    74   212   210    1
    75   137   136    1
    76   137   138    1
    77   211   210    1
    78    57    56    1
    79   210   209    1
    80    61    62   ar
    81    61    63   ar
    82    15    16    2
    83    15    20   am
    84    62    64   ar
    85    63    65   ar
    86   138   139    2
    87   100   101    1
    88    20    21    1
    89    28    26   ar
    90    64    66   ar
    91   101   102    2
    92   160   159    2
    93   207   208    2
    94   207   206    1
    95    65    66   ar
    96   209   206    1
    97   114   113    1
    98    25    26    1
    99    25    24    1
   100   161   162    1
   101   161   158    1
   102    26    27   ar
   103   206   205    1
   104   163   162   ar
   105   163   165   ar
   106   162   164   ar
   107   165   167   ar
   108   159   158    1
   109    21    24    1
   110    21    22    1
   111   164   166   ar
   112   167   166   ar
   113   167   168    1
   114   158   157    1
   115   144   145    1
   116   145   146    1
   117   145   148    1
   118   113   111   ar
   119   113   112   ar
   120    23    22    2
   121   146   147    2
   122   199   198    2
   123   205   198   am
   124    22    29   am
   125   149   148    1
   126   111   109   ar
   127   112   110   ar
   128   198   197    1
   129    48    47    2
   130    47    46    1
   131   153   152    2
   132    29    30    1
   133   109   108   ar
   134   110   108   ar
   135   179   178    2
   136   197   200    1
   137   197   196    1
   138    43    42   ar
   139    32    31    2
   140   152   151    1
   141    30    31    1
   142    30    33    1
   143   108   107    1
   144   201   200    1
   145   201   202    1
   146    46    49    1
   147    46    45    1
   148   196   194   am
   149   180   177    1
   150   180   181    1
   151    31    37   am
   152   150   151    1
   153   183   181   am
   154   178   177    1
   155    49    50    1
   156    42    44   ar
   157    42    41    1
   158   151   154    1
   159   177   176    1
   160   181   182    2
   161    37    38    1
   162    33    34    1
   163   194   193    1
   164   194   195    2
   165    35    34   ar
   166   202   204   am
   167   202   203    2
   168    38    41    1
   169    38    39    1
   170   107   104    1
   171   154   155    1
   172   154   156    1
   173   193   192    1
   174   103   104    1
   175   172   171    2
   176   104   105    1
   177    50    51   ar
   178    50    52   ar
   179    34    36   ar
   180    51    53   ar
   181    39    40    2
   182    52    54   ar
   183   171   170    1
   184   192   186   am
   185   123   121   ar
   186   123   124   ar
   187   174   173    1
   188   105   106    2
   189   187   186    2
   190   121   120   ar
   191    53    55   ar
   192   169   170    1
   193   186   185    1
   194   124   122   ar
   195   170   173    1
   196    54    55   ar
   197   173   175    1
   198   120   122   ar
   199   120   119    1
   200   185   184    1
   201   185   188    1
   202   116   115    1
   203   116   119    1
   204   116   117    1
   205   188   189    1
   206   133   135   ar
   207   133   131   ar
   208   135   134   ar
   209   117   118    2
   210   131   130   ar
   211   134   132   ar
   212   130   132   ar
   213   130   129    1
   214   189   190   ar
   215   189   191   ar
   216   129   126    1
   217   126   125    1
   218   126   127    1
   219   127   128    2
