@<TRIPOS>MOLECULE
tmp/5t6fB00.pdb
 140 134 0 0 0
SMALL
GASTEIGER

@<TRIPOS>ATOM
      1  N         13.7430   86.0690   21.0380 N.3    16  SER16      -0.1217
      2  CA        15.1680   85.8430   21.3120 C.3    16  SER16       0.1889
      3  C         15.4370   84.5640   22.1260 C.2    16  SER16       0.2288
      4  O         16.5550   84.3780   22.6490 O.2    16  SER16      -0.2866
      5  CB        15.7470   87.0540   22.0400 C.3    16  SER16       0.2089
      6  OG        15.0270   87.3220   23.2420 O.3    16  SER16      -0.2183
      7  N         11.3660   88.4120   29.0090 N.3    32  HIS32      -0.1226
      8  CA        12.3460   89.2770   28.3730 C.3    32  HIS32       0.1752
      9  C         12.7110   88.8380   26.9640 C.2    32  HIS32       0.2595
     10  O         13.3780   89.6070   26.2700 O.2    32  HIS32      -0.2718
     11  CB        13.6080   89.4110   29.2120 C.3    32  HIS32       0.0759
     12  CG        14.4750   88.1960   29.2610 C.ar   32  HIS32       0.0818
     13  ND1       14.3800   87.2540   30.2650 N.ar   32  HIS32      -0.2268
     14  CD2       15.5110   87.8080   28.4790 C.ar   32  HIS32       0.1154
     15  CE1       15.3060   86.3280   30.0870 C.ar   32  HIS32       0.1986
     16  NE2       16.0040   86.6370   29.0050 N.ar   32  HIS32      -0.2212
     17  N         12.2590   87.6680   26.5090 N.am   33  VAL33      -0.1980
     18  CA        12.5120   87.2550   25.1280 C.3    33  VAL33       0.1595
     19  C         11.3260   87.5210   24.2160 C.2    33  VAL33       0.2287
     20  O         11.4310   87.2910   23.0120 O.2    33  VAL33      -0.2864
     21  CB        12.9240   85.7690   25.0280 C.3    33  VAL33       0.0276
     22  CG1       14.0910   85.4430   25.9910 C.3    33  VAL33       0.0022
     23  CG2       11.7320   84.8570   25.2400 C.3    33  VAL33       0.0022
     24  N          8.5530   87.8810   35.0160 N.3    56  GLU56      -0.1245
     25  CA         9.3040   87.2660   33.9250 C.3    56  GLU56       0.1567
     26  C          8.6610   85.9780   33.4320 C.2    56  GLU56       0.2260
     27  O          9.2590   85.2840   32.5860 O.2    56  GLU56      -0.2867
     28  CB        10.7680   86.9970   34.2870 C.3    56  GLU56       0.0388
     29  CG        11.6550   88.2250   34.1300 C.3    56  GLU56       0.1160
     30  CD        11.8430   88.6070   32.6700 C.2    56  GLU56       0.3649
     31  OE1       11.6850   89.8060   32.3310 O.co2  56  GLU56      -0.2457
     32  OE2       12.1410   87.6960   31.8640 O.co2  56  GLU56      -0.2457
     33  N         16.6610   91.3680   39.4710 N.3   111  ILE111     -0.1231
     34  CA        17.8230   91.0680   38.6260 C.3   111  ILE111      0.1692
     35  C         17.8540   92.0440   37.4630 C.2   111  ILE111      0.2591
     36  O         16.8530   92.1860   36.7520 O.2   111  ILE111     -0.2718
     37  CB        17.7840   89.6450   38.0460 C.3   111  ILE111      0.0266
     38  CG1       17.6780   88.6060   39.1550 C.3   111  ILE111      0.0019
     39  CG2       19.0090   89.3980   37.1490 C.3   111  ILE111      0.0020
     40  CD1       17.2720   87.2270   38.6340 C.3   111  ILE111      0.0001
     41  N         19.0220   92.6430   37.2130 N.am  112  GLN112     -0.1979
     42  CA        19.1750   93.6630   36.1800 C.3   112  GLN112      0.1601
     43  C         17.9180   94.5220   36.1370 C.2   112  GLN112      0.2287
     44  O         17.3650   94.7910   35.0620 O.2   112  GLN112     -0.2864
     45  CB        19.4690   93.0250   34.8120 C.3   112  GLN112      0.0394
     46  CG        20.7920   92.2710   34.6940 C.3   112  GLN112      0.0908
     47  CD        21.9800   93.1410   35.0100 C.2   112  GLN112      0.2608
     48  OE1       22.1050   94.2330   34.4210 O.2   112  GLN112     -0.2717
     49  NE2       22.7650   92.7760   35.9740 N.am  112  GLN112     -0.0878
     50  N         14.7800   93.9650   37.1270 N.3   114  ARG114     -0.1245
     51  CA        13.4930   93.3610   36.8320 C.3   114  ARG114      0.1563
     52  C         13.1400   92.4060   37.9580 C.2   114  ARG114      0.2260
     53  O         13.9710   91.5950   38.3810 O.2   114  ARG114     -0.2867
     54  CB        13.5080   92.6320   35.4740 C.3   114  ARG114      0.0307
     55  CG        13.5320   93.5500   34.2560 C.3   114  ARG114      0.0489
     56  CD        13.4450   92.7980   32.9700 C.3   114  ARG114      0.2205
     57  NE        14.4280   91.7340   32.7120 N.pl3 114  ARG114     -0.0865
     58  CZ        15.5150   91.8730   31.9860 C.cat 114  ARG114      0.5346
     59  NH1       15.8230   93.0630   31.4160 N.pl3 114  ARG114      0.1354
     60  NH2       16.3610   90.8810   31.8470 N.pl3 114  ARG114      0.1354
     61  N         11.8540   89.1700   39.3830 N.3   116  VAL116     -0.1245
     62  CA        11.7450   87.8090   38.8750 C.3   116  VAL116      0.1561
     63  C         11.1320   86.9180   39.9290 C.2   116  VAL116      0.2260
     64  O         11.6600   86.8070   41.0460 O.2   116  VAL116     -0.2867
     65  CB        13.0960   87.2210   38.4520 C.3   116  VAL116      0.0252
     66  CG1       12.8860   85.7760   37.9450 C.3   116  VAL116      0.0019
     67  CG2       13.7240   88.0860   37.4120 C.3   116  VAL116      0.0019
     68  N         23.5830   75.9090   30.4910 N.3   126  THR126     -0.1203
     69  CA        22.6770   76.7290   29.6920 C.3   126  THR126      0.1994
     70  C         23.4100   77.9730   29.2010 C.2   126  THR126      0.2618
     71  O         24.3430   78.4500   29.8460 O.2   126  THR126     -0.2717
     72  CB        21.4360   77.1390   30.4970 C.3   126  THR126      0.1784
     73  OG1       21.8100   77.9480   31.6210 O.3   126  THR126     -0.2211
     74  CG2       20.6760   75.9170   31.0010 C.3   126  THR126      0.0376
     75  N         22.9730   78.5020   28.0610 N.am  127  ILE127     -0.1966
     76  CA        23.6370   79.6360   27.4200 C.3   127  ILE127      0.1712
     77  C         22.6540   80.7010   26.9460 C.2   127  ILE127      0.2458
     78  O         21.4330   80.4620   26.9190 O.2   127  ILE127     -0.2730
     79  CB        24.4950   79.1420   26.2470 C.3   127  ILE127      0.0289
     80  CG1       23.5900   78.7220   25.0760 C.3   127  ILE127      0.0022
     81  CG2       25.4020   78.0050   26.7190 C.3   127  ILE127      0.0023
     82  CD1       24.3000   77.9120   23.9890 C.3   127  ILE127      0.0001
     83  N         23.1420   81.8890   26.5790 N.am  128  PRO128     -0.2716
     84  CA        22.2780   82.8830   25.9340 C.3   128  PRO128      0.1536
     85  C         21.5640   82.2760   24.7430 C.2   128  PRO128      0.2599
     86  O         22.1520   81.5280   23.9630 O.2   128  PRO128     -0.2715
     87  CB        23.2590   83.9790   25.5040 C.3   128  PRO128      0.0310
     88  CG        24.3760   83.8620   26.4510 C.3   128  PRO128      0.0237
     89  CD        24.5220   82.3930   26.7390 C.3   128  PRO128      0.0939
     90  N         20.2870   82.5870   24.6160 N.am  129  GLY129     -0.1955
     91  CA        19.4480   81.9730   23.6140 C.3   129  GLY129      0.1869
     92  C         18.5840   80.8290   24.1100 C.2   129  GLY129      0.2309
     93  O         17.6290   80.4670   23.4120 O.2   129  GLY129     -0.2863
     94  N         16.7490   80.9880   26.9700 N.3   131  CYS131     -0.1235
     95  CA        15.6690   81.3970   27.8550 C.3   131  CYS131      0.1677
     96  C         14.3470   81.0820   27.1910 C.2   131  CYS131      0.2270
     97  O         14.2130   81.1820   25.9680 O.2   131  CYS131     -0.2867
     98  CB        15.7530   82.8740   28.2010 C.3   131  CYS131      0.0956
     99  SG        16.9180   83.1550   29.4960 S.3   131  CYS131     -0.0801
    100  N         12.9930   78.7800   31.4590 N.3   149  HIS149     -0.1226
    101  CA        14.3430   79.1890   31.8010 C.3   149  HIS149      0.1752
    102  C         14.5150   80.7040   31.7330 C.2   149  HIS149      0.2596
    103  O         14.1850   81.3420   30.7300 O.2   149  HIS149     -0.2718
    104  CB        15.3590   78.5160   30.8690 C.3   149  HIS149      0.0759
    105  CG        16.7690   78.7300   31.3120 C.ar  149  HIS149      0.0818
    106  ND1       17.2470   78.2990   32.5380 N.ar  149  HIS149     -0.2268
    107  CD2       17.7790   79.4020   30.7260 C.ar  149  HIS149      0.1154
    108  CE1       18.5120   78.6670   32.6590 C.ar  149  HIS149      0.1986
    109  NE2       18.8590   79.3280   31.5660 N.ar  149  HIS149     -0.2212
    110  N         15.1080   81.2750   32.7840 N.am  150  ALA150     -0.1966
    111  CA        15.3230   82.7140   32.8020 C.3   150  ALA150      0.1728
    112  C         16.7620   83.1240   33.0420 C.2   150  ALA150      0.2616
    113  O         17.1580   84.1940   32.5660 O.2   150  ALA150     -0.2715
    114  CB        14.4620   83.3900   33.8550 C.3   150  ALA150      0.0334
    115  N         17.5440   82.3350   33.7840 N.am  151  ALA151     -0.1963
    116  CA        18.8400   82.8330   34.2210 C.3   151  ALA151      0.1728
    117  C         19.7200   81.7150   34.7520 C.2   151  ALA151      0.2616
    118  O         19.2530   80.6190   35.0700 O.2   151  ALA151     -0.2715
    119  CB        18.6800   83.9040   35.3000 C.3   151  ALA151      0.0334
    120  N         21.0170   82.0240   34.8560 N.am  152  ALA152     -0.1963
    121  CA        21.9920   81.1090   35.4370 C.3   152  ALA152      0.1728
    122  C         23.2070   81.9110   35.8810 C.2   152  ALA152      0.2617
    123  O         23.4590   83.0170   35.3900 O.2   152  ALA152     -0.2715
    124  CB        22.4010   80.0090   34.4530 C.3   152  ALA152      0.0334
    125  N         23.9490   81.3370   36.8210 N.am  153  THR153     -0.1937
    126  CA        25.1700   81.9430   37.3380 C.3   153  THR153      0.2028
    127  C         26.3250   81.8080   36.3420 C.2   153  THR153      0.2642
    128  O         26.2650   81.0500   35.3670 O.2   153  THR153     -0.2714
    129  CB        25.5760   81.2930   38.6490 C.3   153  THR153      0.1808
    130  OG1       25.7290   79.8820   38.4600 O.3   153  THR153     -0.2208
    131  CG2       24.5320   81.5390   39.7110 C.3   153  THR153      0.0379
    132  N         27.4120   82.5340   36.6220 N.am  154  LYS154     -0.1977
    133  CA        28.6090   82.4390   35.7850 C.3   154  LYS154      0.1596
    134  C         29.0360   80.9860   35.6110 C.2   154  LYS154      0.2287
    135  O         29.2170   80.5060   34.4860 O.2   154  LYS154     -0.2864
    136  CB        29.7430   83.2650   36.3960 C.3   154  LYS154      0.0298
    137  CG        29.6080   84.7520   36.1790 C.3   154  LYS154      0.0038
    138  CD        29.7740   85.0900   34.7140 C.3   154  LYS154      0.0206
    139  CE        29.5090   86.5540   34.4510 C.3   154  LYS154      0.1093
    140  NZ        28.1020   86.9010   34.7710 N.3   154  LYS154     -0.1314
@<TRIPOS>BOND
     1     1     2    1
     2     2     5    1
     3     2     3    1
     4     5     6    1
     5     3     4    2
     6    20    19    2
     7    93    92    2
     8    91    92    1
     9    91    90    1
    10    86    85    2
    11    82    80    1
    12    19    18    1
    13    90    85   am
    14    85    84    1
    15    21    18    1
    16    21    23    1
    17    21    22    1
    18    80    79    1
    19    18    17    1
    20    87    84    1
    21    87    88    1
    22    84    83    1
    23    97    96    2
    24    79    81    1
    25    79    76    1
    26    10     9    2
    27    88    89    1
    28    17     9   am
    29    83    89    1
    30    83    77   am
    31    78    77    2
    32    77    76    1
    33     9     8    1
    34    94    95    1
    35    96    95    1
    36    76    75    1
    37    95    98    1
    38    75    70   am
    39    98    99    1
    40     8     7    1
    41     8    11    1
    42    14    16   ar
    43    14    12   ar
    44    16    15   ar
    45    70    69    1
    46    70    71    2
    47    11    12    1
    48    12    13   ar
    49    69    68    1
    50    69    72    1
    51    15    13   ar
    52    72    74    1
    53    72    73    1
    54   107   105   ar
    55   107   109   ar
    56   103   102    2
    57   104   105    1
    58   104   101    1
    59   105   106   ar
    60    59    58    1
    61   100   101    1
    62   109   108   ar
    63   102   101    1
    64   102   110   am
    65    60    58    1
    66    32    30   ar
    67    58    57    2
    68    31    30   ar
    69   106   108   ar
    70   113   112    2
    71    27    26    2
    72    30    29    1
    73    57    56    1
    74   110   111    1
    75   111   112    1
    76   111   114    1
    77    56    55    1
    78   112   115   am
    79    26    25    1
    80   115   116    1
    81    25    28    1
    82    25    24    1
    83    29    28    1
    84   116   117    1
    85   116   119    1
    86    55    54    1
    87    48    47    2
    88   139   138    1
    89   139   140    1
    90   124   121    1
    91   135   134    2
    92    46    45    1
    93    46    47    1
    94   138   137    1
    95   117   120   am
    96   117   118    2
    97    45    42    1
    98   120   121    1
    99    47    49   am
   100    44    43    2
   101   128   127    2
   102   123   122    2
   103   121   122    1
   104    54    51    1
   105   134   133    1
   106   133   136    1
   107   133   132    1
   108   122   125   am
   109    43    42    1
   110   137   136    1
   111    42    41    1
   112   127   132   am
   113   127   126    1
   114    36    35    2
   115   125   126    1
   116    51    50    1
   117    51    52    1
   118    39    37    1
   119    41    35   am
   120   126   129    1
   121    67    65    1
   122    35    34    1
   123    66    65    1
   124    52    53    2
   125    37    34    1
   126    37    38    1
   127    65    62    1
   128   130   129    1
   129    34    33    1
   130    40    38    1
   131   129   131    1
   132    62    61    1
   133    62    63    1
   134    63    64    2
