@<TRIPOS>MOLECULE
tmp/5t6gA00.pdb
 159 149 0 0 0
SMALL
GASTEIGER

@<TRIPOS>ATOM
      1  N         12.2310   23.8860   -8.4360 N.3    16  SER16      -0.1217
      2  CA        12.9620   22.9000   -9.2210 C.3    16  SER16       0.1889
      3  C         12.1290   22.3360  -10.3700 C.2    16  SER16       0.2288
      4  O         12.3040   21.1750  -10.7440 O.2    16  SER16      -0.2866
      5  CB        13.4540   21.7720   -8.3170 C.3    16  SER16       0.2089
      6  OG        12.5570   21.5260   -7.2630 O.3    16  SER16      -0.2183
      7  N          6.5290   18.9330   -4.4460 N.3    32  HIS32      -0.1226
      8  CA         7.9540   18.7200   -4.1440 C.3    32  HIS32       0.1752
      9  C          8.8520   19.6790   -4.9000 C.2    32  HIS32       0.2595
     10  O         10.0400   19.7770   -4.5870 O.2    32  HIS32      -0.2718
     11  CB         8.3800   17.2660   -4.4290 C.3    32  HIS32       0.0759
     12  CG         8.5040   16.9160   -5.8810 C.ar   32  HIS32       0.0818
     13  ND1        7.4540   16.4050   -6.6160 N.ar   32  HIS32      -0.2268
     14  CD2        9.5660   16.9560   -6.7220 C.ar   32  HIS32       0.1154
     15  CE1        7.8570   16.1740   -7.8530 C.ar   32  HIS32       0.1986
     16  NE2        9.1340   16.4950   -7.9430 N.ar   32  HIS32      -0.2212
     17  N          8.2880   20.3990   -5.8670 N.am   33  VAL33      -0.1980
     18  CA         8.9790   21.4270   -6.6280 C.3    33  VAL33       0.1595
     19  C          8.9850   22.7720   -5.8940 C.2    33  VAL33       0.2287
     20  O          9.8450   23.6190   -6.1590 O.2    33  VAL33      -0.2864
     21  CB         8.2640   21.4740   -7.9940 C.3    33  VAL33       0.0276
     22  CG1        7.8920   22.8810   -8.4070 C.3    33  VAL33       0.0022
     23  CG2        9.0730   20.7590   -9.0450 C.3    33  VAL33       0.0022
     24  N          0.9630   16.4380   -3.1480 N.3    56  GLU56      -0.1245
     25  CA         1.6610   16.7600   -4.3870 C.3    56  GLU56       0.1567
     26  C          0.9060   17.7540   -5.2650 C.2    56  GLU56       0.2260
     27  O          1.5020   18.2660   -6.2040 O.2    56  GLU56      -0.2867
     28  CB         2.0190   15.5210   -5.2350 C.3    56  GLU56       0.0388
     29  CG         3.2710   14.7640   -4.7930 C.3    56  GLU56       0.1160
     30  CD         4.4180   15.6730   -4.3290 C.2    56  GLU56       0.3649
     31  OE1        4.7050   15.6660   -3.1080 O.co2  56  GLU56      -0.2457
     32  OE2        5.0270   16.3910   -5.1700 O.co2  56  GLU56      -0.2457
     33  N         -1.4640    6.6880   -4.0340 N.3   109  MET109     -0.1245
     34  CA        -0.1770    6.0320   -4.2010 C.3   109  MET109      0.1570
     35  C          0.7720    6.5910   -3.1570 C.2   109  MET109      0.2261
     36  O          0.8420    7.8070   -2.9750 O.2   109  MET109     -0.2867
     37  CB         0.4070    6.2690   -5.6080 C.3   109  MET109      0.0387
     38  CG        -0.6080    6.2430   -6.7590 C.3   109  MET109      0.0595
     39  SD         0.0790    6.7640   -8.3690 S.3   109  MET109     -0.1393
     40  CE        -1.3580    6.6920   -9.4320 C.3   109  MET109      0.0692
     41  N          4.6600    6.9930   -2.8630 N.3   111  ILE111     -0.1231
     42  CA         5.7090    7.0690   -3.8690 C.3   111  ILE111      0.1692
     43  C          6.9230    7.6730   -3.1850 C.2   111  ILE111      0.2591
     44  O          6.8930    8.8420   -2.7830 O.2   111  ILE111     -0.2718
     45  CB         5.2990    7.9100   -5.0880 C.3   111  ILE111      0.0266
     46  CG1        4.1050    7.2610   -5.7970 C.3   111  ILE111      0.0019
     47  CG2        6.4850    8.0940   -6.0430 C.3   111  ILE111      0.0020
     48  CD1        3.6360    7.9820   -7.0790 C.3   111  ILE111      0.0001
     49  N          7.9810    6.8810   -3.0370 N.am  112  GLN112     -0.1979
     50  CA         9.2090    7.3510   -2.4060 C.3   112  GLN112      0.1601
     51  C          8.9010    8.0420   -1.0790 C.2   112  GLN112      0.2287
     52  O          9.5240    9.0400   -0.7020 O.2   112  GLN112     -0.2864
     53  CB         9.9750    8.2660   -3.3610 C.3   112  GLN112      0.0394
     54  CG        10.0570    7.6570   -4.7590 C.3   112  GLN112      0.0908
     55  CD        11.1830    8.2060   -5.5900 C.2   112  GLN112      0.2608
     56  OE1       11.4860    9.4000   -5.5440 O.2   112  GLN112     -0.2717
     57  NE2       11.8140    7.3340   -6.3650 N.am  112  GLN112     -0.0878
     58  N          6.1390    9.6700   -0.0200 N.3   114  ARG114     -0.1245
     59  CA         5.0870   10.6740    0.0200 C.3   114  ARG114      0.1563
     60  C          3.7640   10.0820   -0.4620 C.2   114  ARG114      0.2260
     61  O          3.7340    9.2170   -1.3430 O.2   114  ARG114     -0.2867
     62  CB         5.4740   11.8920   -0.8210 C.3   114  ARG114      0.0307
     63  CG         6.8370   12.3660   -0.4260 C.3   114  ARG114      0.0489
     64  CD         7.1250   13.7420   -0.9140 C.3   114  ARG114      0.2205
     65  NE         7.1370   13.7680   -2.3680 N.pl3 114  ARG114     -0.0865
     66  CZ         8.2430   13.4860   -3.0750 C.cat 114  ARG114      0.5346
     67  NH1        9.3910   13.2360   -2.4370 N.pl3 114  ARG114      0.1354
     68  NH2        8.1810   13.4770   -4.4090 N.pl3 114  ARG114      0.1354
     69  N          0.5850   10.3580   -2.5650 N.3   116  VAL116     -0.1245
     70  CA         0.2770   11.0310   -3.8220 C.3   116  VAL116      0.1561
     71  C         -1.1730   10.7380   -4.1910 C.2   116  VAL116      0.2260
     72  O         -1.5560    9.5730   -4.3650 O.2   116  VAL116     -0.2867
     73  CB         1.2130   10.5840   -4.9590 C.3   116  VAL116      0.0252
     74  CG1        0.7170   11.1260   -6.2990 C.3   116  VAL116      0.0019
     75  CG2        2.6410   11.0310   -4.7110 C.3   116  VAL116      0.0019
     76  N         -2.3630    7.9490  -13.1740 N.3   120  SER120     -0.1217
     77  CA        -1.3890    7.4650  -14.1310 C.3   120  SER120      0.1889
     78  C         -1.9030    7.6570  -15.5560 C.2   120  SER120      0.2288
     79  O         -3.0790    7.9520  -15.8060 O.2   120  SER120     -0.2866
     80  CB        -1.0630    5.9930  -13.8920 C.3   120  SER120      0.2089
     81  OG        -2.1510    5.1750  -14.2940 O.3   120  SER120     -0.2183
     82  N          9.3380   12.3030  -20.1750 N.3   136  THR136     -0.1203
     83  CA         9.5290   13.2660  -19.1150 C.3   136  THR136      0.1994
     84  C         10.7890   12.9350  -18.3350 C.2   136  THR136      0.2618
     85  O         11.1820   11.7750  -18.2170 O.2   136  THR136     -0.2717
     86  CB         8.3210   13.2600  -18.1890 C.3   136  THR136      0.1784
     87  OG1        8.1410   11.9490  -17.6450 O.3   136  THR136     -0.2211
     88  CG2        7.1130   13.6040  -18.9410 C.3   136  THR136      0.0376
     89  N         11.4160   13.9680  -17.7880 N.am  137  ILE137     -0.1966
     90  CA        12.7200   13.8100  -17.1480 C.3   137  ILE137      0.1712
     91  C         12.7640   14.6680  -15.8880 C.2   137  ILE137      0.2458
     92  O         11.8920   15.5260  -15.6930 O.2   137  ILE137     -0.2730
     93  CB        13.8560   14.1800  -18.1190 C.3   137  ILE137      0.0289
     94  CG1       13.6820   15.6230  -18.6010 C.3   137  ILE137      0.0022
     95  CG2       13.8980   13.2000  -19.2950 C.3   137  ILE137      0.0023
     96  CD1       14.7890   16.1190  -19.5430 C.3   137  ILE137      0.0001
     97  N         13.7390   14.4630  -15.0070 N.am  138  PRO138     -0.2716
     98  CA        13.9000   15.3620  -13.8610 C.3   138  PRO138      0.1536
     99  C         13.9160   16.8140  -14.3090 C.2   138  PRO138      0.2599
    100  O         14.5470   17.1590  -15.3060 O.2   138  PRO138     -0.2715
    101  CB        15.2550   14.9440  -13.2800 C.3   138  PRO138      0.0310
    102  CG        15.4020   13.5510  -13.6520 C.3   138  PRO138      0.0237
    103  CD        14.7990   13.4450  -15.0400 C.3   138  PRO138      0.0939
    104  N         13.2170   17.6670  -13.5570 N.am  139  GLY139     -0.1955
    105  CA        13.0220   19.0540  -13.9140 C.3   139  GLY139      0.1869
    106  C         11.6870   19.3550  -14.5620 C.2   139  GLY139      0.2309
    107  O         11.2890   20.5210  -14.6060 O.2   139  GLY139     -0.2863
    108  N          8.6570   18.4480  -13.5310 N.3   141  CYS141     -0.1235
    109  CA         7.4800   18.3750  -12.6780 C.3   141  CYS141      0.1677
    110  C          6.8030   19.7330  -12.5280 C.2   141  CYS141      0.2270
    111  O          7.4540   20.7840  -12.4380 O.2   141  CYS141     -0.2867
    112  CB         7.8510   17.8240  -11.3230 C.3   141  CYS141      0.0956
    113  SG         8.0770   16.0370  -11.3370 S.3   141  CYS141     -0.0801
    114  N          2.4980   17.5580  -13.5510 N.3   159  HIS159     -0.1226
    115  CA         3.3310   16.3710  -13.6920 C.3   159  HIS159      0.1752
    116  C          4.0940   16.0960  -12.4080 C.2   159  HIS159      0.2596
    117  O          4.6540   17.0060  -11.7960 O.2   159  HIS159     -0.2718
    118  CB         4.3200   16.5020  -14.8600 C.3   159  HIS159      0.0759
    119  CG         5.1640   15.2830  -15.0520 C.ar  159  HIS159      0.0818
    120  ND1        4.6430   14.0740  -15.4630 N.ar  159  HIS159     -0.2268
    121  CD2        6.4800   15.0680  -14.8240 C.ar  159  HIS159      0.1154
    122  CE1        5.6090   13.1770  -15.5090 C.ar  159  HIS159      0.1986
    123  NE2        6.7310   13.7500  -15.1120 N.ar  159  HIS159     -0.2212
    124  N          4.1490   14.8180  -12.0200 N.am  160  ALA160     -0.1966
    125  CA         4.7530   14.4510  -10.7510 C.3   160  ALA160      0.1728
    126  C          5.7700   13.3240  -10.8540 C.2   160  ALA160      0.2616
    127  O          6.7590   13.3180  -10.1060 O.2   160  ALA160     -0.2715
    128  CB         3.6530   14.0620   -9.7680 C.3   160  ALA160      0.0334
    129  N          5.5480   12.3570  -11.7470 N.am  161  ALA161     -0.1963
    130  CA         6.4340   11.2000  -11.7610 C.3   161  ALA161      0.1728
    131  C          6.3660   10.4770  -13.0950 C.2   161  ALA161      0.2616
    132  O          5.4520   10.6830  -13.8920 O.2   161  ALA161     -0.2715
    133  CB         6.0870   10.2290  -10.6300 C.3   161  ALA161      0.0334
    134  N          7.3510    9.6050  -13.3070 N.am  162  ALA162     -0.1963
    135  CA         7.4050    8.7180  -14.4560 C.3   162  ALA162      0.1728
    136  C          8.2010    7.4870  -14.0640 C.2   162  ALA162      0.2616
    137  O          9.0450    7.5440  -13.1700 O.2   162  ALA162     -0.2715
    138  CB         8.0550    9.3910  -15.6760 C.3   162  ALA162      0.0334
    139  N          7.9470    6.3770  -14.7570 N.am  163  THR163     -0.1951
    140  CA         8.7540    5.1810  -14.5510 C.3   163  THR163      0.1897
    141  C         10.1010    5.3350  -15.2560 C.2   163  THR163      0.2313
    142  O         10.3110    6.2510  -16.0570 O.2   163  THR163     -0.2863
    143  CB         8.0340    3.9270  -15.0580 C.3   163  THR163      0.1794
    144  OG1        7.4800    4.1720  -16.3480 O.3   163  THR163     -0.2208
    145  CG2        6.9250    3.5160  -14.1240 C.3   163  THR163      0.0378
    146  N          4.9750    5.0730  -18.4240 N.3   168  THR168     -0.1218
    147  CA         3.9390    5.4660  -17.4770 C.3   168  THR168      0.1862
    148  C          4.3410    6.7520  -16.7650 C.2   168  THR168      0.2287
    149  O          5.4580    6.8630  -16.2520 O.2   168  THR168     -0.2866
    150  CB         3.6680    4.3680  -16.4530 C.3   168  THR168      0.1770
    151  OG1        3.3060    3.1740  -17.1380 O.3   168  THR168     -0.2211
    152  CG2        2.5290    4.7660  -15.5380 C.3   168  THR168      0.0375
    153  N          2.7190   10.0370  -14.0950 N.3   170  VAL170     -0.1245
    154  CA         1.7370   10.3290  -13.0550 C.3   170  VAL170      0.1561
    155  C          1.6290   11.8380  -12.9060 C.2   170  VAL170      0.2260
    156  O          2.6450   12.5250  -12.7720 O.2   170  VAL170     -0.2867
    157  CB         2.1220    9.7050  -11.6990 C.3   170  VAL170      0.0252
    158  CG1        1.0680   10.0400  -10.6480 C.3   170  VAL170      0.0019
    159  CG2        2.2760    8.2280  -11.8350 C.3   170  VAL170      0.0019
@<TRIPOS>BOND
     1    82    83    1
     2    96    94    1
     3    95    93    1
     4    83    84    1
     5    83    86    1
     6    88    86    1
     7    94    93    1
     8   146   147    1
     9    84    85    2
    10    84    89   am
    11    86    87    1
    12    93    90    1
    13    89    90    1
    14   147   148    1
    15   147   150    1
    16    90    91    1
    17   151   150    1
    18   148   149    2
    19   150   152    1
    20   144   143    1
    21   142   141    2
    22    91    92    2
    23    91    97   am
    24    79    78    2
    25   138   135    1
    26    78    77    1
    27   122   120   ar
    28   122   123   ar
    29   120   119   ar
    30   100    99    2
    31   141   140    1
    32   123   121   ar
    33   143   140    1
    34   143   145    1
    35   119   118    1
    36   119   121   ar
    37   103    97    1
    38   103   102    1
    39    97    98    1
    40   118   115    1
    41   139   140    1
    42   139   136   am
    43   107   106    2
    44   106   105    1
    45   135   136    1
    46   135   134    1
    47    99    98    1
    48    99   104   am
    49    81    80    1
    50    77    80    1
    51    77    76    1
    52   153   154    1
    53   136   137    2
    54   105   104    1
    55   132   131    2
    56    98   101    1
    57   115   114    1
    58   115   116    1
    59   102   101    1
    60   108   109    1
    61   134   131   am
    62   131   130    1
    63   154   155    1
    64   154   157    1
    65   155   156    2
    66   109   110    1
    67   109   112    1
    68   110   111    2
    69   116   124   am
    70   116   117    2
    71   124   125    1
    72   159   157    1
    73   130   129    1
    74   130   133    1
    75   129   126   am
    76   157   158    1
    77   113   112    1
    78   126   125    1
    79   126   127    2
    80   125   128    1
    81     4     3    2
    82     3     2    1
    83    40    39    1
    84     2     1    1
    85     2     5    1
    86    23    21    1
    87    22    21    1
    88    39    38    1
    89     5     6    1
    90    21    18    1
    91    16    15   ar
    92    16    14   ar
    93    15    13   ar
    94    48    46    1
    95    38    37    1
    96    14    12   ar
    97    18    19    1
    98    18    17    1
    99    13    12   ar
   100    57    55   am
   101    74    73    1
   102    27    26    2
   103    20    19    2
   104    47    45    1
   105    12    11    1
   106    17     9   am
   107    46    45    1
   108    37    34    1
   109    55    56    2
   110    55    54    1
   111    26    25    1
   112    28    29    1
   113    28    25    1
   114    32    30   ar
   115    45    42    1
   116    73    75    1
   117    73    70    1
   118     9    10    2
   119     9     8    1
   120    29    30    1
   121    54    53    1
   122     7     8    1
   123    11     8    1
   124    68    66    1
   125    25    24    1
   126    72    71    2
   127    30    31   ar
   128    34    33    1
   129    34    35    1
   130    71    70    1
   131    42    43    1
   132    42    41    1
   133    70    69    1
   134    53    50    1
   135    43    49   am
   136    43    44    2
   137    35    36    2
   138    66    67    1
   139    66    65    2
   140    49    50    1
   141    50    51    1
   142    65    64    1
   143    61    60    2
   144    51    52    2
   145    64    63    1
   146    62    63    1
   147    62    59    1
   148    60    59    1
   149    58    59    1
