@<TRIPOS>MOLECULE
tmp/5t6iA00.pdb
 171 161 0 0 0
SMALL
GASTEIGER

@<TRIPOS>ATOM
      1  N          9.0450   -5.3600   35.3400 N.3    14  LEU14      -0.1231
      2  CA         8.9640   -5.9710   34.0110 C.3    14  LEU14       0.1693
      3  C          8.8590   -4.9220   32.8930 C.2    14  LEU14       0.2593
      4  O          9.2520   -5.2090   31.7610 O.2    14  LEU14      -0.2718
      5  CB         7.7610   -6.9110   33.9350 C.3    14  LEU14       0.0284
      6  CG         7.9100   -8.2240   34.6820 C.3    14  LEU14       0.0019
      7  CD1        6.5830   -8.9720   34.7530 C.3    14  LEU14       0.0001
      8  CD2        8.9960   -9.1060   34.0550 C.3    14  LEU14       0.0001
      9  N          8.3350   -3.7410   33.2060 N.am   15  GLY15      -0.1942
     10  CA         8.1860   -2.6690   32.2350 C.3    15  GLY15       0.2014
     11  C          7.0110   -1.7690   32.5350 C.2    15  GLY15       0.2639
     12  O          6.3590   -1.9100   33.5730 O.2    15  GLY15      -0.2714
     13  N          6.7450   -0.8320   31.6210 N.am   16  LYS16      -0.1963
     14  CA         5.6320    0.1000   31.7480 C.3    16  LYS16       0.1728
     15  C          4.3790   -0.5620   31.1960 C.2    16  LYS16       0.2617
     16  O          4.4660   -1.5100   30.4130 O.2    16  LYS16      -0.2715
     17  CB         5.9290    1.4030   30.9860 C.3    16  LYS16       0.0311
     18  CG         4.9880    2.5530   31.3450 C.3    16  LYS16       0.0038
     19  CD         5.5310    3.9120   30.9150 C.3    16  LYS16       0.0206
     20  CE         5.3590    4.1930   29.4370 C.3    16  LYS16       0.1093
     21  NZ         3.9420    4.4450   29.0480 N.3    16  LYS16      -0.1314
     22  N          3.2310   -0.0760   31.6390 N.am   17  GLY17      -0.1940
     23  CA         1.9320   -0.5580   31.1960 C.3    17  GLY17       0.2014
     24  C          0.9350    0.5730   31.0940 C.2    17  GLY17       0.2639
     25  O          1.1700    1.6680   31.6170 O.2    17  GLY17      -0.2714
     26  N         -0.1760    0.3220   30.4040 N.am   18  SER18      -0.1949
     27  CA        -1.2370    1.3100   30.2630 C.3    18  SER18       0.1924
     28  C         -2.0020    1.2750   31.5830 C.2    18  SER18       0.2314
     29  O         -2.2490    0.1830   32.0890 O.2    18  SER18      -0.2863
     30  CB        -2.1560    0.9490   29.1000 C.3    18  SER18       0.2116
     31  OG        -1.4160    0.7900   27.9000 O.3    18  SER18      -0.2180
     32  N          4.0090   -2.5390   35.6540 N.3    22  VAL22      -0.1245
     33  CA         4.0060   -4.0000   35.6160 C.3    22  VAL22       0.1561
     34  C          5.2110   -4.5460   36.3990 C.2    22  VAL22       0.2260
     35  O          6.3570   -4.2720   36.0410 O.2    22  VAL22      -0.2867
     36  CB         4.0030   -4.5170   34.1620 C.3    22  VAL22       0.0252
     37  CG1        3.7840   -6.0320   34.1230 C.3    22  VAL22       0.0019
     38  CG2        2.9350   -3.8020   33.3420 C.3    22  VAL22       0.0019
     39  N          2.7950  -11.7550   36.2980 N.3    35  ALA35      -0.1245
     40  CA         2.9140  -10.3550   35.8810 C.3    35  ALA35       0.1562
     41  C          1.7630   -9.6460   36.5980 C.2    35  ALA35       0.2260
     42  O          0.6150  -10.0890   36.4910 O.2    35  ALA35      -0.2867
     43  CB         2.7580  -10.2180   34.3730 C.3    35  ALA35       0.0290
     44  N         -0.0420   -5.8920   37.1850 N.3    37  LYS37      -0.1245
     45  CA        -0.1690   -4.4720   36.8430 C.3    37  LYS37       0.1561
     46  C         -0.8080   -3.7950   38.0390 C.2    37  LYS37       0.2260
     47  O         -1.8710   -4.2280   38.4770 O.2    37  LYS37      -0.2867
     48  CB        -1.0360   -4.2300   35.6140 C.3    37  LYS37       0.0271
     49  CG        -1.0120   -2.7520   35.1940 C.3    37  LYS37       0.0035
     50  CD        -1.9420   -2.4540   34.0610 C.3    37  LYS37       0.0206
     51  CE        -1.3030   -2.7840   32.7490 C.3    37  LYS37       0.1093
     52  NZ        -2.3130   -3.0880   31.7090 N.3    37  LYS37      -0.1314
     53  N         -3.9060  -12.9140   26.5620 N.3    67  MET67      -0.1245
     54  CA        -3.2260  -13.0140   27.8480 C.3    67  MET67       0.1570
     55  C         -4.1460  -13.6490   28.8850 C.2    67  MET67       0.2261
     56  O         -5.3210  -13.3110   28.9490 O.2    67  MET67      -0.2867
     57  CB        -2.7850  -11.6380   28.3470 C.3    67  MET67       0.0387
     58  CG        -2.4160  -11.6070   29.8250 C.3    67  MET67       0.0595
     59  SD        -1.4370  -10.1580   30.2340 S.3    67  MET67      -0.1393
     60  CE        -0.9870  -10.5410   31.8860 C.3    67  MET67       0.0692
     61  N         -5.5750  -13.9800   32.5470 N.3    69  LEU69      -0.1245
     62  CA        -5.7890  -13.2040   33.7660 C.3    69  LEU69       0.1561
     63  C         -6.1250  -14.2070   34.8630 C.2    69  LEU69       0.2260
     64  O         -7.0170  -15.0370   34.6780 O.2    69  LEU69      -0.2867
     65  CB        -6.9390  -12.2260   33.5480 C.3    69  LEU69       0.0270
     66  CG        -7.2410  -11.2400   34.6800 C.3    69  LEU69       0.0019
     67  CD1       -6.1470  -10.1790   34.8000 C.3    69  LEU69       0.0001
     68  CD2       -8.5890  -10.5680   34.4530 C.3    69  LEU69       0.0001
     69  N         -3.9880   -6.2950   38.9090 N.3    81  LEU81      -0.1231
     70  CA        -4.3770   -7.2720   37.8930 C.3    81  LEU81       0.1693
     71  C         -3.2530   -8.3060   37.7590 C.2    81  LEU81       0.2592
     72  O         -2.1860   -7.9720   37.2570 O.2    81  LEU81      -0.2718
     73  CB        -4.6240   -6.5600   36.5590 C.3    81  LEU81       0.0284
     74  CG        -5.8410   -5.6390   36.5360 C.3    81  LEU81       0.0019
     75  CD1       -5.7140   -4.5920   35.4440 C.3    81  LEU81       0.0001
     76  CD2       -7.1010   -6.4310   36.3190 C.3    81  LEU81       0.0001
     77  N         -3.4820   -9.5440   38.2420 N.am   82  VAL82      -0.1966
     78  CA        -2.4820  -10.6200   38.2130 C.3    82  VAL82       0.1727
     79  C         -2.7190  -11.5300   37.0060 C.2    82  VAL82       0.2617
     80  O         -3.7940  -12.1180   36.8850 O.2    82  VAL82      -0.2715
     81  CB        -2.5030  -11.4350   39.5240 C.3    82  VAL82       0.0290
     82  CG1       -1.2940  -12.3670   39.6120 C.3    82  VAL82       0.0023
     83  CG2       -2.5820  -10.5160   40.7400 C.3    82  VAL82       0.0023
     84  N         -1.6950  -11.6830   36.1700 N.am   83  GLY83      -0.1940
     85  CA        -1.7590  -12.5020   34.9660 C.3    83  GLY83       0.2014
     86  C         -0.4670  -13.2170   34.6440 C.2    83  GLY83       0.2642
     87  O          0.5110  -13.1230   35.3920 O.2    83  GLY83      -0.2714
     88  N         -0.4640  -13.9310   33.5080 N.am   84  GLU84      -0.1917
     89  CA         0.6640  -14.7590   33.0660 C.3    84  GLU84       0.1949
     90  C          1.8240  -13.9040   32.5080 C.2    84  GLU84       0.2659
     91  O          1.6000  -12.8460   31.9170 O.2    84  GLU84      -0.2711
     92  CB         0.1720  -15.7680   32.0030 C.2    84  GLU84       0.0111
     93  CG         1.1650  -16.8610   31.6170 C.2    84  GLU84       0.0838
     94  CD         0.6910  -17.8760   30.5870 C.2    84  GLU84       0.3877
     95  OE1       -0.4090  -17.7000   30.0120 O.co2  84  GLU84      -0.2406
     96  OE2        1.4680  -18.8150   30.2980 O.co2  84  GLU84      -0.2406
     97  N          3.0650  -14.3980   32.7010 N.am   85  VAL85      -0.1961
     98  CA         4.3230  -13.7810   32.2700 C.3    85  VAL85       0.1727
     99  C          4.6640  -14.2430   30.8450 C.2    85  VAL85       0.2616
    100  O          4.6990  -15.4430   30.5930 O.2    85  VAL85      -0.2715
    101  CB         5.4860  -14.1650   33.2370 C.3    85  VAL85       0.0290
    102  CG1        6.8290  -13.5830   32.7690 C.3    85  VAL85       0.0023
    103  CG2        5.1860  -13.7340   34.6700 C.3    85  VAL85       0.0023
    104  N          4.9460  -13.2930   29.9310 N.am   86  TYR86      -0.1960
    105  CA         5.3500  -13.5790   28.5460 C.3    86  TYR86       0.1771
    106  C          6.6950  -12.9030   28.3480 C.2    86  TYR86       0.2620
    107  O          6.7530  -11.6840   28.3260 O.2    86  TYR86      -0.2715
    108  CB         4.2900  -13.0560   27.5610 C.3    86  TYR86       0.0574
    109  CG         2.9260  -13.6540   27.8110 C.ar   86  TYR86      -0.0198
    110  CD1        2.7460  -15.0290   27.8580 C.ar   86  TYR86      -0.0009
    111  CD2        1.8220  -12.8440   28.0560 C.ar   86  TYR86      -0.0009
    112  CE1        1.5050  -15.5870   28.1460 C.ar   86  TYR86       0.0417
    113  CE2        0.5750  -13.3920   28.3340 C.ar   86  TYR86       0.0417
    114  CZ         0.4160  -14.7650   28.3730 C.ar   86  TYR86       0.1957
    115  OH        -0.8250  -15.2890   28.6440 O.3    86  TYR86      -0.2866
    116  N          7.7690  -13.6940   28.2410 N.am   87  THR87      -0.1951
    117  CA         9.1550  -13.2260   28.2320 C.3    87  THR87       0.1897
    118  C          9.7690  -12.8970   26.8440 C.2    87  THR87       0.2313
    119  O         10.9330  -12.4990   26.8000 O.2    87  THR87      -0.2863
    120  CB        10.0320  -14.3280   28.8630 C.3    87  THR87       0.1794
    121  OG1        9.8750  -15.5410   28.1120 O.3    87  THR87      -0.2208
    122  CG2        9.6730  -14.5820   30.3090 C.3    87  THR87       0.0378
    123  N          2.2810   -2.3560   21.1250 N.3   133  GLU133     -0.1231
    124  CA         2.7360   -2.4820   22.5230 C.3   133  GLU133      0.1699
    125  C          1.9010   -3.4990   23.3180 C.2   133  GLU133      0.2592
    126  O          2.3860   -4.0080   24.3260 O.2   133  GLU133     -0.2718
    127  CB         2.7050   -1.1240   23.2500 C.3   133  GLU133      0.0402
    128  CG         3.7640   -0.1430   22.7110 C.3   133  GLU133      0.1161
    129  CD         3.2680    1.3210   22.7960 C.2   133  GLU133      0.3649
    130  OE1        2.2250    1.5950   23.4200 O.co2 133  GLU133     -0.2457
    131  OE2        3.9050    2.1930   22.2120 O.co2 133  GLU133     -0.2457
    132  N          0.6590   -3.7950   22.8680 N.am  134  ASN134     -0.1974
    133  CA        -0.2130   -4.7970   23.4770 C.3   134  ASN134      0.1688
    134  C         -0.1120   -6.1410   22.7640 C.2   134  ASN134      0.2292
    135  O         -1.0090   -6.9430   22.9260 O.2   134  ASN134     -0.2864
    136  CB        -1.6800   -4.3150   23.4590 C.3   134  ASN134      0.1181
    137  CG        -1.9860   -3.2940   24.4950 C.2   134  ASN134      0.2629
    138  OD1       -1.3290   -3.2210   25.5400 O.2   134  ASN134     -0.2716
    139  ND2       -3.0170   -2.5090   24.2490 N.am  134  ASN134     -0.0877
    140  N          2.4930   -9.1150   22.8050 N.3   136  LEU136     -0.1245
    141  CA         3.7120   -9.6870   23.3780 C.3   136  LEU136      0.1561
    142  C          3.9500  -11.0960   22.8720 C.2   136  LEU136      0.2260
    143  O          3.0050  -11.8190   22.5680 O.2   136  LEU136     -0.2867
    144  CB         3.6350   -9.7030   24.9140 C.3   136  LEU136      0.0270
    145  CG         3.5050   -8.3670   25.6340 C.3   136  LEU136      0.0019
    146  CD1        3.6590   -8.5540   27.1340 C.3   136  LEU136      0.0001
    147  CD2        4.5220   -7.3430   25.1320 C.3   136  LEU136      0.0001
    148  N         -2.5850   -8.2790   24.9670 N.3   148  ILE148     -0.1231
    149  CA        -2.6790   -7.7820   26.3350 C.3   148  ILE148      0.1692
    150  C         -3.8200   -6.7670   26.4370 C.2   148  ILE148      0.2592
    151  O         -4.1010   -6.0770   25.4590 O.2   148  ILE148     -0.2718
    152  CB        -1.3520   -7.0640   26.7080 C.3   148  ILE148      0.0266
    153  CG1       -0.1080   -7.9080   26.3470 C.3   148  ILE148      0.0019
    154  CG2       -1.3130   -6.7120   28.1710 C.3   148  ILE148      0.0020
    155  CD1       -0.0400   -9.2260   26.8540 C.3   148  ILE148      0.0001
    156  N         -4.4020   -6.6280   27.6550 N.am  149  ASP149     -0.1974
    157  CA        -5.4260   -5.6610   28.0830 C.3   149  ASP149      0.1709
    158  C         -6.7720   -5.7840   27.3490 C.2   149  ASP149      0.2293
    159  O         -7.5630   -4.8490   27.4150 O.2   149  ASP149     -0.2864
    160  CB        -4.9090   -4.2080   27.9150 C.3   149  ASP149      0.1436
    161  CG        -4.1170   -3.6770   29.0870 C.2   149  ASP149      0.3671
    162  OD1       -4.1060   -4.3350   30.1420 O.co2 149  ASP149     -0.2456
    163  OD2       -3.5510   -2.5790   28.9630 O.co2 149  ASP149     -0.2456
    164  N        -10.0280   -4.9270   29.3690 N.3   152  LEU152     -0.1245
    165  CA        -9.6330   -4.2730   30.6090 C.3   152  LEU152      0.1561
    166  C         -9.3770   -2.8130   30.3780 C.2   152  LEU152      0.2260
    167  O         -9.8760   -1.9840   31.1330 O.2   152  LEU152     -0.2867
    168  CB        -8.3640   -4.9630   31.1650 C.3   152  LEU152      0.0270
    169  CG        -8.6320   -6.3970   31.6510 C.3   152  LEU152      0.0019
    170  CD1       -7.4590   -7.3110   31.4150 C.3   152  LEU152      0.0001
    171  CD2       -9.0210   -6.4180   33.1200 C.3   152  LEU152      0.0001
@<TRIPOS>BOND
     1   123   124    1
     2   131   129   ar
     3   124   127    1
     4   124   125    1
     5   143   142    2
     6   128   129    1
     7   128   127    1
     8   134   135    2
     9   134   133    1
    10   129   130   ar
    11   140   141    1
    12   132   125   am
    13   132   133    1
    14   142   141    1
    15   125   126    2
    16   141   144    1
    17   136   133    1
    18   136   137    1
    19   139   137   am
    20   137   138    2
    21   144   145    1
    22   148   149    1
    23   147   145    1
    24   151   150    2
    25   145   146    1
    26   149   150    1
    27   149   152    1
    28   153   152    1
    29   153   155    1
    30   150   156   am
    31    53    54    1
    32   152   154    1
    33   119   118    2
    34   118   117    1
    35   158   159    2
    36   158   157    1
    37   108   109    1
    38   108   105    1
    39   156   157    1
    40   109   110   ar
    41   109   111   ar
    42    54    57    1
    43    54    55    1
    44   110   112   ar
    45    31    30    1
    46   160   157    1
    47   160   161    1
    48   111   113   ar
    49   121   120    1
    50   112   114   ar
    51   117   116    1
    52   117   120    1
    53   116   106   am
    54   107   106    2
    55   113   114   ar
    56    57    58    1
    57   106   105    1
    58   114   115    1
    59   105   104    1
    60   120   122    1
    61    55    56    2
    62   163   161   ar
    63    21    20    1
    64   161   162   ar
    65    30    27    1
    66   164   165    1
    67    20    19    1
    68    58    59    1
    69   104    99   am
    70    95    94   ar
    71    59    60    1
    72    27    26    1
    73    27    28    1
    74    96    94   ar
    75   166   165    1
    76   166   167    2
    77    26    24   am
    78    16    15    2
    79    94    93    1
    80   100    99    2
    81   165   168    1
    82    99    98    1
    83    19    18    1
    84    17    18    1
    85    17    14    1
    86    24    23    1
    87    24    25    2
    88   168   169    1
    89    23    22    1
    90    15    22   am
    91    15    14    1
    92   170   169    1
    93    28    29    2
    94    93    92    2
    95    13    14    1
    96    13    11   am
    97   169   171    1
    98    52    51    1
    99     4     3    2
   100    91    90    2
   101    92    89    1
   102    10    11    1
   103    10     9    1
   104    98    97    1
   105    98   101    1
   106    90    97   am
   107    90    89    1
   108    11    12    2
   109    61    62    1
   110    51    50    1
   111   102   101    1
   112     3     9   am
   113     3     2    1
   114    89    88    1
   115   101   103    1
   116    38    36    1
   117    88    86   am
   118    65    62    1
   119    65    66    1
   120    62    63    1
   121     5     2    1
   122     5     6    1
   123     2     1    1
   124     8     6    1
   125    50    49    1
   126    37    36    1
   127    36    33    1
   128    43    40    1
   129    68    66    1
   130    86    85    1
   131    86    87    2
   132    64    63    2
   133    66    67    1
   134     6     7    1
   135    85    84    1
   136    49    48    1
   137    75    74    1
   138    48    45    1
   139    33    32    1
   140    33    34    1
   141    40    39    1
   142    40    41    1
   143    35    34    2
   144    84    79   am
   145    76    74    1
   146    42    41    2
   147    74    73    1
   148    73    70    1
   149    45    44    1
   150    45    46    1
   151    80    79    2
   152    79    78    1
   153    72    71    2
   154    71    70    1
   155    71    77   am
   156    70    69    1
   157    46    47    2
   158    78    77    1
   159    78    81    1
   160    81    82    1
   161    81    83    1
