@<TRIPOS>MOLECULE
tmp/5t6lB00.pdb
 100 96 0 0 0
SMALL
GASTEIGER

@<TRIPOS>ATOM
      1  N         52.5010  -13.2250   31.6670 N.3     1  TYR1       -0.1241
      2  CA        51.8280  -13.7500   30.4810 C.3     1  TYR1        0.1605
      3  C         51.8890  -12.7640   29.3200 C.2     1  TYR1        0.2264
      4  O         51.7120  -11.5640   29.5030 O.2     1  TYR1       -0.2867
      5  CB        50.3660  -14.0900   30.7890 C.3     1  TYR1        0.0534
      6  CG        50.1830  -15.3170   31.6550 C.ar    1  TYR1       -0.0201
      7  CD1       50.2580  -16.5920   31.1060 C.ar    1  TYR1       -0.0009
      8  CD2       49.9270  -15.2000   33.0250 C.ar    1  TYR1       -0.0009
      9  CE1       50.0920  -17.7180   31.8900 C.ar    1  TYR1        0.0417
     10  CE2       49.7540  -16.3220   33.8210 C.ar    1  TYR1        0.0417
     11  CZ        49.8380  -17.5820   33.2440 C.ar    1  TYR1        0.1957
     12  OH        49.6750  -18.7120   34.0140 O.3     1  TYR1       -0.2866
     13  N         41.2600  -12.6050   35.7700 N.3     7  THR7       -0.1218
     14  CA        41.2810  -13.8280   36.5680 C.3     7  THR7        0.1862
     15  C         39.8850  -14.4110   36.7580 C.2     7  THR7        0.2287
     16  O         39.6950  -15.6320   36.6780 O.2     7  THR7       -0.2866
     17  CB        41.9160  -13.5340   37.9260 C.3     7  THR7        0.1770
     18  OG1       43.2350  -13.0130   37.7110 O.3     7  THR7       -0.2211
     19  CG2       42.0020  -14.7910   38.7710 C.3     7  THR7        0.0375
     20  N         36.9870  -24.6890   29.2470 N.3    36  LYS36      -0.1231
     21  CA        37.4500  -25.8780   29.9470 C.3    36  LYS36       0.1693
     22  C         36.7670  -25.9770   31.3000 C.2    36  LYS36       0.2592
     23  O         36.7330  -25.0020   32.0550 O.2    36  LYS36      -0.2718
     24  CB        38.9700  -25.9000   30.1440 C.3    36  LYS36       0.0285
     25  CG        39.4640  -27.2770   30.6290 C.3    36  LYS36       0.0035
     26  CD        40.9320  -27.2700   30.9790 C.3    36  LYS36       0.0206
     27  CE        41.4050  -28.7160   31.2340 C.3    36  LYS36       0.1093
     28  NZ        40.7470  -29.2640   32.4330 N.3    36  LYS36      -0.1314
     29  N         36.2440  -27.1540   31.6000 N.am   37  LYS37      -0.1966
     30  CA        35.6780  -27.4450   32.9010 C.3    37  LYS37       0.1713
     31  C         36.6050  -28.3660   33.6880 C.2    37  LYS37       0.2458
     32  O         37.4400  -29.0660   33.1040 O.2    37  LYS37      -0.2730
     33  CB        34.2840  -28.0690   32.7360 C.3    37  LYS37       0.0311
     34  CG        33.3190  -27.0740   32.1060 C.3    37  LYS37       0.0038
     35  CD        31.8990  -27.5850   32.0340 C.3    37  LYS37       0.0206
     36  CE        30.9850  -26.5030   31.4460 C.3    37  LYS37       0.1093
     37  NZ        29.5690  -26.9450   31.2980 N.3    37  LYS37      -0.1314
     38  N         36.5280  -28.3410   35.0190 N.am   38  PRO38      -0.2716
     39  CA        37.3810  -29.2230   35.8240 C.3    38  PRO38       0.1536
     40  C         37.3310  -30.6580   35.3230 C.2    38  PRO38       0.2599
     41  O         36.2590  -31.2530   35.1800 O.2    38  PRO38      -0.2715
     42  CB        36.7880  -29.0950   37.2290 C.3    38  PRO38       0.0310
     43  CG        36.2400  -27.6650   37.2640 C.3    38  PRO38       0.0237
     44  CD        35.7140  -27.4320   35.8580 C.3    38  PRO38       0.0939
     45  N         38.5070  -31.2020   35.0210 N.am   39  GLY39      -0.1955
     46  CA        38.6140  -32.6000   34.6590 C.3    39  GLY39       0.1869
     47  C         38.1480  -32.9550   33.2640 C.2    39  GLY39       0.2309
     48  O         38.1400  -34.1400   32.9250 O.2    39  GLY39      -0.2863
     49  N         36.0250  -22.2420   32.8680 N.3    83  GLU83      -0.1245
     50  CA        37.2310  -21.4670   32.6380 C.3    83  GLU83       0.1567
     51  C         37.3690  -21.2030   31.1410 C.2    83  GLU83       0.2260
     52  O         37.0250  -22.0550   30.3100 O.2    83  GLU83      -0.2867
     53  CB        38.4540  -22.2040   33.1880 C.3    83  GLU83       0.0388
     54  CG        39.7320  -21.3650   33.2280 C.3    83  GLU83       0.1160
     55  CD        39.8230  -20.4170   34.4260 C.2    83  GLU83       0.3649
     56  OE1       38.9980  -20.5150   35.3510 O.co2  83  GLU83      -0.2457
     57  OE2       40.7600  -19.5840   34.4500 O.co2  83  GLU83      -0.2457
     58  N         40.0440  -19.8400   28.1240 N.3    85  TYR85      -0.1241
     59  CA        41.4070  -19.5340   27.7050 C.3    85  TYR85       0.1605
     60  C         41.4040  -18.9130   26.3180 C.2    85  TYR85       0.2264
     61  O         40.6260  -19.3210   25.4520 O.2    85  TYR85      -0.2867
     62  CB        42.2820  -20.7930   27.7030 C.3    85  TYR85       0.0534
     63  CG        42.4540  -21.3810   29.0790 C.ar   85  TYR85      -0.0201
     64  CD1       43.4790  -20.9310   29.8940 C.ar   85  TYR85      -0.0009
     65  CD2       41.5830  -22.3650   29.5660 C.ar   85  TYR85      -0.0009
     66  CE1       43.6580  -21.4210   31.1510 C.ar   85  TYR85       0.0417
     67  CE2       41.7540  -22.9000   30.8600 C.ar   85  TYR85       0.0417
     68  CZ        42.7960  -22.4080   31.6350 C.ar   85  TYR85       0.1957
     69  OH        43.0090  -22.8460   32.9050 O.3    85  TYR85      -0.2866
     70  N         46.1210  -16.5620   30.6240 N.3   101  GLY101     -0.1210
     71  CA        46.0410  -17.1360   31.9450 C.3   101  GLY101      0.1956
     72  C         44.7390  -17.8310   32.2690 C.2   101  GLY101      0.2612
     73  O         44.6690  -18.4900   33.3060 O.2   101  GLY101     -0.2717
     74  N         43.7110  -17.6990   31.4400 N.am  102  GLY102     -0.1956
     75  CA        42.4140  -18.2230   31.8270 C.3   102  GLY102      0.1869
     76  C         41.5720  -17.2590   32.6560 C.2   102  GLY102      0.2309
     77  O         42.0770  -16.5730   33.5520 O.2   102  GLY102     -0.2863
     78  N         38.1010  -17.4090   35.0140 N.3   104  LYS104     -0.1245
     79  CA        37.0170  -18.1710   35.6360 C.3   104  LYS104      0.1561
     80  C         35.7230  -17.3810   35.5020 C.2   104  LYS104      0.2260
     81  O         35.5800  -16.3220   36.1130 O.2   104  LYS104     -0.2867
     82  CB        37.3160  -18.4650   37.1020 C.3   104  LYS104      0.0271
     83  CG        36.0990  -19.0210   37.8690 C.3   104  LYS104      0.0035
     84  CD        36.2640  -20.4660   38.2890 C.3   104  LYS104      0.0206
     85  CE        34.9320  -21.0650   38.8300 C.3   104  LYS104      0.1093
     86  NZ        33.8540  -21.0800   37.7620 N.3   104  LYS104     -0.1314
     87  N         44.2460  -24.8730   44.4130 N.3   165  THR165     -0.1204
     88  CA        43.2060  -24.2980   43.5750 C.3   165  THR165      0.1979
     89  C         41.8460  -24.4720   44.2580 C.2   165  THR165      0.2459
     90  O         41.5890  -25.5080   44.8820 O.2   165  THR165     -0.2732
     91  CB        43.2370  -24.9540   42.1840 C.3   165  THR165      0.1783
     92  OG1       42.2390  -24.3730   41.3370 O.3   165  THR165     -0.2211
     93  CG2       43.0390  -26.4710   42.2740 C.3   165  THR165      0.0376
     94  N         40.9810  -23.4580   44.2190 N.am  166  PRO166     -0.2728
     95  CA        39.7140  -23.5410   44.9640 C.3   166  PRO166      0.1401
     96  C         38.8930  -24.7500   44.5450 C.2   166  PRO166      0.2269
     97  O         38.5870  -24.9490   43.3700 O.2   166  PRO166     -0.2865
     98  CB        39.0070  -22.2180   44.6300 C.3   166  PRO166      0.0296
     99  CG        39.8020  -21.5890   43.5310 C.3   166  PRO166      0.0237
    100  CD        41.1980  -22.1170   43.6600 C.3   166  PRO166      0.0939
@<TRIPOS>BOND
     1    61    60    2
     2    60    59    1
     3    62    59    1
     4    62    63    1
     5    59    58    1
     6    63    65   ar
     7    63    64   ar
     8    20    21    1
     9     3     4    2
    10     3     2    1
    11    65    67   ar
    12    64    66   ar
    13    21    24    1
    14    21    22    1
    15    24    25    1
    16    52    51    2
    17     2     5    1
    18     2     1    1
    19    70    71    1
    20    25    26    1
    21     5     6    1
    22    67    68   ar
    23    26    27    1
    24     7     6   ar
    25     7     9   ar
    26    51    50    1
    27    66    68   ar
    28    27    28    1
    29    37    36    1
    30    22    29   am
    31    22    23    2
    32    74    75    1
    33    74    72   am
    34    36    35    1
    35    29    30    1
    36    68    69    1
    37     6     8   ar
    38    75    76    1
    39     9    11   ar
    40    71    72    1
    41    35    34    1
    42    34    33    1
    43    72    73    2
    44    50    49    1
    45    50    53    1
    46    76    77    2
    47    33    30    1
    48    30    31    1
    49    48    47    2
    50     8    10   ar
    51    32    31    2
    52    53    54    1
    53    54    55    1
    54    11    10   ar
    55    11    12    1
    56    47    46    1
    57    31    38   am
    58    55    57   ar
    59    55    56   ar
    60    46    45    1
    61    78    79    1
    62    38    39    1
    63    38    44    1
    64    45    40   am
    65    41    40    2
    66    40    39    1
    67    80    79    1
    68    80    81    2
    69    79    82    1
    70    13    14    1
    71    39    42    1
    72    44    43    1
    73    14    15    1
    74    14    17    1
    75    16    15    2
    76    82    83    1
    77    42    43    1
    78    18    17    1
    79    86    85    1
    80    83    84    1
    81    17    19    1
    82    84    85    1
    83    92    91    1
    84    91    93    1
    85    91    88    1
    86    97    96    2
    87    99   100    1
    88    99    98    1
    89    88    89    1
    90    88    87    1
    91   100    94    1
    92    94    89   am
    93    94    95    1
    94    89    90    2
    95    96    95    1
    96    98    95    1
