@<TRIPOS>MOLECULE
tmp/5t6mD00.pdb
 162 155 0 0 0
SMALL
GASTEIGER

@<TRIPOS>ATOM
      1  N        134.6300   28.7740  153.8290 N.3    11  VAL11      -0.1245
      2  CA       135.8320   28.4350  154.6200 C.3    11  VAL11       0.1561
      3  C        136.8370   27.6050  153.8140 C.2    11  VAL11       0.2260
      4  O        136.5070   27.1120  152.7240 O.2    11  VAL11      -0.2867
      5  CB       135.4550   27.6580  155.9000 C.3    11  VAL11       0.0252
      6  CG1      134.8550   28.6030  156.9380 C.3    11  VAL11       0.0019
      7  CG2      134.4960   26.5170  155.5780 C.3    11  VAL11       0.0019
      8  N        138.1870   22.8040  156.9660 N.3    15  LEU15      -0.1245
      9  CA       137.0820   23.0650  157.9220 C.3    15  LEU15       0.1561
     10  C        135.6980   22.4910  157.5190 C.2    15  LEU15       0.2260
     11  O        134.7530   22.5600  158.3000 O.2    15  LEU15      -0.2867
     12  CB       136.9440   24.5740  158.1710 C.3    15  LEU15       0.0270
     13  CG       138.0620   25.2510  158.9670 C.3    15  LEU15       0.0019
     14  CD1      137.8080   26.7490  159.0490 C.3    15  LEU15       0.0001
     15  CD2      138.1770   24.6500  160.3550 C.3    15  LEU15       0.0001
     16  N        132.7410   21.0860  160.3370 N.3    19  LEU19      -0.1245
     17  CA       131.4700   21.8210  160.2600 C.3    19  LEU19       0.1561
     18  C        130.3020   20.9440  159.7880 C.2    19  LEU19       0.2260
     19  O        129.1850   21.0730  160.2930 O.2    19  LEU19      -0.2867
     20  CB       131.6030   23.0410  159.3410 C.3    19  LEU19       0.0270
     21  CG       132.5110   24.1720  159.8430 C.3    19  LEU19       0.0019
     22  CD1      132.8500   25.1280  158.7080 C.3    19  LEU19       0.0001
     23  CD2      131.8900   24.9280  161.0100 C.3    19  LEU19       0.0001
     24  N        138.2820   30.6680  171.8180 N.3   103  GLU103     -0.1245
     25  CA       139.1340   31.8140  172.0200 C.3   103  GLU103      0.1567
     26  C        138.3100   32.8770  172.7010 C.2   103  GLU103      0.2260
     27  O        137.0750   32.8140  172.6920 O.2   103  GLU103     -0.2867
     28  CB       139.7400   32.3130  170.6890 C.3   103  GLU103      0.0388
     29  CG       138.7760   33.0110  169.7290 C.3   103  GLU103      0.1160
     30  CD       138.0550   32.0590  168.7850 C.2   103  GLU103      0.3649
     31  OE1      138.7140   31.1620  168.1890 O.co2 103  GLU103     -0.2457
     32  OE2      136.8180   32.2260  168.6100 O.co2 103  GLU103     -0.2457
     33  N        133.4430   35.1500  177.2200 N.3   109  HIS109     -0.1241
     34  CA       133.1280   33.8700  176.5780 C.3   109  HIS109      0.1621
     35  C        134.0330   32.7620  177.1110 C.2   109  HIS109      0.2264
     36  O        133.5770   31.6340  177.3130 O.2   109  HIS109     -0.2867
     37  CB       133.2260   33.9650  175.0460 C.3   109  HIS109      0.0745
     38  CG       133.0120   32.6570  174.3490 C.ar  109  HIS109      0.0817
     39  ND1      131.8620   31.9180  174.5030 N.ar  109  HIS109     -0.2268
     40  CD2      133.8110   31.9460  173.5170 C.ar  109  HIS109      0.1154
     41  CE1      131.9610   30.8030  173.8040 C.ar  109  HIS109      0.1986
     42  NE2      133.1330   30.7970  173.1920 N.ar  109  HIS109     -0.2212
     43  N        143.0500   39.1470  169.4540 N.3   160  LEU160     -0.1245
     44  CA       141.9900   38.1560  169.2140 C.3   160  LEU160      0.1561
     45  C        142.0640   37.4560  167.8360 C.2   160  LEU160      0.2260
     46  O        141.8560   36.2370  167.7460 O.2   160  LEU160     -0.2867
     47  CB       140.6160   38.8200  169.4070 C.3   160  LEU160      0.0270
     48  CG       139.3660   37.9510  169.2980 C.3   160  LEU160      0.0019
     49  CD1      139.4490   36.7800  170.2690 C.3   160  LEU160      0.0001
     50  CD2      138.1160   38.7880  169.5560 C.3   160  LEU160      0.0001
     51  N        142.0800   33.3640  167.1930 N.3   164  ILE164     -0.1245
     52  CA       141.1500   32.6240  166.3200 C.3   164  ILE164      0.1561
     53  C        141.9030   31.6240  165.4170 C.2   164  ILE164      0.2260
     54  O        141.4900   30.4660  165.3020 O.2   164  ILE164     -0.2867
     55  CB       140.2560   33.5740  165.4790 C.3   164  ILE164      0.0252
     56  CG1      139.3450   34.4100  166.3980 C.3   164  ILE164      0.0019
     57  CG2      139.4000   32.7850  164.4780 C.3   164  ILE164      0.0019
     58  CD1      138.9600   35.7580  165.8240 C.3   164  ILE164      0.0001
     59  N        141.5380   27.6050  165.3600 N.3   168  LEU168     -0.1245
     60  CA       141.1550   26.8960  164.1240 C.3   168  LEU168      0.1561
     61  C        142.1640   25.8310  163.7060 C.2   168  LEU168      0.2260
     62  O        141.7790   24.7170  163.3430 O.2   168  LEU168     -0.2867
     63  CB       140.9650   27.8840  162.9820 C.3   168  LEU168      0.0270
     64  CG       139.7420   28.7920  163.0970 C.3   168  LEU168      0.0019
     65  CD1      139.8990   29.9880  162.1660 C.3   168  LEU168      0.0001
     66  CD2      138.4570   28.0290  162.7880 C.3   168  LEU168      0.0001
     67  N        141.4240   23.0380  166.0610 N.3   171  TRP171     -0.1241
     68  CA       140.1860   22.2940  165.7310 C.3   171  TRP171      0.1605
     69  C        140.3140   21.4090  164.4750 C.2   171  TRP171      0.2264
     70  O        139.8080   20.2850  164.4530 O.2   171  TRP171     -0.2867
     71  CB       139.0060   23.2450  165.5490 C.3   171  TRP171      0.0550
     72  CG       137.6670   22.5690  165.6280 C.ar  171  TRP171      0.0003
     73  CD1      137.3050   21.5510  166.4710 C.ar  171  TRP171      0.0946
     74  CD2      136.4940   22.9000  164.8800 C.ar  171  TRP171      0.0152
     75  NE1      135.9850   21.2090  166.2670 N.ar  171  TRP171     -0.2442
     76  CE2      135.4600   22.0260  165.3060 C.ar  171  TRP171      0.0810
     77  CE3      136.2120   23.8420  163.8820 C.ar  171  TRP171      0.0012
     78  CZ2      134.1670   22.0680  164.7670 C.ar  171  TRP171      0.0191
     79  CZ3      134.9090   23.8840  163.3450 C.ar  171  TRP171      0.0001
     80  CH2      133.9120   22.9990  163.7920 C.ar  171  TRP171      0.0015
     81  N        134.7600   23.0790  169.0500 N.3   180  TYR180     -0.1241
     82  CA       135.1350   24.4810  169.0430 C.3   180  TYR180      0.1605
     83  C        133.9010   25.2510  169.4280 C.2   180  TYR180      0.2264
     84  O        132.9360   25.3130  168.6500 O.2   180  TYR180     -0.2867
     85  CB       135.6030   24.8530  167.6440 C.3   180  TYR180      0.0534
     86  CG       136.0550   26.2800  167.4030 C.ar  180  TYR180     -0.0201
     87  CD1      136.7040   27.0430  168.3900 C.ar  180  TYR180     -0.0009
     88  CD2      135.9180   26.8340  166.1400 C.ar  180  TYR180     -0.0009
     89  CE1      137.1530   28.3370  168.1090 C.ar  180  TYR180      0.0417
     90  CE2      136.3580   28.1080  165.8580 C.ar  180  TYR180      0.0417
     91  CZ       136.9680   28.8550  166.8310 C.ar  180  TYR180      0.1957
     92  OH       137.3870   30.1080  166.4760 O.3   180  TYR180     -0.2866
     93  N        131.6710   28.2720  170.0670 N.3   182  ILE182     -0.1231
     94  CA       131.5190   29.6380  169.5400 C.3   182  ILE182      0.1692
     95  C        130.4780   30.4070  170.3620 C.2   182  ILE182      0.2593
     96  O        129.3770   29.9200  170.5820 O.2   182  ILE182     -0.2718
     97  CB       131.0910   29.5960  168.0410 C.3   182  ILE182      0.0266
     98  CG1      132.1960   28.9550  167.1930 C.3   182  ILE182      0.0019
     99  CG2      130.7220   30.9830  167.5120 C.3   182  ILE182      0.0020
    100  CD1      133.5110   29.7060  167.2090 C.3   182  ILE182      0.0001
    101  N        130.8220   31.6300  170.7520 N.am  183  GLY183     -0.1942
    102  CA       130.0680   32.3580  171.7760 C.3   183  GLY183      0.2014
    103  C        128.9400   33.2650  171.3200 C.2   183  GLY183      0.2639
    104  O        128.1480   33.7380  172.1580 O.2   183  GLY183     -0.2714
    105  N        128.8600   33.5440  170.0260 N.am  184  SER184     -0.1949
    106  CA       127.7770   34.3910  169.5070 C.3   184  SER184      0.1924
    107  C        127.2160   33.8330  168.1950 C.2   184  SER184      0.2314
    108  O        127.6720   32.8000  167.7160 O.2   184  SER184     -0.2863
    109  CB       128.2650   35.8380  169.3250 C.3   184  SER184      0.2116
    110  OG       127.1570   36.7090  169.1530 O.3   184  SER184     -0.2180
    111  N        127.4800   33.9330  165.1130 N.3   186  VAL186     -0.1231
    112  CA       128.4420   34.3460  164.0900 C.3   186  VAL186      0.1692
    113  C        129.2560   33.1410  163.6290 C.2   186  VAL186      0.2593
    114  O        129.1930   32.0640  164.2370 O.2   186  VAL186     -0.2718
    115  CB       129.3870   35.4500  164.6250 C.3   186  VAL186      0.0266
    116  CG1      128.5800   36.6690  165.0420 C.3   186  VAL186      0.0020
    117  CG2      130.2340   34.9550  165.7940 C.3   186  VAL186      0.0020
    118  N        130.0380   33.3360  162.5720 N.am  187  GLY187     -0.1943
    119  CA       130.8270   32.2700  161.9800 C.3   187  GLY187      0.1998
    120  C        130.0600   31.5180  160.9150 C.2   187  GLY187      0.2480
    121  O        128.8930   31.8410  160.6230 O.2   187  GLY187     -0.2729
    122  N        130.7010   30.4970  160.3270 N.am  188  PRO188     -0.2726
    123  CA       130.0550   29.7320  159.2850 C.3   188  PRO188      0.1402
    124  C        128.9550   28.8580  159.8520 C.2   188  PRO188      0.2269
    125  O        129.0010   28.4770  161.0270 O.2   188  PRO188     -0.2865
    126  CB       131.1960   28.8790  158.7170 C.3   188  PRO188      0.0296
    127  CG       132.1390   28.7040  159.8550 C.3   188  PRO188      0.0237
    128  CD       132.0170   29.9370  160.6950 C.3   188  PRO188      0.0939
    129  N        126.8550   27.5390  163.1220 N.3   191  TYR191     -0.1241
    130  CA       126.9580   28.2350  164.4170 C.3   191  TYR191      0.1605
    131  C        125.9060   29.3350  164.6510 C.2   191  TYR191      0.2264
    132  O        125.3400   29.3900  165.7340 O.2   191  TYR191     -0.2867
    133  CB       128.3820   28.7750  164.6770 C.3   191  TYR191      0.0534
    134  CG       129.3650   27.6950  165.0750 C.ar  191  TYR191     -0.0201
    135  CD1      129.3250   27.1170  166.3490 C.ar  191  TYR191     -0.0009
    136  CD2      130.3210   27.2260  164.1680 C.ar  191  TYR191     -0.0009
    137  CE1      130.2240   26.1140  166.7130 C.ar  191  TYR191      0.0417
    138  CE2      131.2260   26.2280  164.5200 C.ar  191  TYR191      0.0417
    139  CZ       131.1790   25.6740  165.7860 C.ar  191  TYR191      0.1957
    140  OH       132.0800   24.6840  166.1170 O.3   191  TYR191     -0.2866
    141  N        135.2740   35.5040  158.2590 N.3   274  HIS274     -0.1241
    142  CA       135.0090   34.5450  159.3210 C.3   274  HIS274      0.1621
    143  C        133.9920   33.4790  158.9140 C.2   274  HIS274      0.2264
    144  O        133.1740   33.0490  159.7290 O.2   274  HIS274     -0.2867
    145  CB       134.5190   35.2790  160.5790 C.3   274  HIS274      0.0745
    146  CG       135.5190   36.2350  161.1520 C.ar  274  HIS274      0.0817
    147  ND1      135.1540   37.3320  161.9020 N.ar  274  HIS274     -0.2268
    148  CD2      136.8720   36.2550  161.0900 C.ar  274  HIS274      0.1154
    149  CE1      136.2380   37.9850  162.2790 C.ar  274  HIS274      0.1986
    150  NE2      137.2940   37.3520  161.8000 N.ar  274  HIS274     -0.2212
    151  N        133.0870   43.0760  168.8300 N.3   297  TYR297     -0.1241
    152  CA       133.1980   42.2970  167.5830 C.3   297  TYR297      0.1605
    153  C        132.9250   43.1840  166.3460 C.2   297  TYR297      0.2264
    154  O        131.9030   43.8970  166.2980 O.2   297  TYR297     -0.2867
    155  CB       132.2570   41.0880  167.6160 C.3   297  TYR297      0.0534
    156  CG       132.4050   40.1650  166.4430 C.ar  297  TYR297     -0.0201
    157  CD1      133.6040   39.4810  166.2140 C.ar  297  TYR297     -0.0009
    158  CD2      131.3410   39.9430  165.5730 C.ar  297  TYR297     -0.0009
    159  CE1      133.7470   38.6340  165.1210 C.ar  297  TYR297      0.0417
    160  CE2      131.4650   39.0940  164.4790 C.ar  297  TYR297      0.0417
    161  CZ       132.6670   38.4430  164.2560 C.ar  297  TYR297      0.1957
    162  OH       132.7850   37.6030  163.1770 O.3   297  TYR297     -0.2866
@<TRIPOS>BOND
     1     4     3    2
     2     3     2    1
     3     1     2    1
     4     2     5    1
     5     7     5    1
     6     5     6    1
     7     8     9    1
     8    10     9    1
     9    10    11    2
    10     9    12    1
    11    12    13    1
    12   141   142    1
    13    22    21    1
    14   126   123    1
    15   126   127    1
    16   143   142    1
    17   143   144    2
    18    13    14    1
    19    13    15    1
    20   123   124    1
    21   123   122    1
    22   142   145    1
    23    20    21    1
    24    20    17    1
    25    18    17    1
    26    18    19    2
    27    21    23    1
    28   124   125    2
    29   127   128    1
    30    17    16    1
    31   122   128    1
    32   122   120   am
    33   145   146    1
    34   121   120    2
    35   120   119    1
    36   148   146   ar
    37   148   150   ar
    38   146   147   ar
    39   150   149   ar
    40   147   149   ar
    41   119   118    1
    42    65    64    1
    43   118   113   am
    44    66    64    1
    45    63    64    1
    46    63    60    1
    47   129   130    1
    48   162   161    1
    49    62    61    2
    50    79    80   ar
    51    79    77   ar
    52   113   112    1
    53   113   114    2
    54    61    60    1
    55    80    78   ar
    56    77    74   ar
    57   112   115    1
    58   112   111    1
    59    60    59    1
    60   136   138   ar
    61   136   134   ar
    62   161   160   ar
    63   161   159   ar
    64   130   131    1
    65   130   133    1
    66    70    69    2
    67    69    68    1
    68    57    55    1
    69   160   158   ar
    70   138   139   ar
    71   115   116    1
    72   115   117    1
    73   131   132    2
    74   133   134    1
    75    78    76   ar
    76    74    76   ar
    77    74    72   ar
    78   134   135   ar
    79   159   157   ar
    80    54    53    2
    81    76    75   ar
    82    53    52    1
    83    55    52    1
    84    55    56    1
    85    71    72    1
    86    71    68    1
    87   158   156   ar
    88    72    73   ar
    89    68    67    1
    90   139   140    1
    91   139   137   ar
    92    58    56    1
    93    90    88   ar
    94    90    91   ar
    95    88    86   ar
    96   157   156   ar
    97    75    73   ar
    98   154   153    2
    99    52    51    1
   100   153   152    1
   101   135   137   ar
   102   156   155    1
   103    92    91    1
   104    91    89   ar
   105    98   100    1
   106    98    97    1
   107    86    85    1
   108    86    87   ar
   109    99    97    1
   110   152   155    1
   111   152   151    1
   112    85    82    1
   113   108   107    2
   114    46    45    2
   115    45    44    1
   116    97    94    1
   117    89    87   ar
   118    31    30   ar
   119   107   106    1
   120    32    30   ar
   121    84    83    2
   122    30    29    1
   123    82    81    1
   124    82    83    1
   125   110   109    1
   126    44    47    1
   127    44    43    1
   128    48    47    1
   129    48    50    1
   130    48    49    1
   131   109   106    1
   132   106   105    1
   133    94    93    1
   134    94    95    1
   135    29    28    1
   136   105   103   am
   137    95    96    2
   138    95   101   am
   139    28    25    1
   140   101   102    1
   141   103   102    1
   142   103   104    2
   143    24    25    1
   144    25    26    1
   145    27    26    2
   146    42    40   ar
   147    42    41   ar
   148    40    38   ar
   149    41    39   ar
   150    38    39   ar
   151    38    37    1
   152    37    34    1
   153    34    35    1
   154    34    33    1
   155    35    36    2
