@<TRIPOS>MOLECULE
tmp/5t6nF00.pdb
 87 83 0 0 0
SMALL
GASTEIGER

@<TRIPOS>ATOM
      1  N         10.8500   70.5610  -48.3290 N.3    54  ARG54      -0.1231
      2  CA        11.5050   69.3670  -47.8040 C.3    54  ARG54       0.1694
      3  C         10.5510   68.1810  -47.7950 C.2    54  ARG54       0.2591
      4  O         10.9630   67.0590  -48.0800 O.2    54  ARG54      -0.2718
      5  CB        12.0430   69.6120  -46.4090 C.3    54  ARG54       0.0321
      6  CG        13.2070   70.5720  -46.3450 C.3    54  ARG54       0.0489
      7  CD        14.2750   70.0620  -45.4200 C.3    54  ARG54       0.2205
      8  NE        14.8510   68.8720  -45.9880 N.pl3  54  ARG54      -0.0865
      9  CZ        15.5020   67.9580  -45.3010 C.cat  54  ARG54       0.5346
     10  NH1       15.6710   68.0840  -44.0080 N.pl3  54  ARG54       0.1354
     11  NH2       15.9620   66.9060  -45.9230 N.pl3  54  ARG54       0.1354
     12  N          9.2650   68.4110  -47.5080 N.am   55  VAL55      -0.1980
     13  CA         8.3380   67.2750  -47.4250 C.3    55  VAL55       0.1595
     14  C          8.1190   66.6240  -48.7900 C.2    55  VAL55       0.2287
     15  O          7.9740   65.4140  -48.8780 O.2    55  VAL55      -0.2864
     16  CB         7.0150   67.7060  -46.7740 C.3    55  VAL55       0.0276
     17  CG1        5.9450   66.7590  -47.0860 C.3    55  VAL55       0.0022
     18  CG2        7.1600   67.6820  -45.3020 C.3    55  VAL55       0.0022
     19  N         10.3530   66.5350  -51.1930 N.3    57  GLU57      -0.1231
     20  CA        11.6820   66.3030  -51.7520 C.3    57  GLU57       0.1699
     21  C         11.7590   64.8710  -52.2600 C.2    57  GLU57       0.2592
     22  O         10.8380   64.3760  -52.9220 O.2    57  GLU57      -0.2718
     23  CB        12.7900   66.5360  -50.7150 C.3    57  GLU57       0.0402
     24  CG        13.5150   67.9000  -50.7410 C.3    57  GLU57       0.1161
     25  CD        14.5040   68.1230  -49.5740 C.2    57  GLU57       0.3649
     26  OE1       14.8890   67.1730  -48.8670 O.co2  57  GLU57      -0.2457
     27  OE2       14.9330   69.2700  -49.3790 O.co2  57  GLU57      -0.2457
     28  N         12.8530   64.1970  -51.9320 N.am   58  LYS58      -0.1966
     29  CA        13.1800   62.8980  -52.5070 C.3    58  LYS58       0.1728
     30  C         12.3140   61.7880  -51.9310 C.2    58  LYS58       0.2617
     31  O         12.5910   61.2250  -50.8690 O.2    58  LYS58      -0.2715
     32  CB        14.6610   62.5850  -52.3030 C.3    58  LYS58       0.0311
     33  CG        15.0410   61.1860  -52.7540 C.3    58  LYS58       0.0038
     34  CD        16.4080   60.7550  -52.2550 C.3    58  LYS58       0.0206
     35  CE        17.4780   61.4310  -53.0770 C.3    58  LYS58       0.1093
     36  NZ        17.3670   60.9860  -54.5020 N.3    58  LYS58      -0.1314
     37  N         11.2170   61.5060  -52.6210 N.am   59  THR59      -0.1937
     38  CA        10.3780   60.3580  -52.3450 C.3    59  THR59       0.2028
     39  C         10.5690   59.3630  -53.5100 C.2    59  THR59       0.2642
     40  O         11.5800   59.4290  -54.2400 O.2    59  THR59      -0.2714
     41  CB         8.9270   60.8300  -52.1210 C.3    59  THR59       0.1808
     42  OG1        8.9320   62.0210  -51.3110 O.3    59  THR59      -0.2208
     43  CG2        8.0670   59.7390  -51.4190 C.3    59  THR59       0.0379
     44  N          9.6360   58.4240  -53.6420 N.am   60  ASN60      -0.1971
     45  CA         9.3100   57.7540  -54.8970 C.3    60  ASN60       0.1688
     46  C         10.0350   56.4140  -55.2000 C.2    60  ASN60       0.2292
     47  O          9.7260   55.3700  -54.6050 O.2    60  ASN60      -0.2864
     48  CB         9.5170   58.7210  -56.1000 C.3    60  ASN60       0.1181
     49  CG         8.4350   59.8430  -56.2140 C.2    60  ASN60       0.2629
     50  OD1        7.3770   59.8080  -55.5880 O.2    60  ASN60      -0.2716
     51  ND2        8.7230   60.8350  -57.0520 N.am   60  ASN60      -0.0877
     52  N          4.5550   53.0760  -42.7100 N.3    92  TRP92      -0.1241
     53  CA         4.5050   54.3050  -43.4910 C.3    92  TRP92       0.1605
     54  C          3.3080   55.1530  -43.1020 C.2    92  TRP92       0.2264
     55  O          3.4270   56.3700  -43.0110 O.2    92  TRP92      -0.2867
     56  CB         4.5100   54.0040  -44.9910 C.3    92  TRP92       0.0550
     57  CG         5.8790   53.8400  -45.4590 C.ar   92  TRP92       0.0003
     58  CD1        6.4670   52.6860  -45.9290 C.ar   92  TRP92       0.0946
     59  CD2        6.8940   54.8350  -45.4590 C.ar   92  TRP92       0.0152
     60  NE1        7.7880   52.9220  -46.2460 N.ar   92  TRP92      -0.2442
     61  CE2        8.0800   54.2290  -45.9560 C.ar   92  TRP92       0.0810
     62  CE3        6.9320   56.1690  -45.0740 C.ar   92  TRP92       0.0012
     63  CZ2        9.2760   54.9190  -46.0660 C.ar   92  TRP92       0.0191
     64  CZ3        8.1300   56.8760  -45.2180 C.ar   92  TRP92       0.0001
     65  CH2        9.2760   56.2500  -45.7090 C.ar   92  TRP92       0.0015
     66  N          3.6330   59.0220  -41.7750 N.3    96  ALA96      -0.1245
     67  CA         2.9350   60.1400  -42.3860 C.3    96  ALA96       0.1562
     68  C          2.0540   60.8740  -41.3820 C.2    96  ALA96       0.2260
     69  O          2.0230   62.1060  -41.3780 O.2    96  ALA96      -0.2867
     70  CB         2.1290   59.6510  -43.5800 C.3    96  ALA96       0.0290
     71  N          4.5180   62.8430  -39.1110 N.3    99  LEU99      -0.1245
     72  CA         5.1640   63.9350  -39.8330 C.3    99  LEU99       0.1561
     73  C          4.2400   65.1260  -39.9400 C.2    99  LEU99       0.2260
     74  O          4.6460   66.2430  -39.6640 O.2    99  LEU99      -0.2867
     75  CB         5.6010   63.4930  -41.2180 C.3    99  LEU99       0.0270
     76  CG         6.2050   64.5560  -42.0940 C.3    99  LEU99       0.0019
     77  CD1        7.4760   65.0770  -41.5390 C.3    99  LEU99       0.0001
     78  CD2        6.4070   64.0240  -43.4890 C.3    99  LEU99       0.0001
     79  N          4.8620   68.7220  -38.0110 N.3   103  GLU103     -0.1245
     80  CA         5.0080   69.8700  -38.8870 C.3   103  GLU103      0.1567
     81  C          3.9490   70.9220  -38.6020 C.2   103  GLU103      0.2260
     82  O          4.2480   72.1130  -38.6000 O.2   103  GLU103     -0.2867
     83  CB         4.9210   69.4320  -40.3360 C.3   103  GLU103      0.0388
     84  CG         6.0720   68.6270  -40.8170 C.3   103  GLU103      0.1160
     85  CD         7.0480   69.4460  -41.4830 C.2   103  GLU103      0.3649
     86  OE1        7.0480   70.6400  -41.1850 O.co2 103  GLU103     -0.2457
     87  OE2        7.7340   68.9550  -42.3920 O.co2 103  GLU103     -0.2457
@<TRIPOS>BOND
     1    51    49   am
     2    49    48    1
     3    49    50    2
     4    48    45    1
     5    46    45    1
     6    46    47    2
     7    45    44    1
     8    36    35    1
     9    40    39    2
    10    44    39   am
    11    39    38    1
    12    35    34    1
    13    22    21    2
    14    33    32    1
    15    33    34    1
    16    37    38    1
    17    37    30   am
    18    29    32    1
    19    29    28    1
    20    29    30    1
    21    38    41    1
    22    21    28   am
    23    21    20    1
    24    41    43    1
    25    41    42    1
    26    30    31    2
    27    20    19    1
    28    20    23    1
    29    24    23    1
    30    24    25    1
    31    25    27   ar
    32    25    26   ar
    33    15    14    2
    34    14    13    1
    35     1     2    1
    36     4     3    2
    37     2     3    1
    38     2     5    1
    39     3    12   am
    40    12    13    1
    41    13    16    1
    42    17    16    1
    43    16    18    1
    44     5     6    1
    45     6     7    1
    46    60    61   ar
    47    60    58   ar
    48    63    61   ar
    49    63    65   ar
    50     8     7    1
    51     8     9    2
    52    61    59   ar
    53    58    57   ar
    54    11     9    1
    55    65    64   ar
    56    57    59   ar
    57    57    56    1
    58    59    62   ar
    59     9    10    1
    60    64    62   ar
    61    56    53    1
    62    70    67    1
    63    53    54    1
    64    53    52    1
    65    78    76    1
    66    54    55    2
    67    87    85   ar
    68    67    66    1
    69    67    68    1
    70    76    77    1
    71    76    75    1
    72    85    86   ar
    73    85    84    1
    74    68    69    2
    75    75    72    1
    76    84    83    1
    77    83    80    1
    78    73    72    1
    79    73    74    2
    80    72    71    1
    81    80    81    1
    82    80    79    1
    83    81    82    2
