@<TRIPOS>MOLECULE
tmp/5t6qA01.pdb
 137 130 0 0 0
SMALL
GASTEIGER

@<TRIPOS>ATOM
      1  N         79.5060   14.8370   60.2730 N.3    90  VAL90      -0.1231
      2  CA        78.3310   15.1510   61.0800 C.3    90  VAL90       0.1692
      3  C         77.1090   14.3650   60.6170 C.2    90  VAL90       0.2592
      4  O         76.4450   13.7050   61.4130 O.2    90  VAL90      -0.2718
      5  CB        78.0670   16.6740   61.0480 C.3    90  VAL90       0.0266
      6  CG1       76.8050   17.0280   61.8330 C.3    90  VAL90       0.0020
      7  CG2       79.2710   17.4170   61.6000 C.3    90  VAL90       0.0020
      8  N         76.8040   14.4090   59.3240 N.am   91  TYR91      -0.1976
      9  CA        75.5530   13.8430   58.8420 C.3    91  TYR91       0.1639
     10  C         75.5700   12.3220   58.7620 C.2    91  TYR91       0.2290
     11  O         74.4990   11.7180   58.6670 O.2    91  TYR91      -0.2864
     12  CB        75.2090   14.4370   57.4790 C.3    91  TYR91       0.0560
     13  CG        74.8590   15.9050   57.5440 C.ar   91  TYR91      -0.0198
     14  CD1       75.8380   16.8640   57.7840 C.ar   91  TYR91      -0.0009
     15  CD2       73.5460   16.3360   57.3690 C.ar   91  TYR91      -0.0009
     16  CE1       75.5210   18.2060   57.8450 C.ar   91  TYR91       0.0417
     17  CE2       73.2210   17.6710   57.4310 C.ar   91  TYR91       0.0417
     18  CZ        74.2160   18.6020   57.6660 C.ar   91  TYR91       0.1957
     19  OH        73.9050   19.9300   57.7360 O.3    91  TYR91      -0.2866
     20  N         73.3480   10.4900   61.1280 N.3    94  PHE94      -0.1241
     21  CA        71.9430   10.2890   60.8100 C.3    94  PHE94       0.1605
     22  C         71.6560    8.8770   60.2990 C.2    94  PHE94       0.2264
     23  O         70.5000    8.4380   60.3490 O.2    94  PHE94      -0.2867
     24  CB        71.4990   11.2990   59.7480 C.3    94  PHE94       0.0534
     25  CG        71.0820   12.6370   60.2920 C.ar   94  PHE94      -0.0203
     26  CD1       70.1250   12.7340   61.2880 C.ar   94  PHE94      -0.0042
     27  CD2       71.6280   13.8120   59.7780 C.ar   94  PHE94      -0.0042
     28  CE1       69.7330   13.9650   61.7710 C.ar   94  PHE94      -0.0003
     29  CE2       71.2390   15.0380   60.2620 C.ar   94  PHE94      -0.0003
     30  CZ        70.2900   15.1150   61.2630 C.ar   94  PHE94      -0.0000
     31  N         67.9030   14.7790   53.1290 N.3   103  LEU103     -0.1245
     32  CA        68.7730   15.6440   53.9220 C.3   103  LEU103      0.1561
     33  C         70.2370   15.2610   53.7760 C.2   103  LEU103      0.2260
     34  O         71.1170   16.1300   53.7900 O.2   103  LEU103     -0.2867
     35  CB        68.3760   15.5740   55.3930 C.3   103  LEU103      0.0270
     36  CG        69.1550   16.4550   56.3550 C.3   103  LEU103      0.0019
     37  CD1       68.8710   17.9280   56.0980 C.3   103  LEU103      0.0001
     38  CD2       68.8160   16.0710   57.7770 C.3   103  LEU103      0.0001
     39  N         72.1150   12.4510   69.3930 N.3   193  MET193     -0.1245
     40  CA        72.9060   12.7590   68.2110 C.3   193  MET193      0.1570
     41  C         73.6170   14.0960   68.3560 C.2   193  MET193      0.2261
     42  O         74.7770   14.2310   67.9470 O.2   193  MET193     -0.2867
     43  CB        72.0360   12.7510   66.9610 C.3   193  MET193      0.0387
     44  CG        72.8660   13.0430   65.7190 C.3   193  MET193      0.0595
     45  SD        71.9770   12.8860   64.1810 S.3   193  MET193     -0.1393
     46  CE        73.0710   13.8080   63.0980 C.3   193  MET193      0.0692
     47  N         77.6720   14.7090   68.1700 N.3   197  ILE197     -0.1245
     48  CA        78.3470   15.7340   67.3780 C.3   197  ILE197      0.1561
     49  C         79.3830   16.4650   68.2250 C.2   197  ILE197      0.2260
     50  O         80.4740   16.7980   67.7480 O.2   197  ILE197     -0.2867
     51  CB        77.3050   16.7030   66.7800 C.3   197  ILE197      0.0252
     52  CG1       76.4440   15.9730   65.7440 C.3   197  ILE197      0.0019
     53  CG2       77.9760   17.9130   66.1530 C.3   197  ILE197      0.0019
     54  CD1       75.3720   16.8470   65.0600 C.3   197  ILE197      0.0001
     55  N         61.1760   13.1250   60.7910 N.3   280  PHE280     -0.1227
     56  CA        61.9240   14.0370   61.6940 C.3   280  PHE280      0.1736
     57  C         61.7280   15.5220   61.2640 C.2   280  PHE280      0.2595
     58  O         61.2210   16.3340   62.0150 O.2   280  PHE280     -0.2718
     59  CB        63.3920   13.5970   61.7390 C.3   280  PHE280      0.0547
     60  CG        64.3240   14.6750   62.2240 C.ar  280  PHE280     -0.0202
     61  CD1       64.0930   15.3240   63.4450 C.ar  280  PHE280     -0.0042
     62  CD2       65.4500   15.0030   61.4570 C.ar  280  PHE280     -0.0042
     63  CE1       64.9890   16.2980   63.8930 C.ar  280  PHE280     -0.0003
     64  CE2       66.3460   15.9730   61.9140 C.ar  280  PHE280     -0.0003
     65  CZ        66.1180   16.6190   63.1320 C.ar  280  PHE280     -0.0000
     66  N         62.0430   15.8240   59.9390 N.am  281  GLU281     -0.1979
     67  CA        62.1590   17.2340   59.4730 C.3   281  GLU281      0.1602
     68  C         60.8190   18.0060   59.5240 C.2   281  GLU281      0.2287
     69  O         60.7820   19.1870   59.7940 O.2   281  GLU281     -0.2864
     70  CB        62.6740   17.2670   58.0270 C.3   281  GLU281      0.0415
     71  CG        64.0900   16.7170   57.8820 C.3   281  GLU281      0.1163
     72  CD        64.5960   16.7150   56.4570 C.2   281  GLU281      0.3649
     73  OE1       65.7420   16.5660   56.1220 O.co2 281  GLU281     -0.2457
     74  OE2       63.5680   16.8460   55.5500 O.co2 281  GLU281     -0.2457
     75  N         61.1590   20.8980   63.6120 N.3   285  THR285     -0.1218
     76  CA        61.5650   22.2840   63.4080 C.3   285  THR285      0.1862
     77  C         60.4310   23.2540   63.6760 C.2   285  THR285      0.2287
     78  O         60.6350   24.3210   64.2690 O.2   285  THR285     -0.2866
     79  CB        62.0640   22.4730   61.9770 C.3   285  THR285      0.1770
     80  OG1       61.4820   21.4740   61.1390 O.3   285  THR285     -0.2211
     81  CG2       63.5210   22.3640   61.9430 C.3   285  THR285      0.0375
     82  N         66.9730   25.9480   63.4450 N.3   346  VAL346     -0.1245
     83  CA        68.1790   25.1600   63.1790 C.3   346  VAL346      0.1561
     84  C         69.3820   26.0780   63.3890 C.2   346  VAL346      0.2260
     85  O         69.7010   26.8830   62.5010 O.2   346  VAL346     -0.2867
     86  CB        68.1840   24.5770   61.7570 C.3   346  VAL346      0.0252
     87  CG1       69.3700   23.6650   61.5670 C.3   346  VAL346      0.0019
     88  CG2       66.8760   23.8640   61.4480 C.3   346  VAL346      0.0019
     89  N         72.6830   25.4130   63.4330 N.3   348  GLN348     -0.1231
     90  CA        73.9930   25.0920   62.8640 C.3   348  GLN348      0.1698
     91  C         73.9190   23.9350   61.8720 C.2   348  GLN348      0.2592
     92  O         73.4200   22.8580   62.2060 O.2   348  GLN348     -0.2718
     93  CB        74.9630   24.7510   63.9940 C.3   348  GLN348      0.0381
     94  CG        76.4250   24.8730   63.6650 C.3   348  GLN348      0.0905
     95  CD        77.2820   24.6610   64.8910 C.2   348  GLN348      0.2608
     96  OE1       76.7780   24.6530   66.0150 O.2   348  GLN348     -0.2717
     97  NE2       78.5780   24.4940   64.6900 N.am  348  GLN348     -0.0878
     98  N         74.4740   24.1460   60.6750 N.am  349  VAL349     -0.1966
     99  CA        74.5330   23.1470   59.6120 C.3   349  VAL349      0.1727
    100  C         75.9630   23.1000   59.0740 C.2   349  VAL349      0.2616
    101  O         76.7800   23.9770   59.3550 O.2   349  VAL349     -0.2715
    102  CB        73.5250   23.4460   58.4840 C.3   349  VAL349      0.0290
    103  CG1       72.1110   23.2570   58.9870 C.3   349  VAL349      0.0023
    104  CG2       73.6900   24.8770   57.9880 C.3   349  VAL349      0.0023
    105  N         76.2650   22.0600   58.2910 N.am  350  TYR350     -0.1974
    106  CA        77.6500   21.7710   57.9180 C.3   350  TYR350      0.1639
    107  C         77.7690   21.3000   56.4730 C.2   350  TYR350      0.2290
    108  O         76.8760   20.6360   55.9420 O.2   350  TYR350     -0.2864
    109  CB        78.2610   20.6870   58.8050 C.3   350  TYR350      0.0560
    110  CG        78.1660   20.9330   60.2890 C.ar  350  TYR350     -0.0198
    111  CD1       77.0040   20.6490   60.9850 C.ar  350  TYR350     -0.0009
    112  CD2       79.2550   21.4120   61.0070 C.ar  350  TYR350     -0.0009
    113  CE1       76.9270   20.8500   62.3410 C.ar  350  TYR350      0.0417
    114  CE2       79.1790   21.6170   62.3570 C.ar  350  TYR350      0.0417
    115  CZ        78.0110   21.3330   63.0220 C.ar  350  TYR350      0.1957
    116  OH        77.9260   21.5360   64.3820 O.3   350  TYR350     -0.2866
    117  N         65.6980   24.6830   52.4670 N.3   419  CYS419     -0.1235
    118  CA        64.5890   23.9210   53.0220 C.3   419  CYS419      0.1677
    119  C         63.5130   23.6870   51.9720 C.2   419  CYS419      0.2270
    120  O         63.0030   24.6290   51.3600 O.2   419  CYS419     -0.2867
    121  CB        63.9880   24.6380   54.2250 C.3   419  CYS419      0.0956
    122  SG        62.7990   23.6150   55.1190 S.3   419  CYS419     -0.0801
    123  N         70.0970   19.5280   67.6190 N.3   456  LEU456     -0.1231
    124  CA        69.8960   19.6040   66.1730 C.3   456  LEU456      0.1693
    125  C         69.0220   20.8130   65.8390 C.2   456  LEU456      0.2591
    126  O         69.4640   21.7360   65.1470 O.2   456  LEU456     -0.2718
    127  CB        69.2910   18.3100   65.6220 C.3   456  LEU456      0.0284
    128  CG        70.2690   17.1570   65.3510 C.3   456  LEU456      0.0019
    129  CD1       70.9910   16.7140   66.5840 C.3   456  LEU456      0.0001
    130  CD2       69.5370   15.9650   64.7380 C.3   456  LEU456      0.0001
    131  N         67.7830   20.8150   66.3070 N.am  457  VAL457     -0.1980
    132  CA        66.9680   22.0200   66.2760 C.3   457  VAL457      0.1595
    133  C         67.1150   22.7130   67.6210 C.2   457  VAL457      0.2287
    134  O         67.6150   22.1140   68.5820 O.2   457  VAL457     -0.2864
    135  CB        65.4920   21.7150   65.9810 C.3   457  VAL457      0.0276
    136  CG1       65.3730   20.7990   64.7880 C.3   457  VAL457      0.0022
    137  CG2       64.8170   21.1330   67.2020 C.3   457  VAL457      0.0022
@<TRIPOS>BOND
     1   120   119    2
     2   119   118    1
     3   117   118    1
     4   118   121    1
     5    31    32    1
     6    33    34    2
     7    33    32    1
     8    32    35    1
     9   121   122    1
    10    35    36    1
    11    74    72   ar
    12   108   107    2
    13    37    36    1
    14    73    72   ar
    15    36    38    1
    16    72    71    1
    17   107   106    1
    18    15    17   ar
    19    15    13   ar
    20    17    18   ar
    21    12    13    1
    22    12     9    1
    23    13    14   ar
    24    18    19    1
    25    18    16   ar
    26    14    16   ar
    27    71    70    1
    28   106   105    1
    29   106   109    1
    30   104   102    1
    31    70    67    1
    32   105   100   am
    33   102   103    1
    34   102    99    1
    35    11    10    2
    36    10     9    1
    37   109   110    1
    38     9     8    1
    39   100   101    2
    40   100    99    1
    41     8     3   am
    42    67    68    1
    43    67    66    1
    44    68    69    2
    45    99    98    1
    46    24    25    1
    47    24    21    1
    48    27    29   ar
    49    27    25   ar
    50    66    57   am
    51    29    30   ar
    52     1     2    1
    53   110   111   ar
    54   110   112   ar
    55    25    26   ar
    56    22    23    2
    57    22    21    1
    58     3     2    1
    59     3     4    2
    60    98    91   am
    61    55    56    1
    62    21    20    1
    63   111   113   ar
    64   112   114   ar
    65     5     2    1
    66     5     7    1
    67     5     6    1
    68    80    79    1
    69    30    28   ar
    70    57    56    1
    71    57    58    2
    72    26    28   ar
    73    88    86    1
    74    62    64   ar
    75    62    60   ar
    76    87    86    1
    77    56    59    1
    78    59    60    1
    79    86    83    1
    80    91    92    2
    81    91    90    1
    82    64    65   ar
    83    81    79    1
    84    79    76    1
    85    60    61   ar
    86   113   115   ar
    87   114   115   ar
    88    85    84    2
    89    90    89    1
    90    90    93    1
    91   115   116    1
    92    46    45    1
    93    65    63   ar
    94    83    84    1
    95    83    82    1
    96    76    75    1
    97    76    77    1
    98    61    63   ar
    99    94    93    1
   100    94    95    1
   101    77    78    2
   102    45    44    1
   103    97    95   am
   104   130   128    1
   105   136   135    1
   106    95    96    2
   107    54    52    1
   108   126   125    2
   109   128   127    1
   110   128   129    1
   111   127   124    1
   112    44    43    1
   113    52    51    1
   114   125   124    1
   115   125   131   am
   116   135   132    1
   117   135   137    1
   118    53    51    1
   119   124   123    1
   120   132   131    1
   121   132   133    1
   122    51    48    1
   123    43    40    1
   124    48    47    1
   125    48    49    1
   126   133   134    2
   127    50    49    2
   128    42    41    2
   129    40    41    1
   130    40    39    1
