@<TRIPOS>MOLECULE
tmp/5t71A01.pdb
 119 116 0 0 0
SMALL
GASTEIGER

@<TRIPOS>ATOM
      1  N         12.8160    1.2880    5.9190 N.3    64  ASN64      -0.1240
      2  CA        11.9750    2.2280    6.6470 C.3    64  ASN64       0.1653
      3  C         10.7920    2.6310    5.8050 C.2    64  ASN64       0.2266
      4  O         10.9780    3.0040    4.6490 O.2    64  ASN64      -0.2867
      5  CB        12.7370    3.5090    6.9830 C.3    64  ASN64       0.1155
      6  CG        13.8260    3.3020    7.9990 C.2    64  ASN64       0.2627
      7  OD1       13.8600    2.2900    8.6790 O.2    64  ASN64      -0.2716
      8  ND2       14.7150    4.2810    8.1190 N.am   64  ASN64      -0.0877
      9  N          8.5250    7.0970   11.3600 N.3    89  GLN89      -0.1245
     10  CA         8.8400    5.9500   10.5170 C.3    89  GLN89       0.1566
     11  C          8.5640    4.6710   11.2680 C.2    89  GLN89       0.2260
     12  O          8.4580    4.6680   12.5010 O.2    89  GLN89      -0.2867
     13  CB        10.3030    5.9900   10.0550 C.3    89  GLN89       0.0367
     14  CG        11.3300    6.0530   11.1820 C.3    89  GLN89       0.0905
     15  CD        12.1150    4.7640   11.3780 C.2    89  GLN89       0.2608
     16  OE1       11.5690    3.6630   11.3010 O.2    89  GLN89      -0.2717
     17  NE2       13.3980    4.8960   11.6670 N.am   89  GLN89      -0.0878
     18  N          9.9930    0.3740   10.9820 N.3    91  HIS91      -0.1241
     19  CA        10.8780   -0.6140   10.3780 C.3    91  HIS91       0.1621
     20  C         10.8180   -1.8790   11.2050 C.2    91  HIS91       0.2264
     21  O         10.1730   -1.9100   12.2520 O.2    91  HIS91      -0.2867
     22  CB        12.2950   -0.0890   10.3500 C.3    91  HIS91       0.0745
     23  CG        12.8320    0.1800   11.7070 C.ar   91  HIS91       0.0817
     24  ND1       12.6710    1.3850   12.3530 N.ar   91  HIS91      -0.2268
     25  CD2       13.4530   -0.6370   12.5770 C.ar   91  HIS91       0.1154
     26  CE1       13.2090    1.3110   13.5520 C.ar   91  HIS91       0.1986
     27  NE2       13.6820    0.0920   13.7090 N.ar   91  HIS91      -0.2212
     28  N         13.1060   -5.6000   12.5290 N.3    93  HIS93      -0.1241
     29  CA        14.3030   -6.4270   12.7000 C.3    93  HIS93       0.1621
     30  C         13.8430   -7.8700   12.5700 C.2    93  HIS93       0.2264
     31  O         12.7740   -8.2170   13.0550 O.2    93  HIS93      -0.2867
     32  CB        14.9590   -6.1940   14.0550 C.3    93  HIS93       0.0745
     33  CG        15.2620   -4.7610   14.3220 C.ar   93  HIS93       0.0817
     34  ND1       16.5110   -4.2130   14.1380 N.ar   93  HIS93      -0.2268
     35  CD2       14.4600   -3.7470   14.7040 C.ar   93  HIS93       0.1154
     36  CE1       16.4680   -2.9260   14.4190 C.ar   93  HIS93       0.1986
     37  NE2       15.2340   -2.6260   14.7530 N.ar   93  HIS93      -0.2212
     38  N          9.1740   -1.8250   14.9100 N.3   116  HIS116     -0.1241
     39  CA         9.4130   -0.5980   15.6620 C.3   116  HIS116      0.1621
     40  C          8.7550    0.5720   14.9780 C.2   116  HIS116      0.2264
     41  O          9.1390    0.9320   13.8750 O.2   116  HIS116     -0.2867
     42  CB        10.9110   -0.3440   15.7820 C.3   116  HIS116      0.0745
     43  CG        11.5910   -1.3210   16.6850 C.ar  116  HIS116      0.0817
     44  ND1       12.9510   -1.5350   16.7030 N.ar  116  HIS116     -0.2268
     45  CD2       11.0740   -2.1770   17.5900 C.ar  116  HIS116      0.1154
     46  CE1       13.2440   -2.4580   17.5920 C.ar  116  HIS116      0.1986
     47  NE2       12.1230   -2.8530   18.1540 N.ar  116  HIS116     -0.2212
     48  N          8.4210    4.4110   15.3000 N.3   118  VAL118     -0.1245
     49  CA         9.2930    5.4070   15.9170 C.3   118  VAL118      0.1561
     50  C          8.5880    6.7570   15.9580 C.2   118  VAL118      0.2260
     51  O          8.0890    7.2230   14.9320 O.2   118  VAL118     -0.2867
     52  CB        10.6160    5.5270   15.1250 C.3   118  VAL118      0.0252
     53  CG1       11.5530    6.5400   15.7760 C.3   118  VAL118      0.0019
     54  CG2       11.2910    4.1660   14.9820 C.3   118  VAL118      0.0019
     55  N         12.2730   10.3710   22.2830 N.3   137  LEU137     -0.1245
     56  CA        11.6330    9.4150   21.3860 C.3   137  LEU137      0.1561
     57  C         10.8050    8.4240   22.1640 C.2   137  LEU137      0.2260
     58  O         11.0680    8.1440   23.3330 O.2   137  LEU137     -0.2867
     59  CB        12.6650    8.6420   20.5590 C.3   137  LEU137      0.0270
     60  CG        13.6410    9.4080   19.6740 C.3   137  LEU137      0.0019
     61  CD1       14.5210    8.4200   18.9250 C.3   137  LEU137      0.0001
     62  CD2       12.9510   10.3450   18.7010 C.3   137  LEU137      0.0001
     63  N          9.3700    4.5480   21.1350 N.3   139  VAL139     -0.1245
     64  CA         9.2800    3.4880   20.1470 C.3   139  VAL139      0.1561
     65  C          8.3070    2.4570   20.6550 C.2   139  VAL139      0.2260
     66  O          8.4480    1.9380   21.7660 O.2   139  VAL139     -0.2867
     67  CB        10.6460    2.8610   19.7840 C.3   139  VAL139      0.0252
     68  CG1       10.4620    1.8350   18.6650 C.3   139  VAL139      0.0019
     69  CG2       11.6130    3.9380   19.3310 C.3   139  VAL139      0.0019
     70  N         18.2270    3.9080   21.3250 N.3   194  LEU194     -0.1231
     71  CA        18.2180    3.3620   19.9750 C.3   194  LEU194      0.1693
     72  C         18.9530    2.0360   20.0170 C.2   194  LEU194      0.2593
     73  O         19.9460    1.8870   20.7430 O.2   194  LEU194     -0.2718
     74  CB        18.9430    4.2860   18.9990 C.3   194  LEU194      0.0284
     75  CG        18.4560    5.7270   18.8820 C.3   194  LEU194      0.0019
     76  CD1       19.3140    6.5040   17.8900 C.3   194  LEU194      0.0001
     77  CD2       16.9960    5.7820   18.4830 C.3   194  LEU194      0.0001
     78  N         18.4950    1.0760   19.2230 N.am  195  THR195     -0.1939
     79  CA        19.1470   -0.2390   19.1830 C.3   195  THR195      0.2028
     80  C         20.1800   -0.3480   18.0590 C.2   195  THR195      0.2643
     81  O         20.7720   -1.4100   17.8780 O.2   195  THR195     -0.2714
     82  CB        18.1400   -1.3900   19.0250 C.3   195  THR195      0.1808
     83  OG1       17.5610   -1.3160   17.7200 O.3   195  THR195     -0.2208
     84  CG2       17.0660   -1.3420   20.0900 C.3   195  THR195      0.0379
     85  N         20.3570    0.7230   17.2880 N.am  196  THR196     -0.1937
     86  CA        21.4250    0.8090   16.2960 C.3   196  THR196      0.2013
     87  C         22.2570    2.0320   16.5900 C.2   196  THR196      0.2484
     88  O         21.7630    2.9740   17.2200 O.2   196  THR196     -0.2729
     89  CB        20.8760    0.9430   14.8660 C.3   196  THR196      0.1807
     90  OG1       20.0510    2.1090   14.7490 O.3   196  THR196     -0.2208
     91  CG2       20.0800   -0.2680   14.4920 C.3   196  THR196      0.0379
     92  N         23.5190    2.0440   16.1180 N.am  197  PRO197     -0.2715
     93  CA        24.2890    3.2760   16.1780 C.3   197  PRO197      0.1521
     94  C         23.4600    4.4500   15.6460 C.2   197  PRO197      0.2440
     95  O         22.7940    4.2860   14.6180 O.2   197  PRO197     -0.2731
     96  CB        25.4860    2.9570   15.2890 C.3   197  PRO197      0.0310
     97  CG        25.6990    1.4960   15.5200 C.3   197  PRO197      0.0237
     98  CD        24.2990    0.9490   15.5120 C.3   197  PRO197      0.0939
     99  N         23.4640    5.6100   16.3120 N.am  198  PRO198     -0.2727
    100  CA        24.3910    6.0020   17.3820 C.3   198  PRO198      0.1402
    101  C         24.0290    5.5800   18.8200 C.2   198  PRO198      0.2269
    102  O         24.6910    6.0260   19.7510 O.2   198  PRO198     -0.2865
    103  CB        24.3910    7.5310   17.2640 C.3   198  PRO198      0.0296
    104  CG        23.0220    7.8520   16.7710 C.3   198  PRO198      0.0237
    105  CD        22.6990    6.7590   15.7990 C.3   198  PRO198      0.0939
    106  N         10.6920    3.0700   25.7270 N.3   205  TRP205     -0.1241
    107  CA        10.2490    1.8730   25.0300 C.3   205  TRP205      0.1605
    108  C          8.8900    1.4710   25.5380 C.2   205  TRP205      0.2264
    109  O          8.6690    1.4490   26.7350 O.2   205  TRP205     -0.2867
    110  CB        11.2630    0.7340   25.2260 C.3   205  TRP205      0.0550
    111  CG        12.3740    0.8650   24.2660 C.ar  205  TRP205      0.0003
    112  CD1       13.5870    1.4570   24.4710 C.ar  205  TRP205      0.0946
    113  CD2       12.3440    0.4620   22.9040 C.ar  205  TRP205      0.0152
    114  NE1       14.3180    1.4390   23.3100 N.ar  205  TRP205     -0.2442
    115  CE2       13.5790    0.8280   22.3330 C.ar  205  TRP205      0.0810
    116  CE3       11.3950   -0.1870   22.1100 C.ar  205  TRP205      0.0012
    117  CZ2       13.8800    0.5730   21.0020 C.ar  205  TRP205      0.0191
    118  CZ3       11.6980   -0.4470   20.8040 C.ar  205  TRP205      0.0001
    119  CH2       12.9350   -0.0730   20.2580 C.ar  205  TRP205      0.0015
@<TRIPOS>BOND
     1     4     3    2
     2     3     2    1
     3     1     2    1
     4     2     5    1
     5     5     6    1
     6     6     8   am
     7     6     7    2
     8    13    10    1
     9    13    14    1
    10    22    19    1
    11    22    23    1
    12    19    18    1
    13    19    20    1
    14    10    11    1
    15    10     9    1
    16    14    15    1
    17    20    21    2
    18    11    12    2
    19    16    15    2
    20    15    17   am
    21    23    24   ar
    22    23    25   ar
    23    24    26   ar
    24    28    29    1
    25    30    29    1
    26    30    31    2
    27    25    27   ar
    28    29    32    1
    29    26    27   ar
    30    41    40    2
    31    32    33    1
    32    34    33   ar
    33    34    36   ar
    34    33    35   ar
    35    36    37   ar
    36    91    89    1
    37    95    94    2
    38    35    37   ar
    39    90    89    1
    40    89    86    1
    41    38    39    1
    42    51    50    2
    43    40    39    1
    44    54    52    1
    45    52    53    1
    46    52    49    1
    47    96    97    1
    48    96    93    1
    49    48    49    1
    50    98    97    1
    51    98    92    1
    52    94    93    1
    53    94    99   am
    54    39    42    1
    55    42    43    1
    56   105    99    1
    57   105   104    1
    58    49    50    1
    59    92    93    1
    60    92    87   am
    61    86    87    1
    62    86    85    1
    63    99   100    1
    64    87    88    2
    65    43    44   ar
    66    43    45   ar
    67    44    46   ar
    68   104   103    1
    69   103   100    1
    70    85    80   am
    71   100   101    1
    72    45    47   ar
    73    46    47   ar
    74    83    82    1
    75    81    80    2
    76    76    75    1
    77    80    79    1
    78    77    75    1
    79    68    67    1
    80    62    60    1
    81   101   102    2
    82    75    74    1
    83    61    60    1
    84    74    71    1
    85    82    79    1
    86    82    84    1
    87    79    78    1
    88    78    72   am
    89    69    67    1
    90    60    59    1
    91    67    64    1
    92    71    72    1
    93    71    70    1
    94    72    73    2
    95    64    65    1
    96    64    63    1
    97   119   118   ar
    98   119   117   ar
    99    59    56    1
   100    65    66    2
   101   118   116   ar
   102   117   115   ar
   103    56    57    1
   104    56    55    1
   105   116   113   ar
   106    57    58    2
   107   115   113   ar
   108   115   114   ar
   109   113   111   ar
   110   114   112   ar
   111   111   112   ar
   112   111   110    1
   113   107   110    1
   114   107   108    1
   115   107   106    1
   116   108   109    2
