@<TRIPOS>MOLECULE
tmp/5t72A00.pdb
 82 73 0 0 0
SMALL
GASTEIGER

@<TRIPOS>ATOM
      1  N         12.2100    2.9960    2.0950 N.3    57  LEU57      -0.1245
      2  CA        13.6430    3.1200    1.8100 C.3    57  LEU57       0.1561
      3  C         14.4150    1.9400    2.3800 C.2    57  LEU57       0.2260
      4  O         14.2340    1.5970    3.5450 O.2    57  LEU57      -0.2867
      5  CB        14.1850    4.4070    2.4440 C.3    57  LEU57       0.0270
      6  CG        15.7030    4.6130    2.4580 C.3    57  LEU57       0.0019
      7  CD1       16.2130    4.9290    1.0620 C.3    57  LEU57       0.0001
      8  CD2       16.0860    5.7200    3.4260 C.3    57  LEU57       0.0001
      9  N         17.8160    1.3040    3.6980 N.3    59  ASN59      -0.1240
     10  CA        18.9690    2.0970    4.1600 C.3    59  ASN59       0.1653
     11  C         20.2460    1.2870    4.4090 C.2    59  ASN59       0.2266
     12  O         21.2170    1.8110    4.9710 O.2    59  ASN59      -0.2867
     13  CB        18.6060    2.9180    5.3930 C.3    59  ASN59       0.1155
     14  CG        18.2560    2.0720    6.5900 C.2    59  ASN59       0.2627
     15  OD1       18.5950    0.8890    6.6910 O.2    59  ASN59      -0.2716
     16  ND2       17.5880    2.6990    7.5210 N.am   59  ASN59      -0.0877
     17  N         12.7770    1.3710    5.9350 N.3    64  ASN64      -0.1240
     18  CA        11.9370    2.3140    6.6640 C.3    64  ASN64       0.1653
     19  C         10.7640    2.7280    5.8180 C.2    64  ASN64       0.2266
     20  O         10.9470    3.1560    4.6750 O.2    64  ASN64      -0.2867
     21  CB        12.7100    3.5760    7.0320 C.3    64  ASN64       0.1155
     22  CG        13.7570    3.3330    8.0830 C.2    64  ASN64       0.2627
     23  OD1       13.8600    2.2430    8.6180 O.2    64  ASN64      -0.2716
     24  ND2       14.5440    4.3510    8.3860 N.am   64  ASN64      -0.0877
     25  N          8.3550    5.7050    5.7430 N.3    66  GLU66      -0.1245
     26  CA         8.4710    7.0730    6.2400 C.3    66  GLU66       0.1567
     27  C          7.1350    7.7800    6.1470 C.2    66  GLU66       0.2260
     28  O          6.3720    7.5480    5.2020 O.2    66  GLU66      -0.2867
     29  CB         9.4790    7.8280    5.3880 C.3    66  GLU66       0.0388
     30  CG        10.8810    7.2470    5.4510 C.3    66  GLU66       0.1160
     31  CD        11.7740    7.7300    4.3330 C.2    66  GLU66       0.3649
     32  OE1       11.2900    8.4330    3.4160 O.co2  66  GLU66      -0.2457
     33  OE2       12.9760    7.3990    4.3650 O.co2  66  GLU66      -0.2457
     34  N          7.1950    9.1260   12.8320 N.3    88  ILE88      -0.1231
     35  CA         8.0800    9.5190   11.7260 C.3    88  ILE88       0.1692
     36  C          8.3730    8.3580   10.7720 C.2    88  ILE88       0.2591
     37  O          8.4280    8.5570    9.5620 O.2    88  ILE88      -0.2718
     38  CB         9.3880   10.2120   12.2190 C.3    88  ILE88       0.0266
     39  CG1       10.2730   10.6130   11.0300 C.3    88  ILE88       0.0019
     40  CG2       10.1480    9.3500   13.2230 C.3    88  ILE88       0.0020
     41  CD1       11.3830   11.5860   11.3640 C.3    88  ILE88       0.0001
     42  N          8.5570    7.1520   11.3100 N.am   89  GLN89      -0.1979
     43  CA         8.8530    5.9870   10.4790 C.3    89  GLN89       0.1601
     44  C          8.5850    4.7120   11.2380 C.2    89  GLN89       0.2287
     45  O          8.5380    4.7160   12.4710 O.2    89  GLN89      -0.2864
     46  CB        10.3110    6.0070    9.9980 C.3    89  GLN89       0.0394
     47  CG        11.3590    6.1140   11.1040 C.3    89  GLN89       0.0908
     48  CD        12.1320    4.8270   11.3690 C.2    89  GLN89       0.2608
     49  OE1       11.6260    3.7300   11.2050 O.2    89  GLN89      -0.2717
     50  NE2       13.3550    4.9630   11.8130 N.am   89  GLN89      -0.0878
     51  N          8.4340    4.4350   15.2690 N.3   118  VAL118     -0.1245
     52  CA         9.3080    5.4250   15.8920 C.3   118  VAL118      0.1561
     53  C          8.5970    6.7690   15.9280 C.2   118  VAL118      0.2260
     54  O          8.1480    7.2630   14.8870 O.2   118  VAL118     -0.2867
     55  CB        10.6290    5.5540   15.1020 C.3   118  VAL118      0.0252
     56  CG1       11.5470    6.5880   15.7400 C.3   118  VAL118      0.0019
     57  CG2       11.3260    4.1970   14.9870 C.3   118  VAL118      0.0019
     58  N         12.7360   15.6590   14.8270 N.3   127  CYS127     -0.1221
     59  CA        13.2460   14.3930   15.3190 C.3   127  CYS127      0.1808
     60  C         14.7480   14.4530   15.6180 C.2   127  CYS127      0.2601
     61  O         15.1970   13.8740   16.6000 O.2   127  CYS127     -0.2717
     62  CB        12.9130   13.2630   14.3410 C.3   127  CYS127      0.0970
     63  SG        13.1270   11.6110   15.0430 S.3   127  CYS127     -0.0800
     64  N         15.5140   15.1850   14.8050 N.am  128  GLY128     -0.1957
     65  CA        16.9590   15.3270   15.0100 C.3   128  GLY128      0.1869
     66  C         17.3200   15.9680   16.3360 C.2   128  GLY128      0.2309
     67  O         18.3120   15.6100   16.9610 O.2   128  GLY128     -0.2863
     68  N         16.0050   13.3600   19.3350 N.3   131  VAL131     -0.1245
     69  CA        16.8290   12.1710   19.5720 C.3   131  VAL131      0.1561
     70  C         18.0420   12.4480   20.4810 C.2   131  VAL131      0.2260
     71  O         18.6800   11.5160   20.9620 O.2   131  VAL131     -0.2867
     72  CB        17.2540   11.5110   18.2310 C.3   131  VAL131      0.0252
     73  CG1       18.3950   12.2790   17.5690 C.3   131  VAL131      0.0019
     74  CG2       17.6080   10.0390   18.4240 C.3   131  VAL131      0.0019
     75  N         12.2890   10.3940   22.2260 N.3   137  LEU137     -0.1245
     76  CA        11.6250    9.4290   21.3500 C.3   137  LEU137      0.1561
     77  C         10.7810    8.4570   22.1380 C.2   137  LEU137      0.2260
     78  O         11.0480    8.1960   23.3110 O.2   137  LEU137     -0.2867
     79  CB        12.6340    8.6170   20.5340 C.3   137  LEU137      0.0270
     80  CG        13.5680    9.2900   19.5290 C.3   137  LEU137      0.0019
     81  CD1       14.1030    8.2360   18.5630 C.3   137  LEU137      0.0001
     82  CD2       12.9680   10.4430   18.7490 C.3   137  LEU137      0.0001
@<TRIPOS>BOND
     1     7     6    1
     2     2     1    1
     3     2     3    1
     4     2     5    1
     5     3     4    2
     6     5     6    1
     7     6     8    1
     8    32    31   ar
     9     9    10    1
    10    10    11    1
    11    10    13    1
    12    31    33   ar
    13    31    30    1
    14    11    12    2
    15    20    19    2
    16    28    27    2
    17    29    30    1
    18    29    26    1
    19    13    14    1
    20    25    26    1
    21    19    18    1
    22    17    18    1
    23    27    26    1
    24    14    15    2
    25    14    16   am
    26    18    21    1
    27    21    22    1
    28    22    24   am
    29    22    23    2
    30    37    36    2
    31    46    43    1
    32    46    47    1
    33    43    44    1
    34    43    42    1
    35    36    42   am
    36    36    35    1
    37    39    41    1
    38    39    38    1
    39    47    48    1
    40    49    48    2
    41    44    45    2
    42    48    50   am
    43    35    38    1
    44    35    34    1
    45    38    40    1
    46    62    63    1
    47    62    59    1
    48    64    65    1
    49    64    60   am
    50    58    59    1
    51    54    53    2
    52    57    55    1
    53    65    66    1
    54    55    56    1
    55    55    52    1
    56    51    52    1
    57    59    60    1
    58    60    61    2
    59    52    53    1
    60    66    67    2
    61    73    72    1
    62    72    74    1
    63    72    69    1
    64    81    80    1
    65    82    80    1
    66    68    69    1
    67    80    79    1
    68    69    70    1
    69    70    71    2
    70    79    76    1
    71    76    77    1
    72    76    75    1
    73    77    78    2
