@<TRIPOS>MOLECULE
tmp/5t72A02.pdb
 93 90 0 0 0
SMALL
GASTEIGER

@<TRIPOS>ATOM
      1  N         29.5950    0.3900   10.4410 N.3     2  TRP2       -0.1241
      2  CA        28.8760   -0.5490   11.3100 C.3     2  TRP2        0.1605
      3  C         27.8590   -1.4080   10.5590 C.2     2  TRP2        0.2264
      4  O         27.2980   -1.0000    9.5470 O.2     2  TRP2       -0.2867
      5  CB        28.2050    0.1790   12.4860 C.3     2  TRP2        0.0550
      6  CG        26.9670    0.9560   12.1360 C.ar    2  TRP2        0.0003
      7  CD1       26.8950    2.2730   11.7890 C.ar    2  TRP2        0.0946
      8  CD2       25.6250    0.4610   12.1210 C.ar    2  TRP2        0.0152
      9  NE1       25.5940    2.6280   11.5520 N.ar    2  TRP2       -0.2442
     10  CE2       24.7900    1.5370   11.7520 C.ar    2  TRP2        0.0810
     11  CE3       25.0450   -0.7870   12.3920 C.ar    2  TRP2        0.0012
     12  CZ2       23.4060    1.4030   11.6330 C.ar    2  TRP2        0.0191
     13  CZ3       23.6640   -0.9200   12.2810 C.ar    2  TRP2        0.0001
     14  CH2       22.8630    0.1730   11.8970 C.ar    2  TRP2        0.0015
     15  N         26.0200   -5.7950   10.9260 N.3     4  TYR4       -0.1241
     16  CA        25.6470   -6.9580   11.7180 C.3     4  TYR4        0.1605
     17  C         26.5330   -8.1800   11.4610 C.2     4  TYR4        0.2264
     18  O         26.2380   -9.2660   11.9510 O.2     4  TYR4       -0.2867
     19  CB        24.1810   -7.2780   11.4510 C.3     4  TYR4        0.0534
     20  CG        23.2510   -6.1940   11.9530 C.ar    4  TYR4       -0.0201
     21  CD1       22.8500   -6.1540   13.2900 C.ar    4  TYR4       -0.0009
     22  CD2       22.7740   -5.2020   11.0980 C.ar    4  TYR4       -0.0009
     23  CE1       21.9910   -5.1630   13.7530 C.ar    4  TYR4        0.0417
     24  CE2       21.9190   -4.2090   11.5510 C.ar    4  TYR4        0.0417
     25  CZ        21.5280   -4.1950   12.8750 C.ar    4  TYR4        0.1957
     26  OH        20.6790   -3.2130   13.3280 O.3     4  TYR4       -0.2866
     27  N         17.8160    1.3040    3.6980 N.3    59  ASN59      -0.1240
     28  CA        18.9690    2.0970    4.1600 C.3    59  ASN59       0.1653
     29  C         20.2460    1.2870    4.4090 C.2    59  ASN59       0.2266
     30  O         21.2170    1.8110    4.9710 O.2    59  ASN59      -0.2867
     31  CB        18.6060    2.9180    5.3930 C.3    59  ASN59       0.1155
     32  CG        18.2560    2.0720    6.5900 C.2    59  ASN59       0.2627
     33  OD1       18.5950    0.8890    6.6910 O.2    59  ASN59      -0.2716
     34  ND2       17.5880    2.6990    7.5210 N.am   59  ASN59      -0.0877
     35  N         20.5250   -1.2310    6.4520 N.3    61  HIS61      -0.1226
     36  CA        20.4060   -1.8970    7.7670 C.3    61  HIS61       0.1752
     37  C         19.0320   -2.5170    7.9840 C.2    61  HIS61       0.2595
     38  O         18.9180   -3.5430    8.6500 O.2    61  HIS61      -0.2718
     39  CB        20.7250   -0.9040    8.8830 C.3    61  HIS61       0.0759
     40  CG        21.9250   -0.0720    8.5870 C.ar   61  HIS61       0.0818
     41  ND1       23.2090   -0.5440    8.7370 N.ar   61  HIS61      -0.2268
     42  CD2       22.0350    1.1730    8.0740 C.ar   61  HIS61       0.1154
     43  CE1       24.0600    0.3950    8.3720 C.ar   61  HIS61       0.1986
     44  NE2       23.3730    1.4340    7.9390 N.ar   61  HIS61      -0.2212
     45  N         18.0020   -1.8700    7.4500 N.am   62  ALA62      -0.1980
     46  CA        16.6370   -2.3710    7.4360 C.3    62  ALA62       0.1597
     47  C         15.9100   -1.5990    6.3240 C.2    62  ALA62       0.2287
     48  O         16.5630   -0.9530    5.4900 O.2    62  ALA62      -0.2864
     49  CB        15.9900   -2.1570    8.7950 C.3    62  ALA62       0.0319
     50  N         12.7770    1.3710    5.9350 N.3    64  ASN64      -0.1240
     51  CA        11.9370    2.3140    6.6640 C.3    64  ASN64       0.1653
     52  C         10.7640    2.7280    5.8180 C.2    64  ASN64       0.2266
     53  O         10.9470    3.1560    4.6750 O.2    64  ASN64      -0.2867
     54  CB        12.7100    3.5760    7.0320 C.3    64  ASN64       0.1155
     55  CG        13.7570    3.3330    8.0830 C.2    64  ASN64       0.2627
     56  OD1       13.8600    2.2430    8.6180 O.2    64  ASN64      -0.2716
     57  ND2       14.5440    4.3510    8.3860 N.am   64  ASN64      -0.0877
     58  N          8.5570    7.1520   11.3100 N.3    89  GLN89      -0.1245
     59  CA         8.8530    5.9870   10.4790 C.3    89  GLN89       0.1566
     60  C          8.5850    4.7120   11.2380 C.2    89  GLN89       0.2260
     61  O          8.5380    4.7160   12.4710 O.2    89  GLN89      -0.2867
     62  CB        10.3110    6.0070    9.9980 C.3    89  GLN89       0.0367
     63  CG        11.3590    6.1140   11.1040 C.3    89  GLN89       0.0905
     64  CD        12.1320    4.8270   11.3690 C.2    89  GLN89       0.2608
     65  OE1       11.6260    3.7300   11.2050 O.2    89  GLN89      -0.2717
     66  NE2       13.3550    4.9630   11.8130 N.am   89  GLN89      -0.0878
     67  N         10.0010    0.4170   10.9590 N.3    91  HIS91      -0.1241
     68  CA        10.8800   -0.5710   10.3450 C.3    91  HIS91       0.1621
     69  C         10.8200   -1.8320   11.1800 C.2    91  HIS91       0.2264
     70  O         10.1790   -1.8520   12.2340 O.2    91  HIS91      -0.2867
     71  CB        12.3050   -0.0560   10.3170 C.3    91  HIS91       0.0745
     72  CG        12.8420    0.2260   11.6790 C.ar   91  HIS91       0.0817
     73  ND1       12.6460    1.4310   12.3180 N.ar   91  HIS91      -0.2268
     74  CD2       13.5160   -0.5580   12.5510 C.ar   91  HIS91       0.1154
     75  CE1       13.1860    1.3830   13.5220 C.ar   91  HIS91       0.1986
     76  NE2       13.7250    0.1890   13.6810 N.ar   91  HIS91      -0.2212
     77  N         13.1700   -5.5440   12.4830 N.3    93  HIS93      -0.1241
     78  CA        14.3800   -6.3530   12.6340 C.3    93  HIS93       0.1621
     79  C         13.9100   -7.7910   12.5320 C.2    93  HIS93       0.2264
     80  O         12.8440   -8.1340   13.0320 O.2    93  HIS93      -0.2867
     81  CB        15.0740   -6.1070   13.9770 C.3    93  HIS93       0.0745
     82  CG        15.3490   -4.6630   14.2450 C.ar   93  HIS93       0.0817
     83  ND1       16.5790   -4.0850   14.0130 N.ar   93  HIS93      -0.2268
     84  CD2       14.5370   -3.6640   14.6600 C.ar   93  HIS93       0.1154
     85  CE1       16.5220   -2.8010   14.3030 C.ar   93  HIS93       0.1986
     86  NE2       15.2960   -2.5230   14.6940 N.ar   93  HIS93      -0.2212
     87  N         20.4040    0.7840   17.2340 N.3   196  THR196     -0.1218
     88  CA        21.4740    0.8730   16.2460 C.3   196  THR196      0.1862
     89  C         22.2890    2.1110   16.5410 C.2   196  THR196      0.2287
     90  O         21.7800    3.0510   17.1590 O.2   196  THR196     -0.2866
     91  CB        20.9410    1.0060   14.8080 C.3   196  THR196      0.1770
     92  OG1       20.2200    2.2340   14.6570 O.3   196  THR196     -0.2211
     93  CG2       20.0520   -0.1440   14.4320 C.3   196  THR196      0.0375
@<TRIPOS>BOND
     1    27    28    1
     2    28    29    1
     3    28    31    1
     4    29    30    2
     5    53    52    2
     6    31    32    1
     7    48    47    2
     8    52    51    1
     9    50    51    1
    10    47    46    1
    11    35    36    1
    12    32    33    2
    13    32    34   am
    14    51    54    1
    15    54    55    1
    16    46    45    1
    17    46    49    1
    18    45    37   am
    19    36    37    1
    20    36    39    1
    21    44    42   ar
    22    44    43   ar
    23    37    38    2
    24    42    40   ar
    25    55    57   am
    26    55    56    2
    27    43    41   ar
    28    40    41   ar
    29    40    39    1
    30     4     3    2
    31    62    59    1
    32    62    63    1
    33    71    68    1
    34    71    72    1
    35    68    67    1
    36    68    69    1
    37     1     2    1
    38    59    60    1
    39    59    58    1
    40     3     2    1
    41    15    16    1
    42    22    24   ar
    43    22    20   ar
    44    63    64    1
    45    69    70    2
    46    65    64    2
    47    60    61    2
    48     2     5    1
    49    64    66   am
    50    19    16    1
    51    19    20    1
    52    17    16    1
    53    17    18    2
    54    24    25   ar
    55     9    10   ar
    56     9     7   ar
    57    12    10   ar
    58    12    14   ar
    59    72    73   ar
    60    72    74   ar
    61    10     8   ar
    62     7     6   ar
    63    14    13   ar
    64    20    21   ar
    65     8     6   ar
    66     8    11   ar
    67     6     5    1
    68    13    11   ar
    69    73    75   ar
    70    77    78    1
    71    79    78    1
    72    79    80    2
    73    74    76   ar
    74    78    81    1
    75    25    26    1
    76    25    23   ar
    77    21    23   ar
    78    75    76   ar
    79    81    82    1
    80    83    82   ar
    81    83    85   ar
    82    82    84   ar
    83    85    86   ar
    84    93    91    1
    85    92    91    1
    86    84    86   ar
    87    91    88    1
    88    88    89    1
    89    88    87    1
    90    89    90    2
