@<TRIPOS>MOLECULE
tmp/5t74A01.pdb
 160 153 0 0 0
SMALL
GASTEIGER

@<TRIPOS>ATOM
      1  N         12.7880    1.3330    5.8040 N.3    64  ASN64      -0.1240
      2  CA        11.9340    2.2760    6.5320 C.3    64  ASN64       0.1653
      3  C         10.7320    2.6780    5.7080 C.2    64  ASN64       0.2266
      4  O         10.8870    3.0750    4.5550 O.2    64  ASN64      -0.2867
      5  CB        12.7010    3.5550    6.8830 C.3    64  ASN64       0.1155
      6  CG        13.7570    3.3400    7.9370 C.2    64  ASN64       0.2627
      7  OD1       13.8670    2.2600    8.4940 O.2    64  ASN64      -0.2716
      8  ND2       14.5460    4.3730    8.2110 N.am   64  ASN64      -0.0877
      9  N          8.3210    5.6560    5.6190 N.3    66  GLU66      -0.1245
     10  CA         8.4410    7.0270    6.0990 C.3    66  GLU66       0.1567
     11  C          7.0970    7.7140    6.0400 C.2    66  GLU66       0.2260
     12  O          6.3090    7.4830    5.1070 O.2    66  GLU66      -0.2867
     13  CB         9.4180    7.7830    5.2130 C.3    66  GLU66       0.0388
     14  CG        10.8140    7.1740    5.2040 C.3    66  GLU66       0.1160
     15  CD        11.6640    7.6420    4.0450 C.2    66  GLU66       0.3649
     16  OE1       11.1580    8.3670    3.1620 O.co2  66  GLU66      -0.2457
     17  OE2       12.8570    7.2800    4.0010 O.co2  66  GLU66      -0.2457
     18  N          7.1180    9.1370   12.7480 N.3    88  ILE88      -0.1231
     19  CA         7.9980    9.5250   11.6400 C.3    88  ILE88       0.1692
     20  C          8.3250    8.3600   10.7000 C.2    88  ILE88       0.2591
     21  O          8.4280    8.5620    9.4940 O.2    88  ILE88      -0.2718
     22  CB         9.2790   10.2410   12.1480 C.3    88  ILE88       0.0266
     23  CG1       10.1600   10.6940   10.9780 C.3    88  ILE88       0.0019
     24  CG2       10.0670    9.3810   13.1310 C.3    88  ILE88       0.0020
     25  CD1       11.1660   11.7580   11.3510 C.3    88  ILE88       0.0001
     26  N          8.5030    7.1510   11.2360 N.am   89  GLN89      -0.1979
     27  CA         8.8280    5.9970   10.4080 C.3    89  GLN89       0.1601
     28  C          8.5660    4.7090   11.1560 C.2    89  GLN89       0.2287
     29  O          8.4880    4.7120   12.3870 O.2    89  GLN89      -0.2864
     30  CB        10.2980    6.0420    9.9570 C.3    89  GLN89       0.0394
     31  CG        11.3290    6.1460   11.0770 C.3    89  GLN89       0.0908
     32  CD        12.1350    4.8750   11.3050 C.2    89  GLN89       0.2608
     33  OE1       11.6440    3.7570   11.1450 O.2    89  GLN89      -0.2717
     34  NE2       13.3780    5.0480   11.7120 N.am   89  GLN89      -0.0878
     35  N         10.0200    0.4220   10.8700 N.3    91  HIS91      -0.1241
     36  CA        10.9040   -0.5610   10.2600 C.3    91  HIS91       0.1621
     37  C         10.8490   -1.8270   11.0930 C.2    91  HIS91       0.2264
     38  O         10.2330   -1.8570   12.1610 O.2    91  HIS91      -0.2867
     39  CB        12.3290   -0.0290   10.2190 C.3    91  HIS91       0.0745
     40  CG        12.8760    0.2460   11.5740 C.ar   91  HIS91       0.0817
     41  ND1       12.6930    1.4490   12.2180 N.ar   91  HIS91      -0.2268
     42  CD2       13.5350   -0.5510   12.4410 C.ar   91  HIS91       0.1154
     43  CE1       13.2280    1.3870   13.4210 C.ar   91  HIS91       0.1986
     44  NE2       13.7270    0.1780   13.5830 N.ar   91  HIS91      -0.2212
     45  N         13.1740   -5.5600   12.3980 N.3    93  HIS93      -0.1241
     46  CA        14.3840   -6.3650   12.5600 C.3    93  HIS93       0.1621
     47  C         13.9350   -7.8090   12.4530 C.2    93  HIS93       0.2264
     48  O         12.8670   -8.1540   12.9570 O.2    93  HIS93      -0.2867
     49  CB        15.0420   -6.1190   13.9170 C.3    93  HIS93       0.0745
     50  CG        15.3490   -4.6820   14.1750 C.ar   93  HIS93       0.0817
     51  ND1       16.6010   -4.1410   13.9920 N.ar   93  HIS93      -0.2268
     52  CD2       14.5570   -3.6610   14.5720 C.ar   93  HIS93       0.1154
     53  CE1       16.5680   -2.8520   14.2740 C.ar   93  HIS93       0.1986
     54  NE2       15.3430   -2.5430   14.6320 N.ar   93  HIS93      -0.2212
     55  N          9.2440   -1.7810   14.7900 N.3   116  HIS116     -0.1241
     56  CA         9.4830   -0.5580   15.5510 C.3   116  HIS116      0.1621
     57  C          8.8050    0.6170   14.8750 C.2   116  HIS116      0.2264
     58  O          9.1730    0.9850   13.7600 O.2   116  HIS116     -0.2867
     59  CB        10.9780   -0.2970   15.6600 C.3   116  HIS116      0.0745
     60  CG        11.6690   -1.2660   16.5560 C.ar  116  HIS116      0.0817
     61  ND1       13.0250   -1.4660   16.5440 N.ar  116  HIS116     -0.2268
     62  CD2       11.1810   -2.1090   17.4930 C.ar  116  HIS116      0.1154
     63  CE1       13.3510   -2.3810   17.4320 C.ar  116  HIS116      0.1986
     64  NE2       12.2480   -2.7850   18.0280 N.ar  116  HIS116     -0.2212
     65  N          8.4410    4.4540   15.2090 N.3   118  VAL118     -0.1245
     66  CA         9.2890    5.4780   15.8170 C.3   118  VAL118      0.1561
     67  C          8.5650    6.8170   15.8520 C.2   118  VAL118      0.2260
     68  O          8.0690    7.2740   14.8230 O.2   118  VAL118     -0.2867
     69  CB        10.6000    5.6150   15.0150 C.3   118  VAL118      0.0252
     70  CG1       11.5290    6.6550   15.6460 C.3   118  VAL118      0.0019
     71  CG2       11.2800    4.2540   14.8640 C.3   118  VAL118      0.0019
     72  N         12.5590   15.7230   14.7870 N.3   127  CYS127     -0.1221
     73  CA        13.0870   14.4450   15.2480 C.3   127  CYS127      0.1808
     74  C         14.6000   14.5050   15.5070 C.2   127  CYS127      0.2601
     75  O         15.1000   13.8320   16.4120 O.2   127  CYS127     -0.2717
     76  CB        12.7530   13.3440   14.2340 C.3   127  CYS127      0.0970
     77  SG        12.7760   11.6680   14.8870 S.3   127  CYS127     -0.0800
     78  N         15.3140   15.3230   14.7330 N.am  128  GLY128     -0.1957
     79  CA        16.7620   15.4560   14.8860 C.3   128  GLY128      0.1869
     80  C         17.1610   16.1110   16.1960 C.2   128  GLY128      0.2309
     81  O         18.1630   15.7580   16.8030 O.2   128  GLY128     -0.2863
     82  N         16.0600   13.5230   19.2650 N.3   131  VAL131     -0.1245
     83  CA        16.9210   12.3770   19.5720 C.3   131  VAL131      0.1561
     84  C         18.1110   12.7430   20.4750 C.2   131  VAL131      0.2260
     85  O         18.7630   11.8600   21.0170 O.2   131  VAL131     -0.2867
     86  CB        17.3970   11.6680   18.2810 C.3   131  VAL131      0.0252
     87  CG1       18.5190   12.4470   17.5960 C.3   131  VAL131      0.0019
     88  CG2       17.8160   10.2260   18.5640 C.3   131  VAL131      0.0019
     89  N         12.3530   10.4440   22.1090 N.3   137  LEU137     -0.1245
     90  CA        11.6910    9.4830   21.2300 C.3   137  LEU137      0.1561
     91  C         10.8720    8.4840   22.0210 C.2   137  LEU137      0.2260
     92  O         11.1720    8.1800   23.1730 O.2   137  LEU137     -0.2867
     93  CB        12.7090    8.7090   20.3820 C.3   137  LEU137      0.0270
     94  CG        13.6570    9.4840   19.4630 C.3   137  LEU137      0.0019
     95  CD1       14.4410    8.5160   18.5860 C.3   137  LEU137      0.0001
     96  CD2       12.9600   10.5170   18.5900 C.3   137  LEU137      0.0001
     97  N          9.4360    4.5940   21.0180 N.3   139  VAL139     -0.1245
     98  CA         9.3330    3.5380   20.0270 C.3   139  VAL139      0.1561
     99  C          8.3620    2.4950   20.5430 C.2   139  VAL139      0.2260
    100  O          8.5040    1.9880   21.6650 O.2   139  VAL139     -0.2867
    101  CB        10.6970    2.9200   19.6590 C.3   139  VAL139      0.0252
    102  CG1       10.5160    1.8710   18.5640 C.3   139  VAL139      0.0019
    103  CG2       11.6500    4.0050   19.1740 C.3   139  VAL139      0.0019
    104  N         18.3530    3.9800   21.1870 N.3   194  LEU194     -0.1231
    105  CA        18.3300    3.4240   19.8400 C.3   194  LEU194      0.1693
    106  C         19.0580    2.0820   19.8650 C.2   194  LEU194      0.2593
    107  O         20.0480    1.9320   20.5870 O.2   194  LEU194     -0.2718
    108  CB        19.0370    4.3400   18.8480 C.3   194  LEU194      0.0284
    109  CG        18.5700    5.7910   18.7330 C.3   194  LEU194      0.0019
    110  CD1       19.4360    6.5500   17.7440 C.3   194  LEU194      0.0001
    111  CD2       17.1070    5.8810   18.3390 C.3   194  LEU194      0.0001
    112  N         18.5960    1.1190   19.0720 N.am  195  THR195     -0.1939
    113  CA        19.2470   -0.1950   19.0130 C.3   195  THR195      0.2028
    114  C         20.2790   -0.2980   17.8930 C.2   195  THR195      0.2643
    115  O         20.8800   -1.3550   17.7150 O.2   195  THR195     -0.2714
    116  CB        18.2320   -1.3320   18.8560 C.3   195  THR195      0.1808
    117  OG1       17.6280   -1.2410   17.5660 O.3   195  THR195     -0.2208
    118  CG2       17.1670   -1.2740   19.9490 C.3   195  THR195      0.0379
    119  N         20.4620    0.7790   17.1350 N.am  196  THR196     -0.1937
    120  CA        21.5130    0.8720   16.1280 C.3   196  THR196      0.2013
    121  C         22.3590    2.0970   16.4330 C.2   196  THR196      0.2484
    122  O         21.8680    3.0510   17.0400 O.2   196  THR196     -0.2729
    123  CB        20.9310    1.0290   14.7100 C.3   196  THR196      0.1807
    124  OG1       20.0400    2.1520   14.6630 O.3   196  THR196     -0.2208
    125  CG2       20.1830   -0.2090   14.3130 C.3   196  THR196      0.0379
    126  N         23.6390    2.0900   16.0070 N.am  197  PRO197     -0.2715
    127  CA        24.4330    3.3130   16.0760 C.3   197  PRO197      0.1521
    128  C         23.6440    4.4970   15.5100 C.2   197  PRO197      0.2440
    129  O         23.0300    4.3400   14.4550 O.2   197  PRO197     -0.2731
    130  CB        25.6510    2.9680   15.2230 C.3   197  PRO197      0.0310
    131  CG        25.8160    1.5030   15.4380 C.3   197  PRO197      0.0237
    132  CD        24.4080    0.9890   15.4010 C.3   197  PRO197      0.0939
    133  N         23.6230    5.6530   16.1790 N.am  198  PRO198     -0.2727
    134  CA        24.5370    6.0500   17.2560 C.3   198  PRO198      0.1402
    135  C         24.1500    5.6340   18.6910 C.2   198  PRO198      0.2269
    136  O         24.7890    6.0950   19.6330 O.2   198  PRO198     -0.2865
    137  CB        24.5550    7.5820   17.1240 C.3   198  PRO198      0.0296
    138  CG        23.1910    7.9010   16.6130 C.3   198  PRO198      0.0237
    139  CD        22.8880    6.8070   15.6370 C.3   198  PRO198      0.0939
    140  N         15.2710    7.1330   24.1890 N.3   203  VAL203     -0.1245
    141  CA        14.0450    6.4220   23.8290 C.3   203  VAL203      0.1561
    142  C         13.2830    5.9360   25.0560 C.2   203  VAL203      0.2260
    143  O         13.8560    5.2810   25.9200 O.2   203  VAL203     -0.2867
    144  CB        14.3540    5.2030   22.9340 C.3   203  VAL203      0.0252
    145  CG1       13.0640    4.4880   22.5300 C.3   203  VAL203      0.0019
    146  CG2       15.1340    5.6230   21.6910 C.3   203  VAL203      0.0019
    147  N         10.8170    3.1120   25.5670 N.3   205  TRP205     -0.1241
    148  CA        10.3570    1.8990   24.9000 C.3   205  TRP205      0.1605
    149  C          8.9920    1.4870   25.4190 C.2   205  TRP205      0.2264
    150  O          8.7740    1.4480   26.6250 O.2   205  TRP205     -0.2867
    151  CB        11.3780    0.7580   25.0780 C.3   205  TRP205      0.0550
    152  CG        12.4810    0.9030   24.0980 C.ar  205  TRP205      0.0003
    153  CD1       13.6900    1.5090   24.2900 C.ar  205  TRP205      0.0946
    154  CD2       12.4440    0.4970   22.7330 C.ar  205  TRP205      0.0152
    155  NE1       14.4130    1.4940   23.1230 N.ar  205  TRP205     -0.2442
    156  CE2       13.6740    0.8770   22.1500 C.ar  205  TRP205      0.0810
    157  CE3       11.4930   -0.1620   21.9440 C.ar  205  TRP205      0.0012
    158  CZ2       13.9760    0.6180   20.8170 C.ar  205  TRP205      0.0191
    159  CZ3       11.7990   -0.4260   20.6270 C.ar  205  TRP205      0.0001
    160  CH2       13.0300   -0.0370   20.0750 C.ar  205  TRP205      0.0015
@<TRIPOS>BOND
     1    16    15   ar
     2    17    15   ar
     3    15    14    1
     4     4     3    2
     5    12    11    2
     6    14    13    1
     7    13    10    1
     8     9    10    1
     9     3     2    1
    10     1     2    1
    11    11    10    1
    12     2     5    1
    13     5     6    1
    14     6     8   am
    15     6     7    2
    16    21    20    2
    17    30    27    1
    18    30    31    1
    19    39    36    1
    20    39    40    1
    21    36    35    1
    22    36    37    1
    23    27    28    1
    24    27    26    1
    25    20    26   am
    26    20    19    1
    27    23    25    1
    28    23    22    1
    29    31    32    1
    30    37    38    2
    31    33    32    2
    32    28    29    2
    33    32    34   am
    34    40    41   ar
    35    40    42   ar
    36    19    22    1
    37    19    18    1
    38    22    24    1
    39    41    43   ar
    40    45    46    1
    41    42    44   ar
    42    47    46    1
    43    47    48    2
    44    46    49    1
    45    43    44   ar
    46    58    57    2
    47    49    50    1
    48    51    50   ar
    49    51    53   ar
    50    50    52   ar
    51    76    77    1
    52    76    73    1
    53    53    54   ar
    54   125   123    1
    55   129   128    2
    56    52    54   ar
    57   124   123    1
    58   123   120    1
    59    78    79    1
    60    78    74   am
    61    72    73    1
    62    55    56    1
    63    68    67    2
    64    71    69    1
    65    57    56    1
    66    79    80    1
    67    69    70    1
    68    69    66    1
    69    65    66    1
    70   130   131    1
    71   130   127    1
    72    73    74    1
    73   132   131    1
    74   132   126    1
    75    74    75    2
    76   128   127    1
    77   128   133   am
    78    56    59    1
    79   139   133    1
    80   139   138    1
    81    59    60    1
    82    66    67    1
    83   126   127    1
    84   126   121   am
    85   120   121    1
    86   120   119    1
    87   133   134    1
    88    80    81    2
    89   121   122    2
    90    61    60   ar
    91    61    63   ar
    92    60    62   ar
    93   138   137    1
    94   137   134    1
    95   119   114   am
    96   134   135    1
    97    63    64   ar
    98    62    64   ar
    99   117   116    1
   100    87    86    1
   101   115   114    2
   102   110   109    1
   103   114   113    1
   104    86    88    1
   105    86    83    1
   106   111   109    1
   107   102   101    1
   108    95    94    1
   109    96    94    1
   110   135   136    2
   111   109   108    1
   112   108   105    1
   113   116   113    1
   114   116   118    1
   115   113   112    1
   116   112   106   am
   117   103   101    1
   118    82    83    1
   119    94    93    1
   120    83    84    1
   121   101    98    1
   122   105   106    1
   123   105   104    1
   124   106   107    2
   125    98    99    1
   126    98    97    1
   127   160   159   ar
   128   160   158   ar
   129    93    90    1
   130    84    85    2
   131    99   100    2
   132   159   157   ar
   133   158   156   ar
   134    90    91    1
   135    90    89    1
   136   146   144    1
   137   157   154   ar
   138    91    92    2
   139   156   154   ar
   140   156   155   ar
   141   145   144    1
   142   154   152   ar
   143   144   141    1
   144   155   153   ar
   145   141   140    1
   146   141   142    1
   147   152   153   ar
   148   152   151    1
   149   148   151    1
   150   148   149    1
   151   148   147    1
   152   142   143    2
   153   149   150    2
