@<TRIPOS>MOLECULE
tmp/5t75A00.pdb
 138 135 0 0 0
SMALL
GASTEIGER

@<TRIPOS>ATOM
      1  N          8.5240    7.1260   11.3210 N.3    89  GLN89      -0.1245
      2  CA         8.8130    5.9670   10.4780 C.3    89  GLN89       0.1566
      3  C          8.5610    4.6830   11.2340 C.2    89  GLN89       0.2260
      4  O          8.5200    4.7020   12.4650 O.2    89  GLN89      -0.2867
      5  CB        10.2640    5.9840    9.9870 C.3    89  GLN89       0.0367
      6  CG        11.3100    6.0550   11.0920 C.3    89  GLN89       0.0905
      7  CD        12.0840    4.7650   11.3200 C.2    89  GLN89       0.2608
      8  OE1       11.5410    3.6770   11.2350 O.2    89  GLN89      -0.2717
      9  NE2       13.3580    4.8960   11.6560 N.am   89  GLN89      -0.0878
     10  N          9.9980    0.3850   10.9760 N.3    91  HIS91      -0.1241
     11  CA        10.8840   -0.5890   10.3720 C.3    91  HIS91       0.1621
     12  C         10.8100   -1.8760   11.1780 C.2    91  HIS91       0.2264
     13  O         10.1580   -1.9080   12.2170 O.2    91  HIS91      -0.2867
     14  CB        12.3140   -0.0660   10.3640 C.3    91  HIS91       0.0745
     15  CG        12.8590    0.1820   11.7300 C.ar   91  HIS91       0.0817
     16  ND1       12.6880    1.3720   12.3910 N.ar   91  HIS91      -0.2268
     17  CD2       13.5350   -0.6280   12.5760 C.ar   91  HIS91       0.1154
     18  CE1       13.2450    1.2890   13.5900 C.ar   91  HIS91       0.1986
     19  NE2       13.7530    0.0780   13.7330 N.ar   91  HIS91      -0.2212
     20  N         13.1580   -5.6060   12.4940 N.3    93  HIS93      -0.1241
     21  CA        14.3630   -6.4060   12.6510 C.3    93  HIS93       0.1621
     22  C         13.9240   -7.8630   12.5430 C.2    93  HIS93       0.2264
     23  O         12.8570   -8.2150   13.0500 O.2    93  HIS93      -0.2867
     24  CB        15.0350   -6.1550   13.9950 C.3    93  HIS93       0.0745
     25  CG        15.3210   -4.7090   14.2700 C.ar   93  HIS93       0.0817
     26  ND1       16.5570   -4.1370   14.0680 N.ar   93  HIS93      -0.2268
     27  CD2       14.5100   -3.7110   14.6850 C.ar   93  HIS93       0.1154
     28  CE1       16.5030   -2.8530   14.3960 C.ar   93  HIS93       0.1986
     29  NE2       15.2620   -2.5660   14.7460 N.ar   93  HIS93      -0.2212
     30  N          9.1450   -1.8220   14.9160 N.3   116  HIS116     -0.1241
     31  CA         9.4290   -0.5910   15.6560 C.3   116  HIS116      0.1621
     32  C          8.7550    0.5880   14.9840 C.2   116  HIS116      0.2264
     33  O          9.1130    0.9430   13.8610 O.2   116  HIS116     -0.2867
     34  CB        10.9460   -0.3480   15.7240 C.3   116  HIS116      0.0745
     35  CG        11.6500   -1.3000   16.6400 C.ar  116  HIS116      0.0817
     36  ND1       13.0160   -1.5240   16.6190 N.ar  116  HIS116     -0.2268
     37  CD2       11.1480   -2.1370   17.5780 C.ar  116  HIS116      0.1154
     38  CE1       13.3140   -2.4310   17.5290 C.ar  116  HIS116      0.1986
     39  NE2       12.2020   -2.8220   18.1140 N.ar  116  HIS116     -0.2212
     40  N          8.4580    4.4140   15.3010 N.3   118  VAL118     -0.1245
     41  CA         9.3170    5.4200   15.9050 C.3   118  VAL118      0.1561
     42  C          8.6050    6.7730   15.9310 C.2   118  VAL118      0.2260
     43  O          8.1330    7.2470   14.8820 O.2   118  VAL118     -0.2867
     44  CB        10.6320    5.5440   15.1150 C.3   118  VAL118      0.0252
     45  CG1       11.5740    6.5460   15.7790 C.3   118  VAL118      0.0019
     46  CG2       11.2960    4.1750   14.9300 C.3   118  VAL118      0.0019
     47  N         12.7160   15.8220   14.7980 N.3   127  PHE127     -0.1241
     48  CA        13.3690   14.5770   15.1680 C.3   127  PHE127      0.1605
     49  C         14.8370   14.7820   15.5290 C.2   127  PHE127      0.2264
     50  O         15.3230   14.1980   16.4910 O.2   127  PHE127     -0.2867
     51  CB        13.2360   13.5460   14.0430 C.3   127  PHE127      0.0534
     52  CG        13.9220   12.2530   14.3380 C.ar  127  PHE127     -0.0203
     53  CD1       13.2630   11.2510   15.0260 C.ar  127  PHE127     -0.0042
     54  CD2       15.2410   12.0440   13.9490 C.ar  127  PHE127     -0.0042
     55  CE1       13.8910   10.0600   15.3220 C.ar  127  PHE127     -0.0003
     56  CE2       15.8820   10.8490   14.2450 C.ar  127  PHE127     -0.0003
     57  CZ        15.1990    9.8520   14.9270 C.ar  127  PHE127     -0.0000
     58  N         15.9940   13.4370   19.2100 N.3   131  VAL131     -0.1231
     59  CA        16.8450   12.2470   19.4010 C.3   131  VAL131      0.1692
     60  C         18.0440   12.4850   20.3530 C.2   131  VAL131      0.2591
     61  O         18.6700   11.5260   20.8160 O.2   131  VAL131     -0.2718
     62  CB        17.2980   11.6650   18.0310 C.3   131  VAL131      0.0266
     63  CG1       18.3990   12.5230   17.4000 C.3   131  VAL131      0.0020
     64  CG2       17.7490   10.2180   18.1720 C.3   131  VAL131      0.0020
     65  N         18.3410   13.7560   20.6610 N.am  132  GLN132     -0.1979
     66  CA        19.3990   14.1140   21.6080 C.3   132  GLN132      0.1601
     67  C         18.9010   14.3640   23.0480 C.2   132  GLN132      0.2287
     68  O         19.6810   14.8150   23.9040 O.2   132  GLN132     -0.2864
     69  CB        20.1350   15.3570   21.0870 C.3   132  GLN132      0.0394
     70  CG        20.7200   15.2120   19.6810 C.3   132  GLN132      0.0908
     71  CD        21.8970   14.2420   19.5950 C.2   132  GLN132      0.2608
     72  OE1       22.5250   13.9050   20.6010 O.2   132  GLN132     -0.2717
     73  NE2       22.2110   13.8030   18.3740 N.am  132  GLN132     -0.0878
     74  N          9.3530    4.5760   21.1500 N.3   139  VAL139     -0.1245
     75  CA         9.2840    3.5230   20.1540 C.3   139  VAL139      0.1561
     76  C          8.3080    2.4720   20.6390 C.2   139  VAL139      0.2260
     77  O          8.4420    1.9360   21.7510 O.2   139  VAL139     -0.2867
     78  CB        10.6490    2.8930   19.7960 C.3   139  VAL139      0.0252
     79  CG1       10.4800    1.8970   18.6480 C.3   139  VAL139      0.0019
     80  CG2       11.6270    3.9710   19.3750 C.3   139  VAL139      0.0019
     81  N         18.2530    3.9660   21.3070 N.3   194  LEU194     -0.1231
     82  CA        18.2480    3.4420   19.9430 C.3   194  LEU194      0.1693
     83  C         18.9900    2.0960   19.9760 C.2   194  LEU194      0.2593
     84  O         19.9880    1.9640   20.6910 O.2   194  LEU194     -0.2718
     85  CB        18.9690    4.3780   18.9850 C.3   194  LEU194      0.0284
     86  CG        18.5400    5.8300   18.8810 C.3   194  LEU194      0.0019
     87  CD1       19.4200    6.5770   17.8880 C.3   194  LEU194      0.0001
     88  CD2       17.0740    5.9240   18.5010 C.3   194  LEU194      0.0001
     89  N         18.5160    1.1180   19.2050 N.am  195  THR195     -0.1939
     90  CA        19.1730   -0.2040   19.1610 C.3   195  THR195      0.2028
     91  C         20.2130   -0.3230   18.0500 C.2   195  THR195      0.2643
     92  O         20.7880   -1.3880   17.8770 O.2   195  THR195     -0.2714
     93  CB        18.1730   -1.3510   18.9820 C.3   195  THR195      0.1808
     94  OG1       17.5810   -1.2680   17.6790 O.3   195  THR195     -0.2208
     95  CG2       17.0920   -1.3360   20.0640 C.3   195  THR195      0.0379
     96  N         20.4050    0.7380   17.2700 N.am  196  THR196     -0.1937
     97  CA        21.5150    0.8250   16.3180 C.3   196  THR196      0.2013
     98  C         22.3160    2.0620   16.6220 C.2   196  THR196      0.2484
     99  O         21.7940    3.0110   17.2250 O.2   196  THR196     -0.2729
    100  CB        21.0290    0.9630   14.8590 C.3   196  THR196      0.1807
    101  OG1       20.3600    2.2230   14.6620 O.3   196  THR196     -0.2208
    102  CG2       20.1220   -0.1690   14.4700 C.3   196  THR196      0.0379
    103  N         23.5740    2.0860   16.1680 N.am  197  PRO197     -0.2715
    104  CA        24.3100    3.3460   16.1890 C.3   197  PRO197      0.1521
    105  C         23.4470    4.4870   15.6160 C.2   197  PRO197      0.2440
    106  O         22.7540    4.2820   14.6010 O.2   197  PRO197     -0.2731
    107  CB        25.5350    3.0320   15.3380 C.3   197  PRO197      0.0310
    108  CG        25.7470    1.5660   15.5360 C.3   197  PRO197      0.0237
    109  CD        24.3620    0.9920   15.5650 C.3   197  PRO197      0.0939
    110  N         23.4540    5.6680   16.2400 N.am  198  PRO198     -0.2727
    111  CA        24.3880    6.0830   17.3040 C.3   198  PRO198      0.1402
    112  C         24.0440    5.6850   18.7600 C.2   198  PRO198      0.2269
    113  O         24.6930    6.1730   19.7000 O.2   198  PRO198     -0.2865
    114  CB        24.3930    7.6040   17.1420 C.3   198  PRO198      0.0296
    115  CG        23.0210    7.9250   16.6500 C.3   198  PRO198      0.0237
    116  CD        22.6630    6.8050   15.7270 C.3   198  PRO198      0.0939
    117  N         21.7750    6.3300   20.9140 N.3   200  LEU200     -0.1245
    118  CA        21.4790    7.4390   21.8130 C.3   200  LEU200      0.1561
    119  C         20.4250    7.0510   22.8440 C.2   200  LEU200      0.2260
    120  O         19.4550    6.3700   22.5290 O.2   200  LEU200     -0.2867
    121  CB        21.0410    8.6810   21.0300 C.3   200  LEU200      0.0270
    122  CG        22.1330    9.2660   20.1160 C.3   200  LEU200      0.0019
    123  CD1       21.5280   10.2890   19.1680 C.3   200  LEU200      0.0001
    124  CD2       23.2650    9.8970   20.9130 C.3   200  LEU200      0.0001
    125  N         10.7080    3.1020   25.7120 N.3   205  TRP205     -0.1241
    126  CA        10.2820    1.8910   25.0290 C.3   205  TRP205      0.1605
    127  C          8.9210    1.4680   25.5520 C.2   205  TRP205      0.2264
    128  O          8.6870    1.4450   26.7500 O.2   205  TRP205     -0.2867
    129  CB        11.3060    0.7450   25.1970 C.3   205  TRP205      0.0550
    130  CG        12.4030    0.8700   24.2200 C.ar  205  TRP205      0.0003
    131  CD1       13.6180    1.4510   24.4190 C.ar  205  TRP205      0.0946
    132  CD2       12.3680    0.4650   22.8500 C.ar  205  TRP205      0.0152
    133  NE1       14.3430    1.4310   23.2620 N.ar  205  TRP205     -0.2442
    134  CE2       13.6170    0.8070   22.2840 C.ar  205  TRP205      0.0810
    135  CE3       11.4180   -0.1840   22.0480 C.ar  205  TRP205      0.0012
    136  CZ2       13.9200    0.5570   20.9470 C.ar  205  TRP205      0.0191
    137  CZ3       11.7240   -0.4470   20.7400 C.ar  205  TRP205      0.0001
    138  CH2       12.9570   -0.0740   20.1940 C.ar  205  TRP205      0.0015
@<TRIPOS>BOND
     1     5     2    1
     2     5     6    1
     3    14    11    1
     4    14    15    1
     5    11    10    1
     6    11    12    1
     7     2     3    1
     8     2     1    1
     9     6     7    1
    10    12    13    2
    11     3     4    2
    12     8     7    2
    13     7     9   am
    14    15    16   ar
    15    15    17   ar
    16    16    18   ar
    17    20    21    1
    18    22    21    1
    19    22    23    2
    20    17    19   ar
    21    21    24    1
    22    18    19   ar
    23    33    32    2
    24    54    56   ar
    25    54    52   ar
    26    24    25    1
    27    51    52    1
    28    51    48    1
    29    26    25   ar
    30    26    28   ar
    31    56    57   ar
    32    25    27   ar
    33    52    53   ar
    34    28    29   ar
    35   102   100    1
    36   106   105    2
    37   101   100    1
    38    27    29   ar
    39    47    48    1
    40   100    97    1
    41    43    42    2
    42    30    31    1
    43    57    55   ar
    44    46    44    1
    45    32    31    1
    46    53    55   ar
    47    44    45    1
    48    44    41    1
    49    48    49    1
    50    40    41    1
    51   107   108    1
    52   107   104    1
    53    49    50    2
    54   108   109    1
    55   109   103    1
    56   105   104    1
    57   105   110   am
    58    31    34    1
    59    34    35    1
    60   116   110    1
    61   116   115    1
    62    41    42    1
    63   103   104    1
    64   103    98   am
    65   110   111    1
    66    97    98    1
    67    97    96    1
    68    36    35   ar
    69    36    38   ar
    70    98    99    2
    71    35    37   ar
    72   115   114    1
    73   114   111    1
    74    96    91   am
    75   111   112    1
    76    63    62    1
    77    38    39   ar
    78    37    39   ar
    79    94    93    1
    80    92    91    2
    81    87    86    1
    82    62    64    1
    83    62    59    1
    84    91    90    1
    85    73    71   am
    86    88    86    1
    87    79    78    1
    88   112   113    2
    89    86    85    1
    90    93    90    1
    91    93    95    1
    92    85    82    1
    93    90    89    1
    94   123   122    1
    95    89    83   am
    96    58    59    1
    97    80    78    1
    98    59    60    1
    99    71    70    1
   100    71    72    2
   101    70    69    1
   102    78    75    1
   103    82    83    1
   104    82    81    1
   105    83    84    2
   106   122   124    1
   107   122   121    1
   108    75    76    1
   109    75    74    1
   110   138   137   ar
   111   138   136   ar
   112    60    65   am
   113    60    61    2
   114    76    77    2
   115    65    66    1
   116   137   135   ar
   117   117   118    1
   118   136   134   ar
   119   121   118    1
   120    69    66    1
   121    66    67    1
   122   118   119    1
   123   135   132   ar
   124   134   132   ar
   125   134   133   ar
   126   120   119    2
   127   132   130   ar
   128    67    68    2
   129   133   131   ar
   130   130   131   ar
   131   130   129    1
   132   126   129    1
   133   126   127    1
   134   126   125    1
   135   127   128    2
