@<TRIPOS>MOLECULE
tmp/5t77A03.pdb
 81 74 0 0 0
SMALL
GASTEIGER

@<TRIPOS>ATOM
      1  N        160.2120   44.9310  149.0330 N.3   161  THR161     -0.1218
      2  CA       160.2860   45.8490  147.9000 C.3   161  THR161      0.1862
      3  C        159.3120   47.0100  148.0670 C.2   161  THR161      0.2287
      4  O        159.6220   48.1440  147.6870 O.2   161  THR161     -0.2866
      5  CB       160.0290   45.1000  146.5880 C.3   161  THR161      0.1770
      6  OG1      158.7540   44.4460  146.6280 O.3   161  THR161     -0.2211
      7  CG2      161.1200   44.0680  146.3480 C.3   161  THR161      0.0375
      8  N        161.0030   49.3330  150.5310 N.3   164  ILE164     -0.1231
      9  CA       162.0160   50.1350  149.8510 C.3   164  ILE164      0.1692
     10  C        161.3560   51.2460  149.0420 C.2   164  ILE164      0.2592
     11  O        161.8010   52.4000  149.0640 O.2   164  ILE164     -0.2718
     12  CB       162.9020   49.2310  148.9730 C.3   164  ILE164      0.0266
     13  CG1      163.7940   48.3560  149.8580 C.3   164  ILE164      0.0019
     14  CG2      163.7600   50.0560  148.0170 C.3   164  ILE164      0.0020
     15  CD1      164.4560   47.2050  149.1240 C.3   164  ILE164      0.0001
     16  N        160.2820   50.9180  148.3230 N.am  165  GLY165     -0.1957
     17  CA       159.5600   51.9400  147.5840 C.3   165  GLY165      0.1869
     18  C        158.9820   53.0110  148.4890 C.2   165  GLY165      0.2309
     19  O        158.9540   54.1930  148.1340 O.2   165  GLY165     -0.2863
     20  N        161.6030   55.4780  149.3170 N.3   168  LEU168     -0.1245
     21  CA       161.9060   56.3530  148.1930 C.3   168  LEU168      0.1561
     22  C        160.7630   57.3030  147.8570 C.2   168  LEU168      0.2260
     23  O        160.9260   58.1530  146.9740 O.2   168  LEU168     -0.2867
     24  CB       162.2650   55.5060  146.9670 C.3   168  LEU168      0.0270
     25  CG       163.5700   54.7130  147.0920 C.3   168  LEU168      0.0019
     26  CD1      163.6740   53.6590  146.0050 C.3   168  LEU168      0.0001
     27  CD2      164.7740   55.6440  147.0400 C.3   168  LEU168      0.0001
     28  N        159.5120   60.4930  144.9940 N.3   172  TYR172     -0.1241
     29  CA       158.5930   60.2120  143.9000 C.3   172  TYR172      0.1605
     30  C        157.1260   60.2010  144.3030 C.2   172  TYR172      0.2264
     31  O        156.2650   60.3160  143.4260 O.2   172  TYR172     -0.2867
     32  CB       158.9280   58.8540  143.2640 C.3   172  TYR172      0.0534
     33  CG       160.3500   58.7560  142.7630 C.ar  172  TYR172     -0.0201
     34  CD1      160.7550   59.4410  141.6270 C.ar  172  TYR172     -0.0009
     35  CD2      161.2880   57.9780  143.4260 C.ar  172  TYR172     -0.0009
     36  CE1      162.0550   59.3590  141.1680 C.ar  172  TYR172      0.0417
     37  CE2      162.5920   57.8900  142.9730 C.ar  172  TYR172      0.0417
     38  CZ       162.9690   58.5800  141.8440 C.ar  172  TYR172      0.1957
     39  OH       164.2650   58.4930  141.3910 O.3   172  TYR172     -0.2866
     40  N        153.7770   56.6120  143.8430 N.3   175  ILE175     -0.1231
     41  CA       154.0870   55.6970  142.7550 C.3   175  ILE175      0.1692
     42  C        155.2380   54.7850  143.1450 C.2   175  ILE175      0.2592
     43  O        155.3700   53.6880  142.5940 O.2   175  ILE175     -0.2718
     44  CB       154.4070   56.4690  141.4570 C.3   175  ILE175      0.0266
     45  CG1      154.4910   55.5080  140.2650 C.3   175  ILE175      0.0019
     46  CG2      155.7040   57.2490  141.6010 C.3   175  ILE175      0.0020
     47  CD1      154.4970   56.2060  138.9150 C.3   175  ILE175      0.0001
     48  N        156.0640   55.2160  144.1040 N.am  176  SER176     -0.1952
     49  CA       157.2440   54.4320  144.4750 C.3   176  SER176      0.1924
     50  C        156.8600   53.1190  145.1390 C.2   176  SER176      0.2314
     51  O        157.3480   52.0610  144.6970 O.2   176  SER176     -0.2863
     52  CB       158.1620   55.2800  145.3600 C.3   176  SER176      0.2116
     53  OG       159.4540   54.7110  145.4550 O.3   176  SER176     -0.2180
     54  N        155.3320   50.8420  142.3920 N.3   179  ILE179     -0.1231
     55  CA       156.3760   50.1460  141.6470 C.3   179  ILE179      0.1692
     56  C        156.9780   49.0380  142.5000 C.2   179  ILE179      0.2592
     57  O        157.2820   47.9460  142.0030 O.2   179  ILE179     -0.2718
     58  CB       157.4410   51.1550  141.1740 C.3   179  ILE179      0.0266
     59  CG1      156.8470   52.0690  140.0990 C.3   179  ILE179      0.0019
     60  CG2      158.6780   50.4410  140.6360 C.3   179  ILE179      0.0020
     61  CD1      157.7280   53.2470  139.7220 C.3   179  ILE179      0.0001
     62  N        157.1550   49.2960  143.7970 N.am  180  GLY180     -0.1957
     63  CA       157.6470   48.2560  144.6870 C.3   180  GLY180      0.1869
     64  C        156.7390   47.0410  144.7210 C.2   180  GLY180      0.2309
     65  O        157.2070   45.9040  144.8110 O.2   180  GLY180     -0.2863
     66  N        157.4310   45.1510  141.3690 N.3   183  ILE183     -0.1245
     67  CA       158.7270   44.4850  141.4380 C.3   183  ILE183      0.1561
     68  C        158.6760   43.3400  142.4400 C.2   183  ILE183      0.2260
     69  O        159.2910   42.2860  142.2330 O.2   183  ILE183     -0.2867
     70  CB       159.8300   45.5060  141.7780 C.3   183  ILE183      0.0252
     71  CG1      160.0230   46.4610  140.5920 C.3   183  ILE183      0.0019
     72  CG2      161.1410   44.7980  142.1290 C.3   183  ILE183      0.0019
     73  CD1      161.0610   47.5430  140.8070 C.3   183  ILE183      0.0001
     74  N        159.8730   39.5220  141.6300 N.3   187  LEU187     -0.1245
     75  CA       160.9290   38.8270  142.3590 C.3   187  LEU187      0.1561
     76  C        160.3890   37.6310  143.1340 C.2   187  LEU187      0.2260
     77  O        161.1080   36.6440  143.3200 O.2   187  LEU187     -0.2867
     78  CB       161.6470   39.7970  143.2990 C.3   187  LEU187      0.0270
     79  CG       162.4170   40.9380  142.6270 C.3   187  LEU187      0.0019
     80  CD1      163.0840   41.8170  143.6740 C.3   187  LEU187      0.0001
     81  CD2      163.4550   40.4100  141.6350 C.3   187  LEU187      0.0001
@<TRIPOS>BOND
     1    47    45    1
     2    61    59    1
     3    59    58    1
     4    45    44    1
     5    71    73    1
     6    71    70    1
     7    60    58    1
     8    36    34   ar
     9    36    38   ar
    10    58    55    1
    11    66    67    1
    12    39    38    1
    13    67    70    1
    14    67    68    1
    15    44    46    1
    16    44    41    1
    17    34    33   ar
    18    74    75    1
    19    81    79    1
    20    55    54    1
    21    55    56    1
    22    70    72    1
    23    38    37   ar
    24    57    56    2
    25    69    68    2
    26    75    76    1
    27    75    78    1
    28    56    62   am
    29    43    42    2
    30    79    78    1
    31    79    80    1
    32    41    42    1
    33    41    40    1
    34    33    32    1
    35    33    35   ar
    36    37    35   ar
    37    76    77    2
    38    42    48   am
    39    32    29    1
    40    31    30    2
    41    62    63    1
    42    29    30    1
    43    29    28    1
    44    48    49    1
    45    49    50    1
    46    49    52    1
    47    63    64    1
    48    51    50    2
    49    64    65    2
    50    52    53    1
    51    26    25    1
    52     7     5    1
    53     5     6    1
    54     5     2    1
    55    24    25    1
    56    24    21    1
    57    23    22    2
    58    27    25    1
    59    17    16    1
    60    17    18    1
    61     4     3    2
    62    22    21    1
    63     2     3    1
    64     2     1    1
    65    14    12    1
    66    19    18    2
    67    21    20    1
    68    16    10   am
    69    12     9    1
    70    12    13    1
    71    10    11    2
    72    10     9    1
    73    15    13    1
    74     9     8    1
