@<TRIPOS>MOLECULE
tmp/5t77A25.pdb
 99 92 0 0 0
SMALL
GASTEIGER

@<TRIPOS>ATOM
      1  N        137.3880   20.6510  174.2950 N.3   286  ASP286     -0.1239
      2  CA       138.7840   20.9370  174.6080 C.3   286  ASP286      0.1674
      3  C        139.2980   22.0960  173.7650 C.2   286  ASP286      0.2266
      4  O        139.9350   23.0230  174.2800 O.2   286  ASP286     -0.2867
      5  CB       139.6320   19.6830  174.3820 C.3   286  ASP286      0.1410
      6  CG       141.0080   19.7850  175.0100 C.2   286  ASP286      0.3668
      7  OD1      141.2800   20.7900  175.6990 O.co2 286  ASP286     -0.2456
      8  OD2      141.8130   18.8470  174.8280 O.co2 286  ASP286     -0.2456
      9  N        137.6570   25.4880  174.8220 N.3   289  LYS289     -0.1231
     10  CA       138.2510   26.0540  176.0300 C.3   289  LYS289      0.1693
     11  C        139.5600   26.7640  175.7090 C.2   289  LYS289      0.2592
     12  O        139.8230   27.8580  176.2220 O.2   289  LYS289     -0.2718
     13  CB       138.4880   24.9640  177.0770 C.3   289  LYS289      0.0285
     14  CG       137.2390   24.2750  177.5890 C.3   289  LYS289      0.0035
     15  CD       137.6000   23.2420  178.6430 C.3   289  LYS289      0.0206
     16  CE       136.4280   22.3350  178.9630 C.3   289  LYS289      0.1093
     17  NZ       136.7400   21.4130  180.0850 N.3   289  LYS289     -0.1314
     18  N        140.3950   26.1540  174.8640 N.am  290  THR290     -0.1953
     19  CA       141.6520   26.7840  174.4720 C.3   290  THR290      0.1897
     20  C        141.4030   28.1230  173.7870 C.2   290  THR290      0.2313
     21  O        142.0240   29.1350  174.1310 O.2   290  THR290     -0.2863
     22  CB       142.4440   25.8490  173.5530 C.3   290  THR290      0.1794
     23  OG1      142.8310   24.6770  174.2800 O.3   290  THR290     -0.2208
     24  CG2      143.6970   26.5380  173.0080 C.3   290  THR290      0.0378
     25  N        140.3050   30.6780  176.2230 N.3   293  PHE293     -0.1241
     26  CA       141.3790   31.0200  177.1480 C.3   293  PHE293      0.1605
     27  C        142.2360   32.1600  176.6230 C.2   293  PHE293      0.2264
     28  O        142.7330   32.9750  177.4100 O.2   293  PHE293     -0.2867
     29  CB       142.2540   29.7950  177.4120 C.3   293  PHE293      0.0534
     30  CG       143.3700   30.0460  178.3830 C.ar  293  PHE293     -0.0203
     31  CD1      143.1400   30.0010  179.7490 C.ar  293  PHE293     -0.0042
     32  CD2      144.6500   30.3260  177.9320 C.ar  293  PHE293     -0.0042
     33  CE1      144.1640   30.2270  180.6480 C.ar  293  PHE293     -0.0003
     34  CE2      145.6790   30.5580  178.8250 C.ar  293  PHE293     -0.0003
     35  CZ       145.4340   30.5060  180.1860 C.ar  293  PHE293     -0.0000
     36  N        133.9390   26.7680  181.9910 N.3   413  ASP413     -0.1239
     37  CA       135.2520   27.3440  181.7140 C.3   413  ASP413      0.1674
     38  C        135.1310   28.7370  181.1100 C.2   413  ASP413      0.2266
     39  O        135.9650   29.6080  181.3810 O.2   413  ASP413     -0.2867
     40  CB       136.0450   26.4220  180.7900 C.3   413  ASP413      0.1410
     41  CG       136.4270   25.1200  181.4640 C.2   413  ASP413      0.3668
     42  OD1      137.4200   25.1080  182.2240 O.co2 413  ASP413     -0.2456
     43  OD2      135.7300   24.1080  181.2410 O.co2 413  ASP413     -0.2456
     44  N        137.1310   31.7910  182.7140 N.3   417  ILE417     -0.1245
     45  CA       138.0270   32.6050  181.8980 C.3   417  ILE417      0.1561
     46  C        137.5750   34.0600  181.9030 C.2   417  ILE417      0.2260
     47  O        138.3980   34.9830  181.9470 O.2   417  ILE417     -0.2867
     48  CB       138.1010   32.0370  180.4670 C.3   417  ILE417      0.0252
     49  CG1      138.8680   30.7110  180.4650 C.3   417  ILE417      0.0019
     50  CG2      138.7690   33.0280  179.5130 C.3   417  ILE417      0.0019
     51  CD1      138.6380   29.8640  179.2260 C.3   417  ILE417      0.0001
     52  N        147.4850   34.9770  184.3750 N.3   452  LEU452     -0.1245
     53  CA       148.0270   33.6370  184.5700 C.3   452  LEU452      0.1561
     54  C        148.0250   33.2500  186.0440 C.2   452  LEU452      0.2260
     55  O        147.8120   32.0800  186.3820 O.2   452  LEU452     -0.2867
     56  CB       149.4390   33.5500  183.9880 C.3   452  LEU452      0.0270
     57  CG       149.5610   33.6590  182.4630 C.3   452  LEU452      0.0019
     58  CD1      151.0240   33.6740  182.0470 C.3   452  LEU452      0.0001
     59  CD2      148.8280   32.5200  181.7630 C.3   452  LEU452      0.0001
     60  N        144.4710   32.4110  186.6580 N.3   455  SER455     -0.1202
     61  CA       144.2390   31.1710  185.9250 C.3   455  SER455      0.2020
     62  C        144.7620   29.9740  186.7090 C.2   455  SER455      0.2619
     63  O        144.1190   28.9190  186.7480 O.2   455  SER455     -0.2717
     64  CB       144.9020   31.2380  184.5490 C.3   455  SER455      0.2103
     65  OG       144.2670   32.1930  183.7160 O.3   455  SER455     -0.2182
     66  N        145.9260   30.1220  187.3470 N.am  456  SER456     -0.1951
     67  CA       146.5050   29.0130  188.0980 C.3   456  SER456      0.1924
     68  C        145.7350   28.7410  189.3840 C.2   456  SER456      0.2314
     69  O        145.7430   27.6090  189.8810 O.2   456  SER456     -0.2863
     70  CB       147.9750   29.2990  188.4070 C.3   456  SER456      0.2116
     71  OG       148.1080   30.3560  189.3420 O.3   456  SER456     -0.2180
     72  N        142.5480   26.8790  188.1220 N.3   459  TYR459     -0.1241
     73  CA       142.8910   25.6160  187.4810 C.3   459  TYR459      0.1605
     74  C        144.0150   24.9040  188.2250 C.2   459  TYR459      0.2264
     75  O        144.7990   24.1670  187.6250 O.2   459  TYR459     -0.2867
     76  CB       143.2650   25.8430  186.0170 C.3   459  TYR459      0.0534
     77  CG       142.0990   26.3050  185.1720 C.ar  459  TYR459     -0.0201
     78  CD1      141.0600   25.4370  184.8600 C.ar  459  TYR459     -0.0009
     79  CD2      142.0320   27.6070  184.6910 C.ar  459  TYR459     -0.0009
     80  CE1      139.9880   25.8480  184.0930 C.ar  459  TYR459      0.0417
     81  CE2      140.9620   28.0300  183.9200 C.ar  459  TYR459      0.0417
     82  CZ       139.9440   27.1460  183.6240 C.ar  459  TYR459      0.1957
     83  OH       138.8770   27.5560  182.8600 O.3   459  TYR459     -0.2866
     84  N        143.8700   21.1610  187.8430 N.3   462  LEU462     -0.1231
     85  CA       144.2240   20.7410  186.4910 C.3   462  LEU462      0.1693
     86  C        145.7230   20.8630  186.2500 C.2   462  LEU462      0.2591
     87  O        146.3140   20.0340  185.5480 O.2   462  LEU462     -0.2718
     88  CB       143.4450   21.5670  185.4660 C.3   462  LEU462      0.0284
     89  CG       143.2400   21.0440  184.0590 C.3   462  LEU462      0.0019
     90  CD1      142.4180   19.7620  184.0410 C.3   462  LEU462      0.0001
     91  CD2      142.5520   22.1210  183.2170 C.3   462  LEU462      0.0001
     92  N        146.3560   21.8900  186.8210 N.am  463  ILE463     -0.1980
     93  CA       147.7970   22.0540  186.6640 C.3   463  ILE463      0.1595
     94  C        148.5380   20.9060  187.3380 C.2   463  ILE463      0.2287
     95  O        149.5690   20.4370  186.8400 O.2   463  ILE463     -0.2864
     96  CB       148.2410   23.4210  187.2200 C.3   463  ILE463      0.0276
     97  CG1      147.6630   24.5520  186.3650 C.3   463  ILE463      0.0022
     98  CG2      149.7660   23.5210  187.2650 C.3   463  ILE463      0.0022
     99  CD1      147.8480   25.9330  186.9600 C.3   463  ILE463      0.0001
@<TRIPOS>BOND
     1    24    22    1
     2    22    23    1
     3    22    19    1
     4     3     4    2
     5     3     2    1
     6    20    21    2
     7    20    19    1
     8     1     2    1
     9     5     2    1
    10     5     6    1
    11    19    18    1
    12     9    10    1
    13     8     6   ar
    14    18    11   am
    15     6     7   ar
    16    11    10    1
    17    11    12    2
    18    10    13    1
    19    25    26    1
    20    27    26    1
    21    27    28    2
    22    13    14    1
    23    26    29    1
    24    29    30    1
    25    14    15    1
    26    32    30   ar
    27    32    34   ar
    28    30    31   ar
    29    15    16    1
    30    34    35   ar
    31    16    17    1
    32    51    49    1
    33    50    48    1
    34    31    33   ar
    35    35    33   ar
    36    49    48    1
    37    48    45    1
    38    40    41    1
    39    40    37    1
    40    38    39    2
    41    38    37    1
    42    43    41   ar
    43    41    42   ar
    44    37    36    1
    45    59    57    1
    46    45    46    1
    47    45    44    1
    48    46    47    2
    49    58    57    1
    50    57    56    1
    51    83    82    1
    52    91    89    1
    53    82    81   ar
    54    82    80   ar
    55    65    64    1
    56    81    79   ar
    57    56    53    1
    58    90    89    1
    59    89    88    1
    60    80    78   ar
    61    52    53    1
    62    64    61    1
    63    53    54    1
    64    79    77   ar
    65    78    77   ar
    66    77    76    1
    67    88    85    1
    68    87    86    2
    69    61    60    1
    70    61    62    1
    71    76    73    1
    72    54    55    2
    73    86    85    1
    74    86    92   am
    75    97    99    1
    76    97    96    1
    77    85    84    1
    78    93    92    1
    79    93    96    1
    80    93    94    1
    81    62    63    2
    82    62    66   am
    83    95    94    2
    84    96    98    1
    85    66    67    1
    86    73    72    1
    87    73    74    1
    88    75    74    2
    89    67    70    1
    90    67    68    1
    91    70    71    1
    92    68    69    2
