@<TRIPOS>MOLECULE
tmp/5t77A21.pdb
 166 161 0 0 0
SMALL
GASTEIGER

@<TRIPOS>ATOM
      1  N        151.8660   21.5480  131.6180 N.3    77  LEU77      -0.1231
      2  CA       152.3100   22.8090  132.1970 C.3    77  LEU77       0.1693
      3  C        152.2960   23.9230  131.1580 C.2    77  LEU77       0.2592
      4  O        151.8460   25.0390  131.4390 O.2    77  LEU77      -0.2718
      5  CB       153.7110   22.6560  132.7880 C.3    77  LEU77       0.0284
      6  CG       154.3250   23.9440  133.3360 C.3    77  LEU77       0.0019
      7  CD1      153.4480   24.5300  134.4380 C.3    77  LEU77       0.0001
      8  CD2      155.7340   23.6950  133.8390 C.3    77  LEU77       0.0001
      9  N        152.7960   23.6400  129.9520 N.am   78  SER78      -0.1952
     10  CA       152.7840   24.6430  128.8940 C.3    78  SER78       0.1924
     11  C        151.3600   25.0530  128.5420 C.2    78  SER78       0.2314
     12  O        151.0860   26.2380  128.3190 O.2    78  SER78      -0.2863
     13  CB       153.5140   24.1130  127.6630 C.3    78  SER78       0.2116
     14  OG       154.9140   24.2400  127.8200 O.3    78  SER78      -0.2180
     15  N        150.2160   27.5490  131.2700 N.3    81  ILE81      -0.1245
     16  CA       150.8730   28.8490  131.1740 C.3    81  ILE81       0.1561
     17  C        150.4160   29.5870  129.9210 C.2    81  ILE81       0.2260
     18  O        150.0840   30.7770  129.9710 O.2    81  ILE81      -0.2867
     19  CB       152.4030   28.6790  131.2110 C.3    81  ILE81       0.0252
     20  CG1      152.8380   28.2130  132.6040 C.3    81  ILE81       0.0019
     21  CG2      153.1070   29.9900  130.8480 C.3    81  ILE81       0.0019
     22  CD1      154.2810   27.7690  132.6920 C.3    81  ILE81       0.0001
     23  N        148.4200   33.0400  130.1030 N.3    85  SER85      -0.1217
     24  CA       149.0980   34.1760  129.4900 C.3    85  SER85       0.1889
     25  C        148.1800   34.8850  128.5040 C.2    85  SER85       0.2288
     26  O        148.1470   36.1200  128.4510 O.2    85  SER85      -0.2866
     27  CB       150.3750   33.7120  128.7930 C.3    85  SER85       0.2089
     28  OG       151.3120   33.2060  129.7250 O.3    85  SER85      -0.2183
     29  N        145.2760   36.6020  130.5570 N.3    88  ILE88      -0.1231
     30  CA       145.7680   37.7170  131.3610 C.3    88  ILE88       0.1692
     31  C        146.1800   38.8820  130.4700 C.2    88  ILE88       0.2591
     32  O        145.8720   40.0420  130.7660 O.2    88  ILE88      -0.2718
     33  CB       146.9230   37.2510  132.2650 C.3    88  ILE88       0.0266
     34  CG1      146.4050   36.2400  133.2910 C.3    88  ILE88       0.0019
     35  CG2      147.5680   38.4390  132.9780 C.3    88  ILE88       0.0020
     36  CD1      147.4940   35.5020  134.0320 C.3    88  ILE88       0.0001
     37  N        146.8830   38.6000  129.3710 N.am   89  LEU89      -0.1980
     38  CA       147.2660   39.6680  128.4520 C.3    89  LEU89       0.1596
     39  C        146.0400   40.4220  127.9550 C.2    89  LEU89       0.2287
     40  O        146.0420   41.6570  127.8910 O.2    89  LEU89      -0.2864
     41  CB       148.0590   39.0960  127.2760 C.3    89  LEU89       0.0297
     42  CG       148.4730   40.1000  126.1920 C.3    89  LEU89       0.0022
     43  CD1      149.3670   41.1870  126.7710 C.3    89  LEU89       0.0001
     44  CD2      149.1720   39.3950  125.0430 C.3    89  LEU89       0.0001
     45  N        144.8160   42.6230  130.8690 N.3    92  VAL92      -0.1245
     46  CA       145.6830   43.7560  131.1820 C.3    92  VAL92       0.1561
     47  C        145.5290   44.8450  130.1270 C.2    92  VAL92       0.2260
     48  O        145.5580   46.0400  130.4430 O.2    92  VAL92      -0.2867
     49  CB       147.1500   43.3060  131.3190 C.3    92  VAL92       0.0252
     50  CG1      148.0610   44.5170  131.5400 C.3    92  VAL92       0.0019
     51  CG2      147.3050   42.3300  132.4740 C.3    92  VAL92       0.0019
     52  N        149.9370   44.4970  135.5710 N.3   127  PRO127     -0.2116
     53  CA       150.8200   43.4160  135.1030 C.3   127  PRO127      0.1372
     54  C        151.2620   42.4610  136.2000 C.2   127  PRO127      0.2244
     55  O        151.6700   41.3380  135.8830 O.2   127  PRO127     -0.2868
     56  CB       152.0170   44.1700  134.5080 C.3   127  PRO127      0.0268
     57  CG       151.4950   45.5320  134.1820 C.3   127  PRO127      0.0207
     58  CD       150.4540   45.8290  135.2130 C.3   127  PRO127      0.0892
     59  N        150.0020   38.7550  136.1560 N.3   130  TYR130     -0.1227
     60  CA       150.6680   37.7180  135.3770 C.3   130  TYR130      0.1736
     61  C        151.7310   37.0080  136.2060 C.2   130  TYR130      0.2595
     62  O        151.8580   35.7790  136.1490 O.2   130  TYR130     -0.2718
     63  CB       151.2780   38.3420  134.1230 C.3   130  TYR130      0.0548
     64  CG       152.0620   37.3830  133.2580 C.ar  130  TYR130     -0.0200
     65  CD1      151.4250   36.3660  132.5610 C.ar  130  TYR130     -0.0009
     66  CD2      153.4360   37.5100  133.1210 C.ar  130  TYR130     -0.0009
     67  CE1      152.1400   35.4920  131.7620 C.ar  130  TYR130      0.0417
     68  CE2      154.1570   36.6450  132.3240 C.ar  130  TYR130      0.0417
     69  CZ       153.5050   35.6380  131.6470 C.ar  130  TYR130      0.1957
     70  OH       154.2250   34.7760  130.8530 O.3   130  TYR130     -0.2866
     71  N        152.4910   37.7650  137.0010 N.am  131  PHE131     -0.1976
     72  CA       153.5460   37.1700  137.8120 C.3   131  PHE131      0.1639
     73  C        152.9890   36.4720  139.0440 C.2   131  PHE131      0.2290
     74  O        153.6310   35.5590  139.5780 O.2   131  PHE131     -0.2864
     75  CB       154.5560   38.2450  138.2060 C.3   131  PHE131      0.0560
     76  CG       155.2740   38.8420  137.0340 C.ar  131  PHE131     -0.0200
     77  CD1      156.3480   38.1860  136.4610 C.ar  131  PHE131     -0.0042
     78  CD2      154.8640   40.0510  136.4930 C.ar  131  PHE131     -0.0042
     79  CE1      157.0090   38.7240  135.3750 C.ar  131  PHE131     -0.0003
     80  CE2      155.5220   40.5970  135.4050 C.ar  131  PHE131     -0.0003
     81  CZ       156.5960   39.9320  134.8450 C.ar  131  PHE131     -0.0000
     82  N        151.9200   33.0120  137.6240 N.3   134  LEU134     -0.1245
     83  CA       153.1130   32.1880  137.4570 C.3   134  LEU134      0.1561
     84  C        153.6570   31.7410  138.8070 C.2   134  LEU134      0.2260
     85  O        154.0390   30.5770  138.9800 O.2   134  LEU134     -0.2867
     86  CB       154.1850   32.9570  136.6830 C.3   134  LEU134      0.0270
     87  CG       153.8820   33.3140  135.2260 C.3   134  LEU134      0.0019
     88  CD1      154.9900   34.1890  134.6630 C.3   134  LEU134      0.0001
     89  CD2      153.7200   32.0660  134.3810 C.3   134  LEU134      0.0001
     90  N        158.1350   35.6440  141.9390 N.3   189  PHE189     -0.1227
     91  CA       158.1380   34.6100  140.9110 C.3   189  PHE189      0.1736
     92  C        159.5540   34.1360  140.6100 C.2   189  PHE189      0.2595
     93  O        159.8130   32.9290  140.5310 O.2   189  PHE189     -0.2718
     94  CB       157.4700   35.1260  139.6400 C.3   189  PHE189      0.0547
     95  CG       157.7130   34.2530  138.4470 C.ar  189  PHE189     -0.0202
     96  CD1      157.4400   32.8960  138.5080 C.ar  189  PHE189     -0.0042
     97  CD2      158.2320   34.7790  137.2740 C.ar  189  PHE189     -0.0042
     98  CE1      157.6720   32.0810  137.4230 C.ar  189  PHE189     -0.0003
     99  CE2      158.4640   33.9660  136.1810 C.ar  189  PHE189     -0.0003
    100  CZ       158.1830   32.6160  136.2550 C.ar  189  PHE189     -0.0000
    101  N        160.4870   35.0750  140.4220 N.am  190  PHE190     -0.1976
    102  CA       161.8600   34.6930  140.1050 C.3   190  PHE190      0.1639
    103  C        162.4770   33.8480  141.2110 C.2   190  PHE190      0.2290
    104  O        163.3690   33.0360  140.9440 O.2   190  PHE190     -0.2864
    105  CB       162.7210   35.9350  139.8600 C.3   190  PHE190      0.0560
    106  CG       162.4180   36.6570  138.5690 C.ar  190  PHE190     -0.0200
    107  CD1      161.4460   36.1970  137.6920 C.ar  190  PHE190     -0.0042
    108  CD2      163.1230   37.8020  138.2310 C.ar  190  PHE190     -0.0042
    109  CE1      161.1830   36.8690  136.5100 C.ar  190  PHE190     -0.0003
    110  CE2      162.8630   38.4760  137.0520 C.ar  190  PHE190     -0.0003
    111  CZ       161.8930   38.0080  136.1910 C.ar  190  PHE190     -0.0000
    112  N        161.4080   30.3870  140.1080 N.3   193  ILE193     -0.1245
    113  CA       161.2090   30.2060  138.6720 C.3   193  ILE193      0.1561
    114  C        161.6870   28.8330  138.2140 C.2   193  ILE193      0.2260
    115  O        161.1540   28.2770  137.2460 O.2   193  ILE193     -0.2867
    116  CB       161.9230   31.3250  137.8930 C.3   193  ILE193      0.0252
    117  CG1      161.5720   31.2500  136.4050 C.3   193  ILE193      0.0019
    118  CG2      163.4350   31.2250  138.0830 C.3   193  ILE193      0.0019
    119  CD1      162.0610   32.4360  135.6000 C.3   193  ILE193      0.0001
    120  N        159.3970   26.0130  137.1330 N.3   196  ILE196     -0.1231
    121  CA       158.7490   26.0950  135.8270 C.3   196  ILE196      0.1692
    122  C        159.7460   25.8700  134.6960 C.2   196  ILE196      0.2591
    123  O        159.5130   25.0520  133.8020 O.2   196  ILE196     -0.2718
    124  CB       158.0200   27.4500  135.6790 C.3   196  ILE196      0.0266
    125  CG1      156.8010   27.4890  136.6100 C.3   196  ILE196      0.0019
    126  CG2      157.5990   27.6870  134.2270 C.3   196  ILE196      0.0020
    127  CD1      155.9680   28.7600  136.5190 C.3   196  ILE196      0.0001
    128  N        160.8790   26.5800  134.7060 N.am  197  ILE197     -0.1980
    129  CA       161.7710   26.5550  133.5470 C.3   197  ILE197      0.1595
    130  C        162.6000   25.2860  133.4530 C.2   197  ILE197      0.2287
    131  O        163.3100   25.1020  132.4560 O.2   197  ILE197     -0.2864
    132  CB       162.7200   27.7700  133.5260 C.3   197  ILE197      0.0276
    133  CG1      163.5960   27.8060  134.7820 C.3   197  ILE197      0.0022
    134  CG2      161.9110   29.0490  133.3750 C.3   197  ILE197      0.0022
    135  CD1      164.6350   28.9160  134.7760 C.3   197  ILE197      0.0001
    136  N        161.1040   22.6740  132.9250 N.3   199  HIS199     -0.1226
    137  CA       160.2980   21.9850  131.9290 C.3   199  HIS199      0.1752
    138  C        160.5790   22.5320  130.5370 C.2   199  HIS199      0.2596
    139  O        160.8180   23.7280  130.3530 O.2   199  HIS199     -0.2718
    140  CB       158.8050   22.1430  132.2200 C.3   199  HIS199      0.0759
    141  CG       158.3820   21.5870  133.5390 C.ar  199  HIS199      0.0818
    142  ND1      158.5440   22.2750  134.7230 N.ar  199  HIS199     -0.2268
    143  CD2      157.7950   20.4120  133.8620 C.ar  199  HIS199      0.1154
    144  CE1      158.0770   21.5440  135.7190 C.ar  199  HIS199      0.1986
    145  NE2      157.6190   20.4090  135.2230 N.ar  199  HIS199     -0.2212
    146  N        160.5230   21.6410  129.5530 N.am  200  LYS200     -0.1966
    147  CA       160.5780   22.0560  128.1600 C.3   200  LYS200      0.1728
    148  C        159.3050   22.8050  127.7850 C.2   200  LYS200      0.2616
    149  O        158.2000   22.4160  128.1740 O.2   200  LYS200     -0.2715
    150  CB       160.7510   20.8360  127.2580 C.3   200  LYS200      0.0311
    151  CG       160.8740   21.1680  125.7850 C.3   200  LYS200      0.0038
    152  CD       161.2160   19.9310  124.9750 C.3   200  LYS200      0.0206
    153  CE       161.6900   20.2980  123.5800 C.3   200  LYS200      0.1093
    154  NZ       160.7230   21.1830  122.8650 N.3   200  LYS200     -0.1314
    155  N        159.4630   23.8850  127.0230 N.am  201  TYR201     -0.1974
    156  CA       158.3150   24.6550  126.5670 C.3   201  TYR201      0.1639
    157  C        157.7000   24.0220  125.3260 C.2   201  TYR201      0.2290
    158  O        158.4060   23.5930  124.4090 O.2   201  TYR201     -0.2864
    159  CB       158.7080   26.1010  126.2620 C.3   201  TYR201      0.0560
    160  CG       157.5610   26.9020  125.6840 C.ar  201  TYR201     -0.0198
    161  CD1      156.5830   27.4460  126.5080 C.ar  201  TYR201     -0.0009
    162  CD2      157.4430   27.0960  124.3130 C.ar  201  TYR201     -0.0009
    163  CE1      155.5270   28.1690  125.9840 C.ar  201  TYR201      0.0417
    164  CE2      156.3910   27.8160  123.7800 C.ar  201  TYR201      0.0417
    165  CZ       155.4350   28.3490  124.6210 C.ar  201  TYR201      0.1957
    166  OH       154.3830   29.0660  124.0950 O.3   201  TYR201     -0.2866
@<TRIPOS>BOND
     1   154   153    1
     2   153   152    1
     3   164   162   ar
     4   164   165   ar
     5   166   165    1
     6   162   160   ar
     7   158   157    2
     8   165   163   ar
     9   152   151    1
    10    44    42    1
    11   157   156    1
    12   160   159    1
    13   160   161   ar
    14   151   150    1
    15   163   161   ar
    16    42    43    1
    17    42    41    1
    18   159   156    1
    19   156   155    1
    20   155   148   am
    21   150   147    1
    22    41    38    1
    23    13    14    1
    24    13    10    1
    25   148   147    1
    26   148   149    2
    27    40    39    2
    28    39    38    1
    29   147   146    1
    30    12    11    2
    31    26    25    2
    32    38    37    1
    33    25    24    1
    34    11    10    1
    35    27    24    1
    36    27    28    1
    37    10     9    1
    38    37    31   am
    39    24    23    1
    40   146   138   am
    41    17    18    2
    42    17    16    1
    43     9     3   am
    44    47    48    2
    45    47    46    1
    46   139   138    2
    47    31    32    2
    48    31    30    1
    49   138   137    1
    50    29    30    1
    51    21    19    1
    52    70    69    1
    53    45    46    1
    54     3     4    2
    55     3     2    1
    56    16    19    1
    57    16    15    1
    58    46    49    1
    59    19    20    1
    60    49    50    1
    61    49    51    1
    62    30    33    1
    63     1     2    1
    64    69    67   ar
    65    69    68   ar
    66    67    65   ar
    67   137   140    1
    68   137   136    1
    69     2     5    1
    70   140   141    1
    71    33    35    1
    72    33    34    1
    73    68    66   ar
    74   131   130    2
    75    65    64   ar
    76    20    22    1
    77     5     6    1
    78    66    64   ar
    79    64    63    1
    80    34    36    1
    81     6     8    1
    82     6     7    1
    83   134   132    1
    84   130   129    1
    85   132   129    1
    86   132   133    1
    87   141   143   ar
    88   141   142   ar
    89   129   128    1
    90   123   122    2
    91   143   145   ar
    92    63    60    1
    93    57    56    1
    94    57    58    1
    95   126   124    1
    96    89    87    1
    97    56    53    1
    98    88    87    1
    99   122   128   am
   100   122   121    1
   101   142   144   ar
   102   135   133    1
   103    81    79   ar
   104    81    80   ar
   105    53    52    1
   106    53    54    1
   107    58    52    1
   108   145   144   ar
   109    87    86    1
   110    79    77   ar
   111    60    59    1
   112    60    61    1
   113    80    78   ar
   114   119   117    1
   115   124   121    1
   116   124   125    1
   117   121   120    1
   118    55    54    2
   119    62    61    2
   120    99   100   ar
   121    99    97   ar
   122   111   109   ar
   123   111   110   ar
   124    61    71   am
   125   100    98   ar
   126   117   116    1
   127    77    76   ar
   128    78    76   ar
   129   109   107   ar
   130   127   125    1
   131    86    83    1
   132    71    72    1
   133    76    75    1
   134   110   108   ar
   135   115   114    2
   136    97    95   ar
   137    98    96   ar
   138    83    82    1
   139    83    84    1
   140   107   106   ar
   141    72    75    1
   142    72    73    1
   143   116   118    1
   144   116   113    1
   145   114   113    1
   146   108   106   ar
   147    95    96   ar
   148    95    94    1
   149   106   105    1
   150   113   112    1
   151    84    85    2
   152    73    74    2
   153    94    91    1
   154   105   102    1
   155   102   101    1
   156   102   103    1
   157   101    92   am
   158    93    92    2
   159    92    91    1
   160    91    90    1
   161   104   103    2
