@<TRIPOS>MOLECULE
tmp/5t77A26.pdb
 131 126 0 0 0
SMALL
GASTEIGER

@<TRIPOS>ATOM
      1  N        145.2740   34.1850  168.0050 N.3   261  PHE261     -0.1241
      2  CA       144.3700   33.7520  169.0650 C.3   261  PHE261      0.1605
      3  C        143.0730   33.1460  168.5510 C.2   261  PHE261      0.2264
      4  O        142.5510   32.2100  169.1640 O.2   261  PHE261     -0.2867
      5  CB       144.0420   34.9350  169.9800 C.3   261  PHE261      0.0534
      6  CG       145.2440   35.5250  170.6620 C.ar  261  PHE261     -0.0203
      7  CD1      146.1620   34.7100  171.3080 C.ar  261  PHE261     -0.0042
      8  CD2      145.4620   36.8930  170.6510 C.ar  261  PHE261     -0.0042
      9  CE1      147.2710   35.2500  171.9390 C.ar  261  PHE261     -0.0003
     10  CE2      146.5680   37.4380  171.2770 C.ar  261  PHE261     -0.0003
     11  CZ       147.4730   36.6140  171.9230 C.ar  261  PHE261     -0.0000
     12  N        140.3050   30.6780  176.2230 N.3   293  PHE293     -0.1227
     13  CA       141.3790   31.0200  177.1480 C.3   293  PHE293      0.1736
     14  C        142.2360   32.1600  176.6230 C.2   293  PHE293      0.2595
     15  O        142.7330   32.9750  177.4100 O.2   293  PHE293     -0.2718
     16  CB       142.2540   29.7950  177.4120 C.3   293  PHE293      0.0547
     17  CG       143.3700   30.0460  178.3830 C.ar  293  PHE293     -0.0202
     18  CD1      143.1400   30.0010  179.7490 C.ar  293  PHE293     -0.0042
     19  CD2      144.6500   30.3260  177.9320 C.ar  293  PHE293     -0.0042
     20  CE1      144.1640   30.2270  180.6480 C.ar  293  PHE293     -0.0003
     21  CE2      145.6790   30.5580  178.8250 C.ar  293  PHE293     -0.0003
     22  CZ       145.4340   30.5060  180.1860 C.ar  293  PHE293     -0.0000
     23  N        142.4200   32.2390  175.3060 N.am  294  PHE294     -0.1976
     24  CA       143.2620   33.2620  174.7020 C.3   294  PHE294      0.1639
     25  C        142.4820   34.4600  174.1760 C.2   294  PHE294      0.2290
     26  O        142.9340   35.5960  174.3380 O.2   294  PHE294     -0.2864
     27  CB       144.0820   32.6590  173.5590 C.3   294  PHE294      0.0560
     28  CG       145.2030   31.7740  174.0210 C.ar  294  PHE294     -0.0200
     29  CD1      146.4190   32.3200  174.3990 C.ar  294  PHE294     -0.0042
     30  CD2      145.0440   30.4000  174.0780 C.ar  294  PHE294     -0.0042
     31  CE1      147.4540   31.5110  174.8260 C.ar  294  PHE294     -0.0003
     32  CE2      146.0760   29.5850  174.5040 C.ar  294  PHE294     -0.0003
     33  CZ       147.2830   30.1410  174.8790 C.ar  294  PHE294     -0.0000
     34  N        140.7300   37.2000  177.2060 N.3   297  PRO297     -0.2102
     35  CA       141.6370   38.2030  177.7900 C.3   297  PRO297      0.1504
     36  C        142.2600   39.1080  176.7440 C.2   297  PRO297      0.2576
     37  O        142.4730   40.2990  177.0010 O.2   297  PRO297     -0.2718
     38  CB       142.6870   37.3470  178.5100 C.3   297  PRO297      0.0282
     39  CG       142.6700   36.0530  177.7790 C.3   297  PRO297      0.0208
     40  CD       141.2270   35.8300  177.4450 C.3   297  PRO297      0.0893
     41  N        142.5570   38.5680  175.5610 N.am  298  SER298     -0.1953
     42  CA       143.1220   39.3790  174.4900 C.3   298  SER298      0.1924
     43  C        142.1440   40.4590  174.0520 C.2   298  SER298      0.2314
     44  O        142.5290   41.6150  173.8490 O.2   298  SER298     -0.2863
     45  CB       143.5020   38.4840  173.3090 C.3   298  SER298      0.2116
     46  OG       144.6620   37.7330  173.6120 O.3   298  SER298     -0.2180
     47  N        142.0780   43.1360  176.8510 N.3   301  GLY301     -0.1210
     48  CA       143.3010   43.9220  176.8700 C.3   301  GLY301      0.1956
     49  C        143.4430   44.8110  175.6500 C.2   301  GLY301      0.2611
     50  O        143.8200   45.9810  175.7620 O.2   301  GLY301     -0.2717
     51  N        143.1410   44.2690  174.4690 N.am  302  LEU302     -0.1979
     52  CA       143.2730   45.0320  173.2310 C.3   302  LEU302      0.1596
     53  C        142.3480   46.2420  173.2180 C.2   302  LEU302      0.2287
     54  O        142.7460   47.3390  172.8080 O.2   302  LEU302     -0.2864
     55  CB       142.9750   44.1340  172.0350 C.3   302  LEU302      0.0297
     56  CG       144.1670   43.4350  171.3930 C.3   302  LEU302      0.0022
     57  CD1      143.6730   42.3340  170.4760 C.3   302  LEU302      0.0001
     58  CD2      145.0070   44.4460  170.6250 C.3   302  LEU302      0.0001
     59  N        143.4600   48.9580  175.7280 N.3   305  LEU305     -0.1245
     60  CA       144.7070   49.6080  175.3460 C.3   305  LEU305      0.1561
     61  C        144.7770   49.9400  173.8590 C.2   305  LEU305      0.2260
     62  O        145.8770   50.1430  173.3320 O.2   305  LEU305     -0.2867
     63  CB       145.8970   48.7260  175.7230 C.3   305  LEU305      0.0270
     64  CG       146.0380   48.3020  177.1850 C.3   305  LEU305      0.0019
     65  CD1      147.1890   47.3190  177.3190 C.3   305  LEU305      0.0001
     66  CD2      146.2530   49.4980  178.0990 C.3   305  LEU305      0.0001
     67  N        141.8060   40.6910  185.5810 N.3   424  MET424     -0.1245
     68  CA       142.9150   41.2950  184.8520 C.3   424  MET424      0.1570
     69  C        142.5860   42.7270  184.4520 C.2   424  MET424      0.2261
     70  O        143.4290   43.6240  184.5670 O.2   424  MET424     -0.2867
     71  CB       143.2340   40.4590  183.6140 C.3   424  MET424      0.0387
     72  CG       144.3790   40.9970  182.7700 C.3   424  MET424      0.0595
     73  SD       144.4110   40.3250  181.0950 S.3   424  MET424     -0.1393
     74  CE       142.8980   41.0010  180.4080 C.3   424  MET424      0.0692
     75  N        144.7480   46.2190  185.4200 N.3   428  ILE428     -0.1245
     76  CA       145.3480   47.1180  184.4340 C.3   428  ILE428      0.1561
     77  C        144.7420   48.5090  184.5630 C.2   428  ILE428      0.2260
     78  O        145.4350   49.5230  184.4130 O.2   428  ILE428     -0.2867
     79  CB       145.1990   46.5640  183.0020 C.3   428  ILE428      0.0252
     80  CG1      143.7270   46.4530  182.5950 C.3   428  ILE428      0.0019
     81  CG2      145.9080   45.2220  182.8760 C.3   428  ILE428      0.0019
     82  CD1      143.5160   46.0460  181.1440 C.3   428  ILE428      0.0001
     83  N        151.7160   47.4790  181.1340 N.3   443  GLN443     -0.1231
     84  CA       150.3670   47.0440  181.4730 C.3   443  GLN443      0.1698
     85  C        150.0400   45.7110  180.8190 C.2   443  GLN443      0.2592
     86  O        149.3030   44.9000  181.3940 O.2   443  GLN443     -0.2718
     87  CB       149.3530   48.1050  181.0500 C.3   443  GLN443      0.0381
     88  CG       149.5350   49.4430  181.7440 C.3   443  GLN443      0.0905
     89  CD       148.5260   50.4740  181.2880 C.2   443  GLN443      0.2608
     90  OE1      148.6000   50.9750  180.1680 O.2   443  GLN443     -0.2717
     91  NE2      147.5720   50.7920  182.1550 N.am  443  GLN443     -0.0878
     92  N        150.5810   45.4660  179.6240 N.am  444  ILE444     -0.1980
     93  CA       150.3870   44.1760  178.9690 C.3   444  ILE444      0.1595
     94  C        151.0470   43.0750  179.7870 C.2   444  ILE444      0.2287
     95  O        150.4620   42.0110  180.0150 O.2   444  ILE444     -0.2864
     96  CB       150.9270   44.2210  177.5280 C.3   444  ILE444      0.0276
     97  CG1      150.0240   45.1080  176.6660 C.3   444  ILE444      0.0022
     98  CG2      151.0250   42.8160  176.9350 C.3   444  ILE444      0.0022
     99  CD1      150.5210   45.3270  175.2510 C.3   444  ILE444      0.0001
    100  N        149.0510   42.6550  182.9290 N.3   447  GLY447     -0.1210
    101  CA       147.8180   41.9570  182.6010 C.3   447  GLY447      0.1956
    102  C        148.0280   40.4700  182.3870 C.2   447  GLY447      0.2611
    103  O        147.2430   39.6470  182.8640 O.2   447  GLY447     -0.2717
    104  N        149.0890   40.1030  181.6660 N.am  448  ILE448     -0.1979
    105  CA       149.3830   38.6890  181.4430 C.3   448  ILE448      0.1595
    106  C        149.6700   37.9950  182.7690 C.2   448  ILE448      0.2287
    107  O        149.1530   36.9060  183.0450 O.2   448  ILE448     -0.2864
    108  CB       150.5540   38.5310  180.4550 C.3   448  ILE448      0.0276
    109  CG1      150.1290   39.0000  179.0580 C.3   448  ILE448      0.0022
    110  CG2      151.0360   37.0790  180.4150 C.3   448  ILE448      0.0022
    111  CD1      151.2150   38.9000  177.9990 C.3   448  ILE448      0.0001
    112  N        146.5340   37.6110  184.8310 N.3   451  TYR451     -0.1227
    113  CA       145.6680   36.6060  184.2240 C.3   451  TYR451      0.1736
    114  C        146.1740   35.1950  184.4950 C.2   451  TYR451      0.2595
    115  O        145.3850   34.2960  184.8080 O.2   451  TYR451     -0.2718
    116  CB       145.5550   36.8500  182.7200 C.3   451  TYR451      0.0548
    117  CG       144.6330   35.8760  182.0290 C.ar  451  TYR451     -0.0200
    118  CD1      143.2650   35.9160  182.2490 C.ar  451  TYR451     -0.0009
    119  CD2      145.1310   34.9130  181.1580 C.ar  451  TYR451     -0.0009
    120  CE1      142.4140   35.0280  181.6220 C.ar  451  TYR451      0.0417
    121  CE2      144.2880   34.0190  180.5250 C.ar  451  TYR451      0.0417
    122  CZ       142.9310   34.0800  180.7620 C.ar  451  TYR451      0.1957
    123  OH       142.0880   33.1960  180.1360 O.3   451  TYR451     -0.2866
    124  N        147.4850   34.9770  184.3750 N.am  452  LEU452     -0.1980
    125  CA       148.0270   33.6370  184.5700 C.3   452  LEU452      0.1596
    126  C        148.0250   33.2500  186.0440 C.2   452  LEU452      0.2287
    127  O        147.8120   32.0800  186.3820 O.2   452  LEU452     -0.2864
    128  CB       149.4390   33.5500  183.9880 C.3   452  LEU452      0.0297
    129  CG       149.5610   33.6590  182.4630 C.3   452  LEU452      0.0022
    130  CD1      151.0240   33.6740  182.0470 C.3   452  LEU452      0.0001
    131  CD2      148.8280   32.5200  181.7630 C.3   452  LEU452      0.0001
@<TRIPOS>BOND
     1     1     2    1
     2     3     2    1
     3     3     4    2
     4     2     5    1
     5     5     6    1
     6    57    56    1
     7    58    56    1
     8     8     6   ar
     9     8    10   ar
    10     6     7   ar
    11    10    11   ar
    12     7     9   ar
    13    56    55    1
    14    11     9   ar
    15    55    52    1
    16    54    53    2
    17    53    52    1
    18    52    51    1
    19    45    46    1
    20    45    42    1
    21    62    61    2
    22    27    28    1
    23    27    24    1
    24    44    43    2
    25    61    60    1
    26    28    30   ar
    27    28    29   ar
    28    43    42    1
    29    30    32   ar
    30    25    26    2
    31    25    24    1
    32    29    31   ar
    33    51    49   am
    34    42    41    1
    35    32    33   ar
    36    24    23    1
    37    31    33   ar
    38    99    97    1
    39    23    14   am
    40    60    63    1
    41    60    59    1
    42    41    36   am
    43    49    50    2
    44    49    48    1
    45    63    64    1
    46    12    13    1
    47    14    13    1
    48    14    15    2
    49    97    96    1
    50    36    37    2
    51    36    35    1
    52    47    48    1
    53    98    96    1
    54    13    16    1
    55    64    65    1
    56    64    66    1
    57    34    40    1
    58    34    35    1
    59    16    17    1
    60    40    39    1
    61    96    93    1
    62    39    38    1
    63    35    38    1
    64    19    17   ar
    65    19    21   ar
    66   111   109    1
    67    17    18   ar
    68    21    22   ar
    69    93    92    1
    70    93    94    1
    71   109   108    1
    72    92    85   am
    73    18    20   ar
    74    94    95    2
    75   123   122    1
    76    90    89    2
    77    22    20   ar
    78    74    73    1
    79   110   108    1
    80   108   105    1
    81   121   122   ar
    82   121   119   ar
    83   122   120   ar
    84    85    86    2
    85    85    84    1
    86    87    84    1
    87    87    88    1
    88    73    72    1
    89    83    84    1
    90    82    80    1
    91   119   117   ar
    92    89    88    1
    93    89    91   am
    94   105   104    1
    95   105   106    1
    96   120   118   ar
    97   104   102   am
    98   131   129    1
    99   117   118   ar
   100   117   116    1
   101   130   129    1
   102   102   101    1
   103   102   103    2
   104   129   128    1
   105    80    79    1
   106   101   100    1
   107   116   113    1
   108   106   107    2
   109    72    71    1
   110    81    79    1
   111    79    76    1
   112    71    68    1
   113   128   125    1
   114   113   114    1
   115   113   112    1
   116   124   114   am
   117   124   125    1
   118    78    77    2
   119    76    77    1
   120    76    75    1
   121    69    70    2
   122    69    68    1
   123   114   115    2
   124   125   126    1
   125    68    67    1
   126   126   127    2
