@<TRIPOS>MOLECULE
tmp/5t77A17.pdb
 100 97 0 0 0
SMALL
GASTEIGER

@<TRIPOS>ATOM
      1  N        132.8210   15.2430  170.6280 N.3   281  ASN281     -0.1225
      2  CA       132.3310   16.2200  171.5950 C.3   281  ASN281      0.1785
      3  C        133.4090   16.5940  172.6050 C.2   281  ASN281      0.2597
      4  O        133.5880   17.7750  172.9210 O.2   281  ASN281     -0.2718
      5  CB       131.0970   15.6820  172.3150 C.3   281  ASN281      0.1169
      6  CG       130.6330   16.5990  173.4340 C.2   281  ASN281      0.2627
      7  OD1      131.0640   16.4690  174.5820 O.2   281  ASN281     -0.2716
      8  ND2      129.7540   17.5350  173.1020 N.am  281  ASN281     -0.0877
      9  N        134.1360   15.6060  173.1270 N.am  282  TYR282     -0.1976
     10  CA       135.1920   15.9100  174.0850 C.3   282  TYR282      0.1639
     11  C        136.2540   16.8060  173.4600 C.2   282  TYR282      0.2290
     12  O        136.6440   17.8260  174.0390 O.2   282  TYR282     -0.2864
     13  CB       135.8280   14.6210  174.6080 C.3   282  TYR282      0.0560
     14  CG       136.9720   14.8810  175.5600 C.ar  282  TYR282     -0.0198
     15  CD1      136.7450   15.0140  176.9220 C.ar  282  TYR282     -0.0009
     16  CD2      138.2750   15.0190  175.0940 C.ar  282  TYR282     -0.0009
     17  CE1      137.7810   15.2610  177.7960 C.ar  282  TYR282      0.0417
     18  CE2      139.3190   15.2710  175.9600 C.ar  282  TYR282      0.0417
     19  CZ       139.0660   15.3900  177.3130 C.ar  282  TYR282      0.1957
     20  OH       140.1000   15.6360  178.1900 O.3   282  TYR282     -0.2866
     21  N        135.0370   20.4560  172.7720 N.3   285  ASN285     -0.1225
     22  CA       135.0350   21.2360  174.0040 C.3   285  ASN285      0.1785
     23  C        136.4540   21.5950  174.4250 C.2   285  ASN285      0.2597
     24  O        136.7130   22.7200  174.8660 O.2   285  ASN285     -0.2718
     25  CB       134.3260   20.4660  175.1160 C.3   285  ASN285      0.1169
     26  CG       132.8400   20.7400  175.1550 C.2   285  ASN285      0.2627
     27  OD1      132.4030   21.7660  175.6800 O.2   285  ASN285     -0.2716
     28  ND2      132.0520   19.8230  174.6060 N.am  285  ASN285     -0.0877
     29  N        137.3880   20.6510  174.2950 N.am  286  ASP286     -0.1974
     30  CA       138.7840   20.9370  174.6080 C.3   286  ASP286      0.1709
     31  C        139.2980   22.0960  173.7650 C.2   286  ASP286      0.2293
     32  O        139.9350   23.0230  174.2800 O.2   286  ASP286     -0.2864
     33  CB       139.6320   19.6830  174.3820 C.3   286  ASP286      0.1436
     34  CG       141.0080   19.7850  175.0100 C.2   286  ASP286      0.3671
     35  OD1      141.2800   20.7900  175.6990 O.co2 286  ASP286     -0.2456
     36  OD2      141.8130   18.8470  174.8280 O.co2 286  ASP286     -0.2456
     37  N        137.6570   25.4880  174.8220 N.3   289  LYS289     -0.1245
     38  CA       138.2510   26.0540  176.0300 C.3   289  LYS289      0.1561
     39  C        139.5600   26.7640  175.7090 C.2   289  LYS289      0.2260
     40  O        139.8230   27.8580  176.2220 O.2   289  LYS289     -0.2867
     41  CB       138.4880   24.9640  177.0770 C.3   289  LYS289      0.0271
     42  CG       137.2390   24.2750  177.5890 C.3   289  LYS289      0.0035
     43  CD       137.6000   23.2420  178.6430 C.3   289  LYS289      0.0206
     44  CE       136.4280   22.3350  178.9630 C.3   289  LYS289      0.1093
     45  NZ       136.7400   21.4130  180.0850 N.3   289  LYS289     -0.1314
     46  N        128.9840   23.4170  174.4720 N.3   409  PHE409     -0.1228
     47  CA       129.8070   24.5800  174.7610 C.3   409  PHE409      0.1721
     48  C        130.2920   24.4880  176.2030 C.2   409  PHE409      0.2437
     49  O        129.5090   24.1460  177.0980 O.2   409  PHE409     -0.2733
     50  CB       129.0110   25.8650  174.5220 C.3   409  PHE409      0.0547
     51  CG       129.8210   27.1190  174.6680 C.ar  409  PHE409     -0.0202
     52  CD1      130.5650   27.6060  173.6060 C.ar  409  PHE409     -0.0042
     53  CD2      129.8270   27.8200  175.8610 C.ar  409  PHE409     -0.0042
     54  CE1      131.3090   28.7630  173.7370 C.ar  409  PHE409     -0.0003
     55  CE2      130.5700   28.9780  175.9960 C.ar  409  PHE409     -0.0003
     56  CZ       131.3110   29.4490  174.9320 C.ar  409  PHE409     -0.0000
     57  N        131.6370   24.7870  176.4870 N.am  410  PRO410     -0.2729
     58  CA       132.1540   24.6590  177.8660 C.3   410  PRO410      0.1401
     59  C        131.7950   25.8730  178.7220 C.2   410  PRO410      0.2269
     60  O        132.5720   26.8040  178.9290 O.2   410  PRO410     -0.2865
     61  CB       133.6610   24.5200  177.6440 C.3   410  PRO410      0.0296
     62  CG       133.9200   25.3380  176.4100 C.3   410  PRO410      0.0237
     63  CD       132.6780   25.2520  175.5530 C.3   410  PRO410      0.0939
     64  N        131.1370   26.3300  181.9850 N.3   412  LYS412     -0.1231
     65  CA       131.8470   26.5740  183.2380 C.3   412  LYS412      0.1693
     66  C        133.1930   27.2420  182.9890 C.2   412  LYS412      0.2592
     67  O        133.5650   28.1850  183.6960 O.2   412  LYS412     -0.2718
     68  CB       132.0360   25.2640  184.0010 C.3   412  LYS412      0.0285
     69  CG       132.7010   25.4310  185.3570 C.3   412  LYS412      0.0035
     70  CD       133.1410   24.0930  185.9040 C.3   412  LYS412      0.0206
     71  CE       133.9520   24.2230  187.2140 C.3   412  LYS412      0.1093
     72  NZ       133.1570   24.8780  188.2890 N.3   412  LYS412     -0.1314
     73  N        133.9390   26.7680  181.9910 N.am  413  ASP413     -0.1974
     74  CA       135.2520   27.3440  181.7140 C.3   413  ASP413      0.1709
     75  C        135.1310   28.7370  181.1100 C.2   413  ASP413      0.2293
     76  O        135.9650   29.6080  181.3810 O.2   413  ASP413     -0.2864
     77  CB       136.0450   26.4220  180.7900 C.3   413  ASP413      0.1436
     78  CG       136.4270   25.1200  181.4640 C.2   413  ASP413      0.3671
     79  OD1      137.4200   25.1080  182.2240 O.co2 413  ASP413     -0.2456
     80  OD2      135.7300   24.1080  181.2410 O.co2 413  ASP413     -0.2456
     81  N        142.5480   26.8790  188.1220 N.3   459  TYR459     -0.1241
     82  CA       142.8910   25.6160  187.4810 C.3   459  TYR459      0.1605
     83  C        144.0150   24.9040  188.2250 C.2   459  TYR459      0.2264
     84  O        144.7990   24.1670  187.6250 O.2   459  TYR459     -0.2867
     85  CB       143.2650   25.8430  186.0170 C.3   459  TYR459      0.0534
     86  CG       142.0990   26.3050  185.1720 C.ar  459  TYR459     -0.0201
     87  CD1      141.0600   25.4370  184.8600 C.ar  459  TYR459     -0.0009
     88  CD2      142.0320   27.6070  184.6910 C.ar  459  TYR459     -0.0009
     89  CE1      139.9880   25.8480  184.0930 C.ar  459  TYR459      0.0417
     90  CE2      140.9620   28.0300  183.9200 C.ar  459  TYR459      0.0417
     91  CZ       139.9440   27.1460  183.6240 C.ar  459  TYR459      0.1957
     92  OH       138.8770   27.5560  182.8600 O.3   459  TYR459     -0.2866
     93  N        143.8700   21.1610  187.8430 N.3   462  LEU462     -0.1245
     94  CA       144.2240   20.7410  186.4910 C.3   462  LEU462      0.1561
     95  C        145.7230   20.8630  186.2500 C.2   462  LEU462      0.2260
     96  O        146.3140   20.0340  185.5480 O.2   462  LEU462     -0.2867
     97  CB       143.4450   21.5670  185.4660 C.3   462  LEU462      0.0270
     98  CG       143.2400   21.0440  184.0590 C.3   462  LEU462      0.0019
     99  CD1      142.4180   19.7620  184.0410 C.3   462  LEU462      0.0001
    100  CD2      142.5520   22.1210  183.2170 C.3   462  LEU462      0.0001
@<TRIPOS>BOND
     1     1     2    1
     2     2     5    1
     3     2     3    1
     4     5     6    1
     5     3     4    2
     6     3     9   am
     7    21    22    1
     8     8     6   am
     9     9    10    1
    10     6     7    2
    11    11    12    2
    12    11    10    1
    13    52    54   ar
    14    52    51   ar
    15    54    56   ar
    16    31    32    2
    17    31    30    1
    18    22    23    1
    19    22    25    1
    20    10    13    1
    21    29    23   am
    22    29    30    1
    23    33    30    1
    24    33    34    1
    25    23    24    2
    26    46    47    1
    27    50    51    1
    28    50    47    1
    29    28    26   am
    30    13    14    1
    31    51    53   ar
    32    47    48    1
    33    37    38    1
    34    36    34   ar
    35    56    55   ar
    36    34    35   ar
    37    16    14   ar
    38    16    18   ar
    39    25    26    1
    40    26    27    2
    41    63    62    1
    42    63    57    1
    43    14    15   ar
    44    39    38    1
    45    39    40    2
    46    53    55   ar
    47    18    19   ar
    48    38    41    1
    49    48    57   am
    50    48    49    2
    51    62    61    1
    52    57    58    1
    53    15    17   ar
    54    41    42    1
    55    19    17   ar
    56    19    20    1
    57    42    43    1
    58    61    58    1
    59    58    59    1
    60    43    44    1
    61    59    60    2
    62    44    45    1
    63    77    78    1
    64    77    74    1
    65    75    76    2
    66    75    74    1
    67    80    78   ar
    68    78    79   ar
    69    74    73    1
    70    64    65    1
    71    73    66   am
    72    92    91    1
    73    66    65    1
    74    66    67    2
    75   100    98    1
    76    65    68    1
    77    91    90   ar
    78    91    89   ar
    79    90    88   ar
    80    68    69    1
    81    99    98    1
    82    98    97    1
    83    89    87   ar
    84    88    86   ar
    85    87    86   ar
    86    86    85    1
    87    69    70    1
    88    97    94    1
    89    96    95    2
    90    70    71    1
    91    85    82    1
    92    95    94    1
    93    94    93    1
    94    71    72    1
    95    82    81    1
    96    82    83    1
    97    84    83    2
