@<TRIPOS>MOLECULE
tmp/5t77A04.pdb
 106 100 0 0 0
SMALL
GASTEIGER

@<TRIPOS>ATOM
      1  N        157.1600   41.7740  159.5940 N.3    17  LEU17      -0.1245
      2  CA       157.5770   42.5350  158.4220 C.3    17  LEU17       0.1561
      3  C        156.3860   43.2200  157.7610 C.2    17  LEU17       0.2260
      4  O        156.4730   44.3870  157.3590 O.2    17  LEU17      -0.2867
      5  CB       158.2900   41.6070  157.4390 C.3    17  LEU17       0.0270
      6  CG       158.9650   42.2130  156.2090 C.3    17  LEU17       0.0019
      7  CD1      160.0420   43.2090  156.6060 C.3    17  LEU17       0.0001
      8  CD2      159.5570   41.0910  155.3610 C.3    17  LEU17       0.0001
      9  N        156.1150   23.0180  143.2230 N.3   142  LEU142     -0.1245
     10  CA       156.9390   22.7630  144.3980 C.3   142  LEU142      0.1561
     11  C        156.2020   21.8950  145.4060 C.2   142  LEU142      0.2260
     12  O        156.7990   21.0090  146.0270 O.2   142  LEU142     -0.2867
     13  CB       157.3590   24.0910  145.0270 C.3   142  LEU142      0.0270
     14  CG       158.4380   24.8390  144.2430 C.3   142  LEU142      0.0019
     15  CD1      158.4980   26.2940  144.6490 C.3   142  LEU142      0.0001
     16  CD2      159.7900   24.1740  144.4470 C.3   142  LEU142      0.0001
     17  N        157.8140   20.5160  148.7650 N.3   147  LYS147     -0.1245
     18  CA       158.5540   21.7090  149.1660 C.3   147  LYS147      0.1561
     19  C        157.5410   22.7320  149.6610 C.2   147  LYS147      0.2260
     20  O        156.7790   23.2860  148.8620 O.2   147  LYS147     -0.2867
     21  CB       159.3760   22.2730  148.0070 C.3   147  LYS147      0.0271
     22  CG       160.3290   21.2790  147.3610 C.3   147  LYS147      0.0035
     23  CD       161.4220   20.8300  148.3170 C.3   147  LYS147      0.0206
     24  CE       162.4520   19.9690  147.6010 C.3   147  LYS147      0.1093
     25  NZ       163.5660   19.5500  148.4950 N.3   147  LYS147     -0.1314
     26  N        160.0970   26.9990  152.2130 N.3   150  TRP150     -0.1228
     27  CA       160.6350   28.1760  151.5390 C.3   150  TRP150      0.1722
     28  C        159.6040   28.8690  150.6540 C.2   150  TRP150      0.2437
     29  O        159.5400   30.1050  150.6480 O.2   150  TRP150     -0.2733
     30  CB       161.8700   27.7880  150.7230 C.3   150  TRP150      0.0563
     31  CG       163.0720   27.5840  151.5860 C.ar  150  TRP150      0.0003
     32  CD1      163.7260   26.4110  151.8270 C.ar  150  TRP150      0.0946
     33  CD2      163.7550   28.5880  152.3430 C.ar  150  TRP150      0.0152
     34  NE1      164.7800   26.6260  152.6840 N.ar  150  TRP150     -0.2442
     35  CE2      164.8180   27.9550  153.0150 C.ar  150  TRP150      0.0810
     36  CE3      163.5700   29.9640  152.5160 C.ar  150  TRP150      0.0012
     37  CZ2      165.6950   28.6500  153.8450 C.ar  150  TRP150      0.0191
     38  CZ3      164.4400   30.6520  153.3390 C.ar  150  TRP150      0.0001
     39  CH2      165.4890   29.9950  153.9930 C.ar  150  TRP150      0.0015
     40  N        158.7930   28.1360  149.8870 N.am  151  PRO151     -0.2729
     41  CA       157.7640   28.8170  149.0820 C.3   151  PRO151      0.1401
     42  C        156.8120   29.6550  149.9140 C.2   151  PRO151      0.2269
     43  O        156.3340   30.6920  149.4380 O.2   151  PRO151     -0.2865
     44  CB       157.0380   27.6580  148.3850 C.3   151  PRO151      0.0296
     45  CG       158.0200   26.5430  148.3800 C.3   151  PRO151      0.0237
     46  CD       158.8310   26.6880  149.6230 C.3   151  PRO151      0.0939
     47  N        157.4750   31.5110  152.3980 N.3   153  LEU153     -0.1231
     48  CA       158.1000   32.7480  152.8430 C.3   153  LEU153      0.1693
     49  C        158.3260   33.7490  151.7170 C.2   153  LEU153      0.2592
     50  O        158.7550   34.8760  151.9910 O.2   153  LEU153     -0.2718
     51  CB       159.4410   32.4420  153.5170 C.3   153  LEU153      0.0284
     52  CG       159.3940   31.3940  154.6330 C.3   153  LEU153      0.0019
     53  CD1      160.7760   31.1920  155.2320 C.3   153  LEU153      0.0001
     54  CD2      158.3890   31.7800  155.7110 C.3   153  LEU153      0.0001
     55  N        158.0410   33.3770  150.4700 N.am  154  THR154     -0.1953
     56  CA       158.3080   34.2810  149.3580 C.3   154  THR154      0.1897
     57  C        157.4800   35.5630  149.3960 C.2   154  THR154      0.2313
     58  O        157.9720   36.5820  148.8820 O.2   154  THR154     -0.2863
     59  CB       158.0920   33.5440  148.0240 C.3   154  THR154      0.1794
     60  OG1      156.7440   33.0720  147.9330 O.3   154  THR154     -0.2208
     61  CG2      159.0420   32.3660  147.9030 C.3   154  THR154      0.0378
     62  N        157.2810   37.5730  151.6760 N.3   156  SER156     -0.1202
     63  CA       158.1190   38.5610  152.3480 C.3   156  SER156      0.2020
     64  C        158.9450   39.3630  151.3510 C.2   156  SER156      0.2618
     65  O        159.2870   40.5200  151.6180 O.2   156  SER156     -0.2717
     66  CB       159.0360   37.8700  153.3530 C.3   156  SER156      0.2103
     67  OG       158.3130   37.4520  154.4960 O.3   156  SER156     -0.2182
     68  N        159.2840   38.7630  150.2080 N.am  157  ILE157     -0.1979
     69  CA       160.0160   39.4810  149.1690 C.3   157  ILE157      0.1595
     70  C        159.2550   40.7360  148.7650 C.2   157  ILE157      0.2287
     71  O        159.8300   41.8230  148.6450 O.2   157  ILE157     -0.2864
     72  CB       160.2640   38.5590  147.9590 C.3   157  ILE157      0.0276
     73  CG1      161.1970   37.4110  148.3500 C.3   157  ILE157      0.0022
     74  CG2      160.8500   39.3440  146.7830 C.3   157  ILE157      0.0022
     75  CD1      161.2700   36.2960  147.3240 C.3   157  ILE157      0.0001
     76  N        159.3720   43.5610  151.3600 N.3   160  ILE160     -0.1245
     77  CA       160.6440   44.2770  151.3520 C.3   160  ILE160      0.1561
     78  C        160.6670   45.3100  150.2310 C.2   160  ILE160      0.2260
     79  O        161.0860   46.4540  150.4340 O.2   160  ILE160     -0.2867
     80  CB       161.8170   43.2830  151.2360 C.3   160  ILE160      0.0252
     81  CG1      161.9040   42.4250  152.5010 C.3   160  ILE160      0.0019
     82  CG2      163.1360   44.0240  151.0100 C.3   160  ILE160      0.0019
     83  CD1      162.9090   41.2850  152.4200 C.3   160  ILE160      0.0001
     84  N        162.0240   34.0210  142.4550 N.3   191  SER191     -0.1202
     85  CA       162.5920   33.2530  143.5560 C.3   191  SER191      0.2020
     86  C        162.2950   31.7620  143.4340 C.2   191  SER191      0.2618
     87  O        162.9920   30.9540  144.0590 O.2   191  SER191     -0.2717
     88  CB       162.0680   33.7870  144.8920 C.3   191  SER191      0.2103
     89  OG       160.7380   33.3630  145.1370 O.3   191  SER191     -0.2182
     90  N        161.2950   31.3750  142.6390 N.am  192  ILE192     -0.1979
     91  CA       160.9510   29.9660  142.4660 C.3   192  ILE192      0.1595
     92  C        160.7300   29.6500  140.9900 C.2   192  ILE192      0.2287
     93  O        159.9720   28.7350  140.6480 O.2   192  ILE192     -0.2864
     94  CB       159.7100   29.5980  143.3010 C.3   192  ILE192      0.0276
     95  CG1      158.5130   30.4710  142.9090 C.3   192  ILE192      0.0022
     96  CG2      160.0210   29.7360  144.7880 C.3   192  ILE192      0.0022
     97  CD1      157.2060   30.0760  143.5870 C.3   192  ILE192      0.0001
     98  N        162.6970   28.2690  138.8810 N.3   194  LYS194     -0.1245
     99  CA       163.2940   27.0230  138.4110 C.3   194  LYS194      0.1561
    100  C        162.2510   25.9220  138.2690 C.2   194  LYS194      0.2260
    101  O        162.3320   25.0960  137.3520 O.2   194  LYS194     -0.2867
    102  CB       164.4020   26.5860  139.3660 C.3   194  LYS194      0.0271
    103  CG       165.5930   27.5430  139.4420 C.3   194  LYS194      0.0035
    104  CD       166.2410   27.7770  138.0560 C.3   194  LYS194      0.0206
    105  CE       166.7390   26.4720  137.4220 C.3   194  LYS194      0.1093
    106  NZ       167.6360   26.7300  136.2690 N.3   194  LYS194     -0.1314
@<TRIPOS>BOND
     1   106   105    1
     2   101   100    2
     3   105   104    1
     4   104   103    1
     5   100    99    1
     6    99    98    1
     7    99   102    1
     8   102   103    1
     9    93    92    2
    10    92    91    1
    11    84    85    1
    12    91    90    1
    13    91    94    1
    14    90    86   am
    15    95    94    1
    16    95    97    1
    17     9    10    1
    18    94    96    1
    19    86    85    1
    20    86    87    2
    21    85    88    1
    22    14    16    1
    23    14    15    1
    24    14    13    1
    25    10    13    1
    26    10    11    1
    27    88    89    1
    28    11    12    2
    29    74    72    1
    30    75    73    1
    31    22    21    1
    32    22    23    1
    33    24    23    1
    34    24    25    1
    35    61    59    1
    36    60    59    1
    37    72    73    1
    38    72    69    1
    39    21    18    1
    40    59    56    1
    41    45    44    1
    42    45    46    1
    43    44    41    1
    44    71    70    2
    45    70    69    1
    46    17    18    1
    47    20    19    2
    48    58    57    2
    49    41    40    1
    50    41    42    1
    51    18    19    1
    52    69    68    1
    53    56    57    1
    54    56    55    1
    55    43    42    2
    56    46    40    1
    57    40    28   am
    58    68    64   am
    59    78    79    2
    60    78    77    1
    61    55    49   am
    62    29    28    2
    63    28    27    1
    64    30    27    1
    65    30    31    1
    66    82    80    1
    67    80    77    1
    68    80    81    1
    69    64    65    2
    70    64    63    1
    71    77    76    1
    72    27    26    1
    73    31    32   ar
    74    31    33   ar
    75    62    63    1
    76    49    50    2
    77    49    48    1
    78    32    34   ar
    79    33    36   ar
    80    33    35   ar
    81    63    66    1
    82    47    48    1
    83    83    81    1
    84    36    38   ar
    85    34    35   ar
    86    48    51    1
    87    35    37   ar
    88    38    39   ar
    89    66    67    1
    90    51    52    1
    91    37    39   ar
    92    52    53    1
    93    52    54    1
    94     8     6    1
    95     6     7    1
    96     6     5    1
    97     4     3    2
    98     5     2    1
    99     3     2    1
   100     2     1    1
