@<TRIPOS>MOLECULE
tmp/5t77A10.pdb
 128 128 0 0 0
SMALL
GASTEIGER

@<TRIPOS>ATOM
      1  N        156.4180   34.2410  162.3440 N.3    12  PHE12      -0.1227
      2  CA       156.3940   35.4070  163.2190 C.3    12  PHE12       0.1736
      3  C        157.0280   36.6130  162.5320 C.2    12  PHE12       0.2595
      4  O        156.3940   37.6620  162.3700 O.2    12  PHE12      -0.2718
      5  CB       157.1070   35.0860  164.5330 C.3    12  PHE12       0.0547
      6  CG       157.3220   36.2840  165.4140 C.ar   12  PHE12      -0.0202
      7  CD1      156.2770   36.8110  166.1580 C.ar   12  PHE12      -0.0042
      8  CD2      158.5680   36.8800  165.5010 C.ar   12  PHE12      -0.0042
      9  CE1      156.4720   37.9180  166.9720 C.ar   12  PHE12      -0.0003
     10  CE2      158.7700   37.9860  166.3130 C.ar   12  PHE12      -0.0003
     11  CZ       157.7200   38.5040  167.0500 C.ar   12  PHE12      -0.0000
     12  N        158.2800   36.4680  162.0920 N.am   13  PHE13      -0.1976
     13  CA       158.9800   37.5900  161.4740 C.3    13  PHE13       0.1639
     14  C        158.3290   38.0160  160.1660 C.2    13  PHE13       0.2290
     15  O        158.3860   39.1970  159.8050 O.2    13  PHE13      -0.2864
     16  CB       160.4490   37.2330  161.2490 C.3    13  PHE13       0.0560
     17  CG       161.2930   37.3710  162.4820 C.ar   13  PHE13      -0.0200
     18  CD1      161.4830   38.6120  163.0670 C.ar   13  PHE13      -0.0042
     19  CD2      161.8960   36.2660  163.0570 C.ar   13  PHE13      -0.0042
     20  CE1      162.2540   38.7490  164.2010 C.ar   13  PHE13      -0.0003
     21  CE2      162.6710   36.3960  164.1930 C.ar   13  PHE13      -0.0003
     22  CZ       162.8500   37.6400  164.7650 C.ar   13  PHE13      -0.0000
     23  N        155.6120   40.2730  161.3180 N.3    16  ILE16      -0.1245
     24  CA       156.1810   41.5220  161.8120 C.3    16  ILE16       0.1561
     25  C        156.6380   42.3940  160.6510 C.2    16  ILE16       0.2260
     26  O        156.5230   43.6260  160.6950 O.2    16  ILE16      -0.2867
     27  CB       157.3330   41.2140  162.7900 C.3    16  ILE16       0.0252
     28  CG1      156.8210   40.4110  163.9910 C.3    16  ILE16       0.0019
     29  CG2      158.0060   42.4790  163.2720 C.3    16  ILE16       0.0019
     30  CD1      155.6200   41.0170  164.7130 C.3    16  ILE16       0.0001
     31  N        153.7220   44.1320  159.3410 N.3    19  LEU19      -0.1231
     32  CA       153.3960   45.2200  160.2560 C.3    19  LEU19       0.1693
     33  C        154.3020   46.4220  160.0210 C.2    19  LEU19       0.2592
     34  O        153.8380   47.5670  160.0080 O.2    19  LEU19      -0.2718
     35  CB       153.5120   44.7380  161.7010 C.3    19  LEU19       0.0284
     36  CG       153.3420   45.7980  162.7920 C.3    19  LEU19       0.0019
     37  CD1      151.9900   46.4780  162.6650 C.3    19  LEU19       0.0001
     38  CD2      153.5050   45.1800  164.1730 C.3    19  LEU19       0.0001
     39  N        155.6000   46.1770  159.8320 N.am   20  PHE20      -0.1976
     40  CA       156.5390   47.2670  159.5920 C.3    20  PHE20       0.1639
     41  C        156.2090   47.9990  158.2940 C.2    20  PHE20       0.2290
     42  O        156.3150   49.2280  158.2200 O.2    20  PHE20      -0.2864
     43  CB       157.9620   46.7100  159.5700 C.3    20  PHE20       0.0560
     44  CG       159.0300   47.7580  159.4590 C.ar   20  PHE20      -0.0200
     45  CD1      159.0940   48.8020  160.3650 C.ar   20  PHE20      -0.0042
     46  CD2      159.9900   47.6820  158.4640 C.ar   20  PHE20      -0.0042
     47  CE1      160.0840   49.7620  160.2680 C.ar   20  PHE20      -0.0003
     48  CE2      160.9820   48.6370  158.3650 C.ar   20  PHE20      -0.0003
     49  CZ       161.0300   49.6770  159.2680 C.ar   20  PHE20      -0.0000
     50  N        153.4880   50.2920  159.1780 N.3    23  VAL23      -0.1245
     51  CA       154.0230   51.3720  160.0020 C.3    23  VAL23       0.1561
     52  C        154.6400   52.4490  159.1190 C.2    23  VAL23       0.2260
     53  O        154.4770   53.6490  159.3710 O.2    23  VAL23      -0.2867
     54  CB       155.0410   50.8130  161.0160 C.3    23  VAL23       0.0252
     55  CG1      155.8310   51.9350  161.6930 C.3    23  VAL23       0.0019
     56  CG2      154.3260   49.9770  162.0680 C.3    23  VAL23       0.0019
     57  N        148.7760   54.2730  168.7230 N.3   311  ARG311     -0.1231
     58  CA       149.7140   55.3910  168.7690 C.3   311  ARG311      0.1694
     59  C        151.1500   54.8990  168.6600 C.2   311  ARG311      0.2592
     60  O        151.9530   55.4470  167.8950 O.2   311  ARG311     -0.2718
     61  CB       149.5230   56.1950  170.0560 C.3   311  ARG311      0.0321
     62  CG       150.5840   57.2730  170.2670 C.3   311  ARG311      0.0489
     63  CD       150.1400   58.3320  171.2760 C.3   311  ARG311      0.2205
     64  NE       148.8810   58.9450  170.8560 N.pl3 311  ARG311     -0.0865
     65  CZ       147.7540   58.9620  171.5640 C.cat 311  ARG311      0.5346
     66  NH1      147.6970   58.4290  172.7770 N.pl3 311  ARG311      0.1354
     67  NH2      146.6750   59.5380  171.0540 N.pl3 311  ARG311      0.1354
     68  N        151.4880   53.8560  169.4180 N.am  312  PHE312     -0.1962
     69  CA       152.8560   53.3530  169.4270 C.3   312  PHE312      0.1771
     70  C        153.2960   52.9000  168.0390 C.2   312  PHE312      0.2619
     71  O        154.4250   53.1750  167.6170 O.2   312  PHE312     -0.2715
     72  CB       152.9740   52.2020  170.4230 C.3   312  PHE312      0.0574
     73  CG       154.3460   51.6050  170.4940 C.ar  312  PHE312     -0.0200
     74  CD1      155.3160   52.1660  171.3070 C.ar  312  PHE312     -0.0042
     75  CD2      154.6660   50.4790  169.7510 C.ar  312  PHE312     -0.0042
     76  CE1      156.5840   51.6180  171.3770 C.ar  312  PHE312     -0.0003
     77  CE2      155.9330   49.9260  169.8180 C.ar  312  PHE312     -0.0003
     78  CZ       156.8920   50.4980  170.6320 C.ar  312  PHE312     -0.0000
     79  N        152.4260   52.2010  167.3160 N.am  313  PHE313     -0.1974
     80  CA       152.8340   51.6140  166.0440 C.3   313  PHE313      0.1639
     81  C        152.6840   52.5770  164.8700 C.2   313  PHE313      0.2290
     82  O        153.5770   52.6460  164.0200 O.2   313  PHE313     -0.2864
     83  CB       152.0410   50.3270  165.7780 C.3   313  PHE313      0.0560
     84  CG       152.4530   49.1730  166.6540 C.ar  313  PHE313     -0.0200
     85  CD1      153.6770   48.5540  166.4670 C.ar  313  PHE313     -0.0042
     86  CD2      151.6230   48.7080  167.6610 C.ar  313  PHE313     -0.0042
     87  CE1      154.0700   47.4950  167.2670 C.ar  313  PHE313     -0.0003
     88  CE2      152.0090   47.6490  168.4640 C.ar  313  PHE313     -0.0003
     89  CZ       153.2330   47.0430  168.2670 C.ar  313  PHE313     -0.0000
     90  N        151.4170   56.2030  164.9190 N.3   315  GLU315     -0.1231
     91  CA       151.3750   57.6630  165.0280 C.3   315  GLU315      0.1699
     92  C        152.7930   58.2160  164.9100 C.2   315  GLU315      0.2592
     93  O        153.4420   58.5930  165.8890 O.2   315  GLU315     -0.2718
     94  CB       150.7050   58.0980  166.3250 C.3   315  GLU315      0.0402
     95  CG       150.4560   59.6070  166.3850 C.3   315  GLU315      0.1161
     96  CD       149.7590   60.0450  167.6600 C.2   315  GLU315      0.3649
     97  OE1      148.6250   59.5860  167.9140 O.co2 315  GLU315     -0.2457
     98  OE2      150.3480   60.8470  168.4130 O.co2 315  GLU315     -0.2457
     99  N        153.2740   58.2560  163.6690 N.am  316  HIS316     -0.1976
    100  CA       154.5400   58.8820  163.3240 C.3   316  HIS316      0.1656
    101  C        154.3620   59.6040  161.9950 C.2   316  HIS316      0.2291
    102  O        153.4560   59.2980  161.2180 O.2   316  HIS316     -0.2864
    103  CB       155.6770   57.8550  163.2230 C.3   316  HIS316      0.0771
    104  CG       155.7020   56.8660  164.3480 C.ar  316  HIS316      0.0820
    105  ND1      155.2580   55.5700  164.2060 N.ar  316  HIS316     -0.2267
    106  CD2      156.1180   56.9820  165.6320 C.ar  316  HIS316      0.1154
    107  CE1      155.3990   54.9290  165.3530 C.ar  316  HIS316      0.1986
    108  NE2      155.9180   55.7630  166.2340 N.ar  316  HIS316     -0.2212
    109  N        153.8840   57.2210  176.9800 N.3   437  GLU437     -0.1231
    110  CA       153.5210   56.5750  175.7230 C.3   437  GLU437      0.1699
    111  C        153.9020   55.1010  175.6830 C.2   437  GLU437      0.2592
    112  O        153.3190   54.3500  174.8950 O.2   437  GLU437     -0.2718
    113  CB       154.1760   57.3030  174.5450 C.3   437  GLU437      0.0402
    114  CG       154.0560   56.5580  173.2180 C.3   437  GLU437      0.1161
    115  CD       154.5530   57.3650  172.0350 C.2   437  GLU437      0.3649
    116  OE1      154.9080   58.5470  172.2210 O.co2 437  GLU437     -0.2457
    117  OE2      154.5870   56.8100  170.9160 O.co2 437  GLU437     -0.2457
    118  N        154.8590   54.6720  176.5010 N.am  438  PHE438     -0.1976
    119  CA       155.3300   53.2930  176.4940 C.3   438  PHE438      0.1639
    120  C        154.7870   52.4830  177.6620 C.2   438  PHE438      0.2290
    121  O        155.0550   51.2810  177.7450 O.2   438  PHE438     -0.2864
    122  CB       156.8610   53.2710  176.5090 C.3   438  PHE438      0.0560
    123  CG       157.4830   54.1530  175.4610 C.ar  438  PHE438     -0.0200
    124  CD1      157.6000   53.7190  174.1510 C.ar  438  PHE438     -0.0042
    125  CD2      157.9380   55.4210  175.7830 C.ar  438  PHE438     -0.0042
    126  CE1      158.1640   54.5300  173.1830 C.ar  438  PHE438     -0.0003
    127  CE2      158.5050   56.2370  174.8210 C.ar  438  PHE438     -0.0003
    128  CZ       158.6170   55.7910  173.5190 C.ar  438  PHE438     -0.0000
@<TRIPOS>BOND
     1    42    41    2
     2    41    40    1
     3    48    46   ar
     4    48    49   ar
     5    46    44   ar
     6    52    53    2
     7    52    51    1
     8    50    51    1
     9    49    47   ar
    10    31    32    1
    11    44    43    1
    12    44    45   ar
    13    43    40    1
    14    40    39    1
    15    15    14    2
    16    39    33   am
    17    51    54    1
    18    34    33    2
    19    33    32    1
    20    14    13    1
    21    32    35    1
    22    47    45   ar
    23    25    26    2
    24    25    24    1
    25    54    55    1
    26    54    56    1
    27   102   101    2
    28    16    13    1
    29    16    17    1
    30    23    24    1
    31    13    12    1
    32    35    36    1
    33    24    27    1
    34   101   100    1
    35    12     3   am
    36     1     2    1
    37     4     3    2
    38    17    19   ar
    39    17    18   ar
    40     3     2    1
    41    37    36    1
    42    27    29    1
    43    27    28    1
    44    36    38    1
    45    19    21   ar
    46    18    20   ar
    47     2     5    1
    48   103   100    1
    49   103   104    1
    50   100    99    1
    51    99    92   am
    52    28    30    1
    53    82    81    2
    54    21    22   ar
    55    20    22   ar
    56   105   104   ar
    57   105   107   ar
    58   104   106   ar
    59     5     6    1
    60    81    80    1
    61    92    91    1
    62    92    93    2
    63    90    91    1
    64    91    94    1
    65   107   108   ar
    66     6     8   ar
    67     6     7   ar
    68     8    10   ar
    69   106   108   ar
    70    83    80    1
    71    83    84    1
    72    80    79    1
    73     7     9   ar
    74    10    11   ar
    75    94    95    1
    76    95    96    1
    77    85    84   ar
    78    85    87   ar
    79    84    86   ar
    80     9    11   ar
    81    87    89   ar
    82    79    70   am
    83    71    70    2
    84    96    97   ar
    85    96    98   ar
    86    86    88   ar
    87    60    59    2
    88    70    69    1
    89    89    88   ar
    90    59    58    1
    91    59    68   am
    92    57    58    1
    93    58    61    1
    94    68    69    1
    95    69    72    1
    96    75    77   ar
    97    75    73   ar
    98    77    78   ar
    99    61    62    1
   100    62    63    1
   101    72    73    1
   102    73    74   ar
   103    78    76   ar
   104    64    63    1
   105    64    65    2
   106   117   115   ar
   107    67    65    1
   108    74    76   ar
   109    65    66    1
   110   115   116   ar
   111   115   114    1
   112   126   128   ar
   113   126   124   ar
   114   114   113    1
   115   128   127   ar
   116   124   123   ar
   117   113   110    1
   118   127   125   ar
   119   112   111    2
   120   123   125   ar
   121   123   122    1
   122   111   110    1
   123   111   118   am
   124   110   109    1
   125   119   118    1
   126   119   122    1
   127   119   120    1
   128   120   121    2
