@<TRIPOS>MOLECULE
tmp/5t77A07.pdb
 73 67 0 0 0
SMALL
GASTEIGER

@<TRIPOS>ATOM
      1  N        134.2020   29.6170  143.3310 N.3   221  THR221     -0.1218
      2  CA       133.7640   29.3540  144.6980 C.3   221  THR221      0.1862
      3  C        134.6390   30.0950  145.6990 C.2   221  THR221      0.2287
      4  O        134.1360   30.6680  146.6720 O.2   221  THR221     -0.2866
      5  CB       133.7860   27.8500  144.9830 C.3   221  THR221      0.1770
      6  OG1      132.8470   27.1870  144.1290 O.3   221  THR221     -0.2211
      7  CG2      133.4250   27.5620  146.4410 C.3   221  THR221      0.0375
      8  N        134.0040   33.9200  145.5650 N.3   224  VAL224     -0.1231
      9  CA       132.7840   34.3130  146.2630 C.3   224  VAL224      0.1692
     10  C        132.9770   34.2230  147.7720 C.2   224  VAL224      0.2592
     11  O        132.4960   35.0780  148.5250 O.2   224  VAL224     -0.2718
     12  CB       131.6020   33.4480  145.7840 C.3   224  VAL224      0.0266
     13  CG1      130.3840   33.6310  146.6840 C.3   224  VAL224      0.0020
     14  CG2      131.2460   33.8020  144.3470 C.3   224  VAL224      0.0020
     15  N        133.6800   33.1900  148.2420 N.am  225  SER225     -0.1952
     16  CA       133.8500   33.0130  149.6790 C.3   225  SER225      0.1924
     17  C        134.7210   34.1000  150.2950 C.2   225  SER225      0.2314
     18  O        134.6310   34.3350  151.5050 O.2   225  SER225     -0.2863
     19  CB       134.4450   31.6350  149.9770 C.3   225  SER225      0.2116
     20  OG       135.8440   31.6190  149.7520 O.3   225  SER225     -0.2180
     21  N        134.5570   37.2870  149.1730 N.3   227  ILE227     -0.1245
     22  CA       134.0230   38.5010  148.5650 C.3   227  ILE227      0.1561
     23  C        133.8460   39.6050  149.5980 C.2   227  ILE227      0.2260
     24  O        133.8990   40.7950  149.2570 O.2   227  ILE227     -0.2867
     25  CB       132.6990   38.1860  147.8450 C.3   227  ILE227      0.0252
     26  CG1      132.3320   39.3140  146.8770 C.3   227  ILE227      0.0019
     27  CG2      131.5740   37.9490  148.8540 C.3   227  ILE227      0.0019
     28  CD1      133.2210   39.3770  145.6420 C.3   227  ILE227      0.0001
     29  N        129.5700   25.1490  155.5390 N.3   361  PHE361     -0.1241
     30  CA       129.1990   25.9460  154.3740 C.3   361  PHE361      0.1605
     31  C        127.9990   26.8360  154.6710 C.2   361  PHE361      0.2264
     32  O        127.9890   28.0180  154.3050 O.2   361  PHE361     -0.2867
     33  CB       128.9000   25.0370  153.1850 C.3   361  PHE361      0.0534
     34  CG       128.5090   25.7850  151.9440 C.ar  361  PHE361     -0.0203
     35  CD1      129.4760   26.2960  151.0980 C.ar  361  PHE361     -0.0042
     36  CD2      127.1750   25.9880  151.6290 C.ar  361  PHE361     -0.0042
     37  CE1      129.1250   26.9900  149.9550 C.ar  361  PHE361     -0.0003
     38  CE2      126.8140   26.6830  150.4850 C.ar  361  PHE361     -0.0003
     39  CZ       127.7910   27.1830  149.6490 C.ar  361  PHE361     -0.0000
     40  N        129.1350   29.6430  156.8680 N.3   364  ALA364     -0.1231
     41  CA       129.9070   30.6310  156.1240 C.3   364  ALA364      0.1694
     42  C        129.0040   31.4820  155.2400 C.2   364  ALA364      0.2592
     43  O        129.2460   32.6810  155.0680 O.2   364  ALA364     -0.2718
     44  CB       130.9810   29.9340  155.2900 C.3   364  ALA364      0.0304
     45  N        127.9570   30.8780  154.6730 N.am  365  THR365     -0.1953
     46  CA       126.9850   31.6420  153.8980 C.3   365  THR365      0.1897
     47  C        126.2470   32.6400  154.7820 C.2   365  THR365      0.2313
     48  O        126.0580   33.8010  154.3980 O.2   365  THR365     -0.2863
     49  CB       125.9970   30.6860  153.2230 C.3   365  THR365      0.1794
     50  OG1      126.7020   29.8260  152.3190 O.3   365  THR365     -0.2208
     51  CG2      124.9070   31.4430  152.4610 C.3   365  THR365      0.0378
     52  N        128.5740   35.4740  155.5900 N.3   368  SER368     -0.1202
     53  CA       128.8500   36.3170  154.4310 C.3   368  SER368      0.2020
     54  C        127.6570   37.2030  154.0950 C.2   368  SER368      0.2618
     55  O        127.8130   38.4090  153.8740 O.2   368  SER368     -0.2717
     56  CB       129.2350   35.4480  153.2340 C.3   368  SER368      0.2103
     57  OG       129.2920   36.2180  152.0470 O.3   368  SER368     -0.2182
     58  N        126.4560   36.6240  154.0480 N.am  369  LEU369     -0.1979
     59  CA       125.2660   37.4230  153.7660 C.3   369  LEU369      0.1596
     60  C        125.0110   38.4390  154.8710 C.2   369  LEU369      0.2287
     61  O        124.6920   39.6000  154.5930 O.2   369  LEU369     -0.2864
     62  CB       124.0480   36.5160  153.5900 C.3   369  LEU369      0.0297
     63  CG       123.9820   35.6750  152.3150 C.3   369  LEU369      0.0022
     64  CD1      122.7740   34.7610  152.3750 C.3   369  LEU369      0.0001
     65  CD2      123.9230   36.5560  151.0770 C.3   369  LEU369      0.0001
     66  N        127.4010   41.2990  154.4110 N.3   372  ILE372     -0.1245
     67  CA       127.0680   42.1740  153.2910 C.3   372  ILE372      0.1561
     68  C        125.9140   43.0970  153.6690 C.2   372  ILE372      0.2260
     69  O        125.9830   44.3150  153.4730 O.2   372  ILE372     -0.2867
     70  CB       126.7500   41.3370  152.0390 C.3   372  ILE372      0.0252
     71  CG1      128.0120   40.6050  151.5660 C.3   372  ILE372      0.0019
     72  CG2      126.2030   42.2130  150.9190 C.3   372  ILE372      0.0019
     73  CD1      127.7530   39.4950  150.5580 C.3   372  ILE372      0.0001
@<TRIPOS>BOND
     1     1     2    1
     2     6     5    1
     3    14    12    1
     4     2     5    1
     5     2     3    1
     6     5     7    1
     7     8     9    1
     8    28    26    1
     9     3     4    2
    10    12     9    1
    11    12    13    1
    12     9    10    1
    13    26    25    1
    14    10    15   am
    15    10    11    2
    16    25    22    1
    17    25    27    1
    18    15    16    1
    19    22    21    1
    20    22    23    1
    21    24    23    2
    22    39    37   ar
    23    39    38   ar
    24    16    19    1
    25    16    17    1
    26    20    19    1
    27    37    35   ar
    28    17    18    2
    29    38    36   ar
    30    73    71    1
    31    72    70    1
    32    65    63    1
    33    35    34   ar
    34    71    70    1
    35    36    34   ar
    36    34    33    1
    37    70    67    1
    38    57    56    1
    39    63    64    1
    40    63    62    1
    41    50    49    1
    42    51    49    1
    43    33    30    1
    44    49    46    1
    45    56    53    1
    46    67    68    1
    47    67    66    1
    48    69    68    2
    49    62    59    1
    50    59    58    1
    51    59    60    1
    52    55    54    2
    53    46    45    1
    54    46    47    1
    55    58    54   am
    56    54    53    1
    57    32    31    2
    58    30    31    1
    59    30    29    1
    60    48    47    2
    61    53    52    1
    62    61    60    2
    63    45    42   am
    64    43    42    2
    65    42    41    1
    66    44    41    1
    67    41    40    1
