@<TRIPOS>MOLECULE
tmp/5t77A12.pdb
 98 92 0 0 0
SMALL
GASTEIGER

@<TRIPOS>ATOM
      1  N        140.8680   40.0980  173.8960 N.3   299  MET299     -0.1230
      2  CA       139.8600   41.0870  173.5320 C.3   299  MET299      0.1702
      3  C        139.8040   42.2090  174.5600 C.2   299  MET299      0.2592
      4  O        139.7970   43.3950  174.2060 O.2   299  MET299     -0.2718
      5  CB       138.4920   40.4180  173.3980 C.3   299  MET299      0.0401
      6  CG       137.3520   41.3860  173.0870 C.3   299  MET299      0.0596
      7  SD       135.7120   40.6680  173.2780 S.3   299  MET299     -0.1393
      8  CE       135.7020   40.2710  175.0220 C.3   299  MET299      0.0692
      9  N        139.7500   41.8490  175.8440 N.am  300  VAL300     -0.1980
     10  CA       139.6580   42.8480  176.9050 C.3   300  VAL300      0.1595
     11  C        140.8910   43.7430  176.8950 C.2   300  VAL300      0.2287
     12  O        140.7870   44.9760  176.9230 O.2   300  VAL300     -0.2864
     13  CB       139.4690   42.1570  178.2700 C.3   300  VAL300      0.0276
     14  CG1      139.4650   43.1720  179.4030 C.3   300  VAL300      0.0022
     15  CG2      138.1760   41.3570  178.2780 C.3   300  VAL300      0.0022
     16  N        141.0960   46.0500  173.6320 N.3   303  ILE303     -0.1231
     17  CA       140.1370   47.1470  173.6310 C.3   303  ILE303      0.1692
     18  C        140.5540   48.2160  174.6330 C.2   303  ILE303      0.2592
     19  O        140.5780   49.4100  174.3150 O.2   303  ILE303     -0.2718
     20  CB       138.7220   46.6100  173.9090 C.3   303  ILE303      0.0266
     21  CG1      138.2260   45.8380  172.6810 C.3   303  ILE303      0.0019
     22  CG2      137.7600   47.7440  174.2610 C.3   303  ILE303      0.0020
     23  CD1      136.9310   45.0820  172.8920 C.3   303  ILE303      0.0001
     24  N        140.8960   47.8070  175.8570 N.am  304  PHE304     -0.1976
     25  CA       141.3000   48.7810  176.8630 C.3   304  PHE304      0.1639
     26  C        142.4990   49.5990  176.3950 C.2   304  PHE304      0.2290
     27  O        142.5600   50.8110  176.6310 O.2   304  PHE304     -0.2864
     28  CB       141.6160   48.0850  178.1870 C.3   304  PHE304      0.0560
     29  CG       141.9700   49.0370  179.2930 C.ar  304  PHE304     -0.0200
     30  CD1      140.9900   49.8030  179.9010 C.ar  304  PHE304     -0.0042
     31  CD2      143.2810   49.1770  179.7150 C.ar  304  PHE304     -0.0042
     32  CE1      141.3110   50.6920  180.9130 C.ar  304  PHE304     -0.0003
     33  CE2      143.6080   50.0600  180.7290 C.ar  304  PHE304     -0.0003
     34  CZ       142.6210   50.8180  181.3290 C.ar  304  PHE304     -0.0000
     35  N        143.6350   50.0040  173.1710 N.3   306  SER306     -0.1217
     36  CA       143.6590   50.1640  171.7190 C.3   306  SER306      0.1889
     37  C        144.3230   51.4740  171.3020 C.2   306  SER306      0.2288
     38  O        145.0950   51.5030  170.3380 O.2   306  SER306     -0.2866
     39  CB       142.2390   50.0820  171.1610 C.3   306  SER306      0.2089
     40  OG       141.3610   50.9330  171.8800 O.3   306  SER306     -0.2183
     41  N        138.7350   48.5900  167.9190 N.3   332  ILE332     -0.1245
     42  CA       137.8020   48.1170  168.9380 C.3   332  ILE332      0.1561
     43  C        136.6260   47.4060  168.2810 C.2   332  ILE332      0.2260
     44  O        136.2070   46.3260  168.7160 O.2   332  ILE332     -0.2867
     45  CB       137.3330   49.2860  169.8230 C.3   332  ILE332      0.0252
     46  CG1      138.4900   49.7770  170.7000 C.3   332  ILE332      0.0019
     47  CG2      136.1370   48.8720  170.6880 C.3   332  ILE332      0.0019
     48  CD1      138.1750   51.0200  171.5010 C.3   332  ILE332      0.0001
     49  N        135.8470   43.3370  169.1380 N.3   336  LEU336     -0.1245
     50  CA       134.6600   42.7870  169.7810 C.3   336  LEU336      0.1561
     51  C        134.2460   41.4530  169.1680 C.2   336  LEU336      0.2260
     52  O        133.5710   40.6600  169.8340 O.2   336  LEU336     -0.2867
     53  CB       133.5090   43.7920  169.6990 C.3   336  LEU336      0.0270
     54  CG       133.6870   45.0520  170.5560 C.3   336  LEU336      0.0019
     55  CD1      132.7830   46.1810  170.0770 C.3   336  LEU336      0.0001
     56  CD2      133.4200   44.7500  172.0270 C.3   336  LEU336      0.0001
     57  N        136.5780   36.7980  170.0090 N.3   339  PRO339     -0.2102
     58  CA       136.1860   35.4970  170.5730 C.3   339  PRO339      0.1504
     59  C        135.1310   34.7870  169.7480 C.2   339  PRO339      0.2575
     60  O        135.1210   33.5490  169.6900 O.2   339  PRO339     -0.2718
     61  CB       135.6670   35.8560  171.9740 C.3   339  PRO339      0.0282
     62  CG       135.3190   37.2950  171.9120 C.3   339  PRO339      0.0208
     63  CD       136.2460   37.9170  170.9120 C.3   339  PRO339      0.0893
     64  N        134.2410   35.5380  169.1000 N.am  340  PHE340     -0.1977
     65  CA       133.2050   34.9150  168.2840 C.3   340  PHE340      0.1639
     66  C        133.7970   34.2620  167.0420 C.2   340  PHE340      0.2290
     67  O        133.4190   33.1390  166.6870 O.2   340  PHE340     -0.2864
     68  CB       132.1500   35.9530  167.9190 C.3   340  PHE340      0.0560
     69  CG       131.4520   36.5350  169.1140 C.ar  340  PHE340     -0.0200
     70  CD1      130.4130   35.8500  169.7220 C.ar  340  PHE340     -0.0042
     71  CD2      131.8440   37.7550  169.6420 C.ar  340  PHE340     -0.0042
     72  CE1      129.7710   36.3710  170.8220 C.ar  340  PHE340     -0.0003
     73  CE2      131.2030   38.2830  170.7440 C.ar  340  PHE340     -0.0003
     74  CZ       130.1650   37.5900  171.3360 C.ar  340  PHE340     -0.0000
     75  N        129.0770   36.9760  165.2190 N.3   396  ILE396     -0.1245
     76  CA       128.1580   36.5790  166.2820 C.3   396  ILE396      0.1561
     77  C        127.0230   35.7410  165.7040 C.2   396  ILE396      0.2260
     78  O        126.6580   34.6930  166.2510 O.2   396  ILE396     -0.2867
     79  CB       127.6270   37.8220  167.0230 C.3   396  ILE396      0.0252
     80  CG1      128.7730   38.5280  167.7590 C.3   396  ILE396      0.0019
     81  CG2      126.5240   37.4390  168.0070 C.3   396  ILE396      0.0019
     82  CD1      128.3890   39.8600  168.3890 C.3   396  ILE396      0.0001
     83  N        138.2680   39.7000  183.7510 N.3   422  LEU422     -0.1245
     84  CA       137.7790   40.9140  184.3950 C.3   422  LEU422      0.1561
     85  C        138.6160   41.2840  185.6120 C.2   422  LEU422      0.2260
     86  O        138.7820   42.4720  185.9050 O.2   422  LEU422     -0.2867
     87  CB       136.3110   40.7440  184.7910 C.3   422  LEU422      0.0270
     88  CG       135.3110   40.5760  183.6410 C.3   422  LEU422      0.0019
     89  CD1      133.8920   40.4910  184.1840 C.3   422  LEU422      0.0001
     90  CD2      135.4170   41.7050  182.6210 C.3   422  LEU422      0.0001
     91  N        141.3660   42.9550  183.9620 N.3   425  LEU425     -0.1245
     92  CA       140.9540   44.2990  183.5750 C.3   425  LEU425      0.1561
     93  C        141.0220   45.2530  184.7600 C.2   425  LEU425      0.2260
     94  O        141.5600   46.3610  184.6530 O.2   425  LEU425     -0.2867
     95  CB       139.5400   44.2620  182.9970 C.3   425  LEU425      0.0270
     96  CG       138.9230   45.6130  182.6350 C.3   425  LEU425      0.0019
     97  CD1      139.7670   46.3360  181.5990 C.3   425  LEU425      0.0001
     98  CD2      137.5050   45.4120  182.1290 C.3   425  LEU425      0.0001
@<TRIPOS>BOND
     1    75    76    1
     2    77    78    2
     3    77    76    1
     4    76    79    1
     5    67    66    2
     6    79    80    1
     7    79    81    1
     8    66    65    1
     9    80    82    1
    10    41    42    1
    11    68    65    1
    12    68    69    1
    13    43    44    2
    14    43    42    1
    15    65    64    1
    16    42    45    1
    17    64    59   am
    18    69    71   ar
    19    69    70   ar
    20    49    50    1
    21    51    50    1
    22    51    52    2
    23    71    73   ar
    24    60    59    2
    25    53    50    1
    26    53    54    1
    27    70    72   ar
    28    59    58    1
    29    45    47    1
    30    45    46    1
    31    57    58    1
    32    57    63    1
    33    55    54    1
    34    38    37    2
    35    54    56    1
    36    58    61    1
    37    46    48    1
    38    73    74   ar
    39    72    74   ar
    40    63    62    1
    41    39    36    1
    42    39    40    1
    43    37    36    1
    44    36    35    1
    45    62    61    1
    46    21    23    1
    47    21    20    1
    48     6     7    1
    49     6     5    1
    50     7     8    1
    51     5     2    1
    52     2     1    1
    53     2     3    1
    54    17    16    1
    55    17    20    1
    56    17    18    1
    57    20    22    1
    58     4     3    2
    59    19    18    2
    60     3     9   am
    61    18    24   am
    62     9    10    1
    63    24    25    1
    64    26    27    2
    65    26    25    1
    66    25    28    1
    67    11    10    1
    68    11    12    2
    69    10    13    1
    70    28    29    1
    71    13    15    1
    72    13    14    1
    73    29    31   ar
    74    29    30   ar
    75    31    33   ar
    76    30    32   ar
    77    33    34   ar
    78    32    34   ar
    79    97    96    1
    80    98    96    1
    81    90    88    1
    82    96    95    1
    83    95    92    1
    84    92    91    1
    85    92    93    1
    86    88    89    1
    87    88    87    1
    88    83    84    1
    89    84    87    1
    90    84    85    1
    91    94    93    2
    92    85    86    2
