@<TRIPOS>MOLECULE
tmp/5t77A00.pdb
 157 151 0 0 0
SMALL
GASTEIGER

@<TRIPOS>ATOM
      1  N        143.0920   44.1390  143.4770 N.3    44  PHE44      -0.1241
      2  CA       142.8660   42.9870  142.6080 C.3    44  PHE44       0.1605
      3  C        144.0120   41.9880  142.6950 C.2    44  PHE44       0.2264
      4  O        143.7480   40.8030  142.9610 O.2    44  PHE44      -0.2867
      5  CB       142.6280   43.4560  141.1670 C.3    44  PHE44       0.0534
      6  CG       142.0210   42.4050  140.2770 C.ar   44  PHE44      -0.0203
      7  CD1      142.7200   41.2500  139.9640 C.ar   44  PHE44      -0.0042
      8  CD2      140.7560   42.5790  139.7420 C.ar   44  PHE44      -0.0042
      9  CE1      142.1640   40.2840  139.1450 C.ar   44  PHE44      -0.0003
     10  CE2      140.1940   41.6160  138.9200 C.ar   44  PHE44      -0.0003
     11  CZ       140.9010   40.4680  138.6220 C.ar   44  PHE44      -0.0000
     12  N        143.6980   38.3470  144.4290 N.3    48  LEU48      -0.1245
     13  CA       144.0260   37.1250  143.7020 C.3    48  LEU48       0.1561
     14  C        145.0220   36.2680  144.4750 C.2    48  LEU48       0.2260
     15  O        144.9180   35.0350  144.4800 O.2    48  LEU48      -0.2867
     16  CB       144.5760   37.4910  142.3310 C.3    48  LEU48       0.0270
     17  CG       144.8580   36.3600  141.3550 C.3    48  LEU48       0.0019
     18  CD1      143.5710   35.8520  140.7150 C.3    48  LEU48       0.0001
     19  CD2      145.8180   36.8860  140.3210 C.3    48  LEU48       0.0001
     20  N        146.6950   30.8540  130.3180 N.3    84  PHE84      -0.1241
     21  CA       146.5410   31.9720  131.2440 C.3    84  PHE84       0.1605
     22  C        147.2560   33.2140  130.7320 C.2    84  PHE84       0.2264
     23  O        146.7660   34.3350  130.9110 O.2    84  PHE84      -0.2867
     24  CB       147.0660   31.5890  132.6300 C.3    84  PHE84       0.0534
     25  CG       146.0770   30.8310  133.4720 C.ar   84  PHE84      -0.0203
     26  CD1      144.7480   31.2220  133.5330 C.ar   84  PHE84      -0.0042
     27  CD2      146.4790   29.7310  134.2110 C.ar   84  PHE84      -0.0042
     28  CE1      143.8420   30.5300  134.3080 C.ar   84  PHE84      -0.0003
     29  CE2      145.5780   29.0390  134.9870 C.ar   84  PHE84      -0.0003
     30  CZ       144.2570   29.4380  135.0370 C.ar   84  PHE84      -0.0000
     31  N        144.7280   34.8260  128.4320 N.3    87  ILE87      -0.1231
     32  CA       143.6320   35.4710  129.1490 C.3    87  ILE87       0.1692
     33  C        144.1320   36.7110  129.8770 C.2    87  ILE87       0.2591
     34  O        143.5030   37.7750  129.8240 O.2    87  ILE87      -0.2718
     35  CB       142.9680   34.4680  130.1120 C.3    87  ILE87       0.0266
     36  CG1      142.2600   33.3730  129.3090 C.3    87  ILE87       0.0019
     37  CG2      141.9900   35.1780  131.0530 C.3    87  ILE87       0.0020
     38  CD1      141.6640   32.2680  130.1470 C.3    87  ILE87       0.0001
     39  N        145.2760   36.6020  130.5570 N.am   88  ILE88      -0.1980
     40  CA       145.7680   37.7170  131.3610 C.3    88  ILE88       0.1595
     41  C        146.1800   38.8820  130.4700 C.2    88  ILE88       0.2287
     42  O        145.8720   40.0420  130.7660 O.2    88  ILE88      -0.2864
     43  CB       146.9230   37.2510  132.2650 C.3    88  ILE88       0.0276
     44  CG1      146.4050   36.2400  133.2910 C.3    88  ILE88       0.0022
     45  CG2      147.5680   38.4390  132.9780 C.3    88  ILE88       0.0022
     46  CD1      147.4940   35.5020  134.0320 C.3    88  ILE88       0.0001
     47  N        143.2260   40.8210  129.4890 N.3    91  LEU91      -0.1231
     48  CA       142.6030   41.5920  130.5560 C.3    91  LEU91       0.1693
     49  C        143.4950   42.7320  131.0370 C.2    91  LEU91       0.2591
     50  O        142.9810   43.7330  131.5510 O.2    91  LEU91      -0.2718
     51  CB       142.2240   40.6610  131.7110 C.3    91  LEU91       0.0284
     52  CG       141.2130   39.5670  131.3340 C.3    91  LEU91       0.0019
     53  CD1      140.8790   38.6750  132.5220 C.3    91  LEU91       0.0001
     54  CD2      139.9290   40.1520  130.7510 C.3    91  LEU91       0.0001
     55  N        144.8160   42.6230  130.8690 N.am   92  VAL92      -0.1980
     56  CA       145.6830   43.7560  131.1820 C.3    92  VAL92       0.1595
     57  C        145.5290   44.8450  130.1270 C.2    92  VAL92       0.2287
     58  O        145.5580   46.0400  130.4430 O.2    92  VAL92      -0.2864
     59  CB       147.1500   43.3060  131.3190 C.3    92  VAL92       0.0276
     60  CG1      148.0610   44.5170  131.5400 C.3    92  VAL92       0.0022
     61  CG2      147.3050   42.3300  132.4740 C.3    92  VAL92       0.0022
     62  N        142.4300   46.4550  130.8940 N.3    95  SER95      -0.1217
     63  CA       142.6080   47.2850  132.0820 C.3    95  SER95       0.1889
     64  C        143.1920   48.6430  131.7150 C.2    95  SER95       0.2288
     65  O        142.7740   49.6750  132.2550 O.2    95  SER95      -0.2866
     66  CB       143.5010   46.5650  133.0910 C.3    95  SER95       0.2089
     67  OG       143.8560   47.4170  134.1710 O.3    95  SER95      -0.2183
     68  N        137.9980   48.0650  137.0570 N.3   102  ILE102     -0.1245
     69  CA       138.6260   47.6160  138.2940 C.3   102  ILE102      0.1561
     70  C        138.4350   48.6500  139.3990 C.2   102  ILE102      0.2260
     71  O        138.1100   48.3030  140.5400 O.2   102  ILE102     -0.2867
     72  CB       140.1140   47.3040  138.0420 C.3   102  ILE102      0.0252
     73  CG1      140.2300   46.0200  137.2110 C.3   102  ILE102      0.0019
     74  CG2      140.8820   47.1860  139.3580 C.3   102  ILE102      0.0019
     75  CD1      141.6510   45.5790  136.9030 C.3   102  ILE102      0.0001
     76  N        148.5450   46.2810  137.4170 N.3   126  SER126     -0.1217
     77  CA       147.8240   45.2850  136.6290 C.3   126  SER126      0.1889
     78  C        148.7400   44.1980  136.0820 C.2   126  SER126      0.2288
     79  O        148.3460   43.0190  136.1290 O.2   126  SER126     -0.2866
     80  CB       147.0520   45.9750  135.4960 C.3   126  SER126      0.2089
     81  OG       145.8910   46.6130  136.0050 O.3   126  SER126     -0.2183
     82  N        149.5470   40.7700  138.0490 N.3   129  ILE129     -0.1245
     83  CA       148.6660   39.6060  138.0070 C.3   129  ILE129      0.1561
     84  C        149.3430   38.4540  137.2750 C.2   129  ILE129      0.2260
     85  O        149.2770   37.2970  137.7050 O.2   129  ILE129     -0.2867
     86  CB       147.3270   39.9830  137.3450 C.3   129  ILE129      0.0252
     87  CG1      146.6390   41.1200  138.1080 C.3   129  ILE129      0.0019
     88  CG2      146.4130   38.7770  137.2580 C.3   129  ILE129      0.0019
     89  CD1      146.2370   40.7660  139.5130 C.3   129  ILE129      0.0001
     90  N        150.0580   34.7410  138.9390 N.3   133  PHE133     -0.1241
     91  CA       149.6420   33.4530  138.3890 C.3   133  PHE133      0.1605
     92  C        150.8340   32.5180  138.2280 C.2   133  PHE133      0.2264
     93  O        150.7820   31.3520  138.6380 O.2   133  PHE133     -0.2867
     94  CB       148.9340   33.6560  137.0470 C.3   133  PHE133      0.0534
     95  CG       147.4370   33.6930  137.1500 C.ar  133  PHE133     -0.0203
     96  CD1      146.7790   34.8670  137.4690 C.ar  133  PHE133     -0.0042
     97  CD2      146.6860   32.5540  136.9150 C.ar  133  PHE133     -0.0042
     98  CE1      145.3960   34.9010  137.5590 C.ar  133  PHE133     -0.0003
     99  CE2      145.3040   32.5840  137.0050 C.ar  133  PHE133     -0.0003
    100  CZ       144.6610   33.7580  137.3270 C.ar  133  PHE133     -0.0000
    101  N        140.7600   24.0570  132.8630 N.3   212  LEU212     -0.1231
    102  CA       139.7520   25.0510  133.2230 C.3   212  LEU212      0.1693
    103  C        138.4920   24.3900  133.7680 C.2   212  LEU212      0.2591
    104  O        137.8390   24.9310  134.6680 O.2   212  LEU212     -0.2718
    105  CB       139.4100   25.9240  132.0150 C.3   212  LEU212      0.0284
    106  CG       140.3800   27.0470  131.6470 C.3   212  LEU212      0.0019
    107  CD1      139.8960   27.7330  130.3790 C.3   212  LEU212      0.0001
    108  CD2      140.5320   28.0650  132.7760 C.3   212  LEU212      0.0001
    109  N        138.1280   23.2200  133.2360 N.am  213  LYS213     -0.1980
    110  CA       136.9220   22.5460  133.7050 C.3   213  LYS213      0.1596
    111  C        136.9950   22.2420  135.1950 C.2   213  LYS213      0.2287
    112  O        135.9720   22.2750  135.8870 O.2   213  LYS213     -0.2864
    113  CB       136.6970   21.2580  132.9130 C.3   213  LYS213      0.0298
    114  CG       135.4510   20.4650  133.3530 C.3   213  LYS213      0.0038
    115  CD       134.2200   21.3840  133.4120 C.3   213  LYS213      0.0206
    116  CE       132.9740   20.7360  134.0300 C.3   213  LYS213      0.1093
    117  NZ       133.2990   19.9430  135.2130 N.3   213  LYS213     -0.1314
    118  N        139.4150   23.8860  137.2390 N.3   215  PHE215     -0.1227
    119  CA       139.9270   25.0610  137.9310 C.3   215  PHE215      0.1736
    120  C        138.8350   26.0980  138.1750 C.2   215  PHE215      0.2595
    121  O        138.7100   26.6230  139.2870 O.2   215  PHE215     -0.2718
    122  CB       141.0710   25.6790  137.1260 C.3   215  PHE215      0.0547
    123  CG       141.4950   27.0360  137.6180 C.ar  215  PHE215     -0.0202
    124  CD1      142.4220   27.1610  138.6380 C.ar  215  PHE215     -0.0042
    125  CD2      140.9740   28.1860  137.0530 C.ar  215  PHE215     -0.0042
    126  CE1      142.8170   28.4080  139.0880 C.ar  215  PHE215     -0.0003
    127  CE2      141.3630   29.4320  137.5010 C.ar  215  PHE215     -0.0003
    128  CZ       142.2860   29.5420  138.5200 C.ar  215  PHE215     -0.0000
    129  N        138.0300   26.4030  137.1530 N.am  216  PHE216     -0.1963
    130  CA       137.1870   27.5910  137.2250 C.3   216  PHE216      0.1756
    131  C        136.0630   27.4430  138.2460 C.2   216  PHE216      0.2461
    132  O        135.8010   28.3900  138.9970 O.2   216  PHE216     -0.2730
    133  CB       136.6000   27.9370  135.8560 C.3   216  PHE216      0.0574
    134  CG       135.9690   29.3000  135.8090 C.ar  216  PHE216     -0.0200
    135  CD1      136.7520   30.4380  135.9100 C.ar  216  PHE216     -0.0042
    136  CD2      134.5970   29.4450  135.6750 C.ar  216  PHE216     -0.0042
    137  CE1      136.1810   31.6950  135.8760 C.ar  216  PHE216     -0.0003
    138  CE2      134.0190   30.7030  135.6380 C.ar  216  PHE216     -0.0003
    139  CZ       134.8120   31.8280  135.7390 C.ar  216  PHE216     -0.0000
    140  N        135.3620   26.3070  138.3050 N.am  217  PRO217     -0.2727
    141  CA       134.3260   26.1660  139.3450 C.3   217  PRO217      0.1402
    142  C        134.8630   26.4120  140.7440 C.2   217  PRO217      0.2269
    143  O        134.2470   27.1420  141.5320 O.2   217  PRO217     -0.2865
    144  CB       133.8410   24.7220  139.1580 C.3   217  PRO217      0.0296
    145  CG       134.1500   24.3970  137.7410 C.3   217  PRO217      0.0237
    146  CD       135.4180   25.1290  137.4230 C.3   217  PRO217      0.0939
    147  N        137.7560   27.9710  141.5060 N.3   219  PHE219     -0.1241
    148  CA       138.2570   29.3400  141.5630 C.3   219  PHE219      0.1605
    149  C        137.1360   30.3150  141.8990 C.2   219  PHE219      0.2264
    150  O        137.2880   31.1790  142.7700 O.2   219  PHE219     -0.2867
    151  CB       138.9210   29.6990  140.2300 C.3   219  PHE219      0.0534
    152  CG       139.3910   31.1260  140.1420 C.ar  219  PHE219     -0.0203
    153  CD1      140.5380   31.5410  140.7980 C.ar  219  PHE219     -0.0042
    154  CD2      138.6950   32.0470  139.3820 C.ar  219  PHE219     -0.0042
    155  CE1      140.9690   32.8520  140.7100 C.ar  219  PHE219     -0.0003
    156  CE2      139.1190   33.3630  139.2890 C.ar  219  PHE219     -0.0003
    157  CZ       140.2560   33.7660  139.9530 C.ar  219  PHE219     -0.0000
@<TRIPOS>BOND
     1    31    32    1
     2    32    33    1
     3    32    35    1
     4    36    35    1
     5    36    38    1
     6    47    48    1
     7    34    33    2
     8    33    39   am
     9    35    37    1
    10    57    58    2
    11    57    56    1
    12    20    21    1
    13   107   106    1
    14    41    42    2
    15    41    40    1
    16    48    49    1
    17    48    51    1
    18    39    40    1
    19    22    23    2
    20    22    21    1
    21    54    52    1
    22    55    49   am
    23    55    56    1
    24    62    63    1
    25    49    50    2
    26    56    59    1
    27    21    24    1
    28    59    60    1
    29    59    61    1
    30    52    51    1
    31    52    53    1
    32    40    43    1
    33   106   105    1
    34   106   108    1
    35    64    63    1
    36    64    65    2
    37   105   102    1
    38    63    66    1
    39    43    45    1
    40    43    44    1
    41    24    25    1
    42   101   102    1
    43   113   114    1
    44   113   110    1
    45    66    67    1
    46   102   103    1
    47   109   110    1
    48   109   103   am
    49    44    46    1
    50   114   115    1
    51   115   116    1
    52    25    26   ar
    53    25    27   ar
    54    26    28   ar
    55   110   111    1
    56   103   104    2
    57   116   117    1
    58    27    29   ar
    59    28    30   ar
    60    29    30   ar
    61   111   112    2
    62    80    81    1
    63    80    77    1
    64   138   136   ar
    65   138   139   ar
    66   136   134   ar
    67   139   137   ar
    68   134   133    1
    69   134   135   ar
    70   133   130    1
    71   137   135   ar
    72    78    79    2
    73    78    77    1
    74    77    76    1
    75    75    73    1
    76    97    99   ar
    77    97    95   ar
    78    99   100   ar
    79    94    95    1
    80    94    91    1
    81   125   127   ar
    82   125   123   ar
    83    68    69    1
    84   122   123    1
    85   122   119    1
    86    95    96   ar
    87   129   130    1
    88   129   120   am
    89    73    72    1
    90   130   131    1
    91   118   119    1
    92    88    86    1
    93    84    85    2
    94    84    83    1
    95   100    98   ar
    96    86    83    1
    97    86    87    1
    98   146   145    1
    99   146   140    1
   100    96    98   ar
   101   127   128   ar
   102   123   124   ar
   103   145   144    1
   104   119   120    1
   105    83    82    1
   106    72    69    1
   107    72    74    1
   108    87    89    1
   109   120   121    2
   110    92    91    1
   111    92    93    2
   112   131   140   am
   113   131   132    2
   114    69    70    1
   115   140   141    1
   116    91    90    1
   117   128   126   ar
   118    11    10   ar
   119    11     9   ar
   120   124   126   ar
   121    10     8   ar
   122     9     7   ar
   123   144   141    1
   124   156   154   ar
   125   156   157   ar
   126   141   142    1
   127   154   152   ar
   128    70    71    2
   129     8     6   ar
   130   157   155   ar
   131     7     6   ar
   132   152   151    1
   133   152   153   ar
   134   151   148    1
   135     6     5    1
   136    19    17    1
   137   155   153   ar
   138    18    17    1
   139   142   143    2
   140     5     2    1
   141    17    16    1
   142   147   148    1
   143   148   149    1
   144   149   150    2
   145    16    13    1
   146     2     3    1
   147     2     1    1
   148     3     4    2
   149    13    12    1
   150    13    14    1
   151    14    15    2
