@<TRIPOS>MOLECULE
tmp/5t77A22.pdb
 136 129 0 0 0
SMALL
GASTEIGER

@<TRIPOS>ATOM
      1  N        135.0370   20.4560  172.7720 N.3   285  ASN285     -0.1240
      2  CA       135.0350   21.2360  174.0040 C.3   285  ASN285      0.1653
      3  C        136.4540   21.5950  174.4250 C.2   285  ASN285      0.2266
      4  O        136.7130   22.7200  174.8660 O.2   285  ASN285     -0.2867
      5  CB       134.3260   20.4660  175.1160 C.3   285  ASN285      0.1155
      6  CG       132.8400   20.7400  175.1550 C.2   285  ASN285      0.2627
      7  OD1      132.4030   21.7660  175.6800 O.2   285  ASN285     -0.2716
      8  ND2      132.0520   19.8230  174.6060 N.am  285  ASN285     -0.0877
      9  N        138.7990   30.1530  173.9160 N.3   292  LEU292     -0.1245
     10  CA       138.3170   31.1340  174.8800 C.3   292  LEU292      0.1561
     11  C        139.4400   31.6030  175.7960 C.2   292  LEU292      0.2260
     12  O        139.5330   32.7940  176.1170 O.2   292  LEU292     -0.2867
     13  CB       137.1760   30.5380  175.7010 C.3   292  LEU292      0.0270
     14  CG       135.9350   30.1260  174.9090 C.3   292  LEU292      0.0019
     15  CD1      135.0320   29.2480  175.7550 C.3   292  LEU292      0.0001
     16  CD2      135.1870   31.3500  174.4310 C.3   292  LEU292      0.0001
     17  N        139.4470   35.7930  174.9880 N.3   296  ILE296     -0.1245
     18  CA       138.6850   36.6450  175.9000 C.3   296  ILE296      0.1561
     19  C        139.6260   37.6320  176.5830 C.2   296  ILE296      0.2260
     20  O        139.3590   38.8420  176.5430 O.2   296  ILE296     -0.2867
     21  CB       137.8840   35.8110  176.9120 C.3   296  ILE296      0.0252
     22  CG1      136.7360   35.1040  176.1850 C.3   296  ILE296      0.0019
     23  CG2      137.3060   36.7000  178.0080 C.3   296  ILE296      0.0019
     24  CD1      135.9470   34.1210  177.0290 C.3   296  ILE296      0.0001
     25  N        140.8680   40.0980  173.8960 N.3   299  MET299     -0.1245
     26  CA       139.8600   41.0870  173.5320 C.3   299  MET299      0.1570
     27  C        139.8040   42.2090  174.5600 C.2   299  MET299      0.2261
     28  O        139.7970   43.3950  174.2060 O.2   299  MET299     -0.2867
     29  CB       138.4920   40.4180  173.3980 C.3   299  MET299      0.0387
     30  CG       137.3520   41.3860  173.0870 C.3   299  MET299      0.0595
     31  SD       135.7120   40.6680  173.2780 S.3   299  MET299     -0.1393
     32  CE       135.7020   40.2710  175.0220 C.3   299  MET299      0.0692
     33  N        136.5780   36.7980  170.0090 N.3   339  PRO339     -0.2102
     34  CA       136.1860   35.4970  170.5730 C.3   339  PRO339      0.1504
     35  C        135.1310   34.7870  169.7480 C.2   339  PRO339      0.2575
     36  O        135.1210   33.5490  169.6900 O.2   339  PRO339     -0.2718
     37  CB       135.6670   35.8560  171.9740 C.3   339  PRO339      0.0282
     38  CG       135.3190   37.2950  171.9120 C.3   339  PRO339      0.0208
     39  CD       136.2460   37.9170  170.9120 C.3   339  PRO339      0.0893
     40  N        134.2410   35.5380  169.1000 N.am  340  PHE340     -0.1977
     41  CA       133.2050   34.9150  168.2840 C.3   340  PHE340      0.1639
     42  C        133.7970   34.2620  167.0420 C.2   340  PHE340      0.2290
     43  O        133.4190   33.1390  166.6870 O.2   340  PHE340     -0.2864
     44  CB       132.1500   35.9530  167.9190 C.3   340  PHE340      0.0560
     45  CG       131.4520   36.5350  169.1140 C.ar  340  PHE340     -0.0200
     46  CD1      130.4130   35.8500  169.7220 C.ar  340  PHE340     -0.0042
     47  CD2      131.8440   37.7550  169.6420 C.ar  340  PHE340     -0.0042
     48  CE1      129.7710   36.3710  170.8220 C.ar  340  PHE340     -0.0003
     49  CE2      131.2030   38.2830  170.7440 C.ar  340  PHE340     -0.0003
     50  CZ       130.1650   37.5900  171.3360 C.ar  340  PHE340     -0.0000
     51  N        135.5990   31.0850  168.2610 N.3   343  ILE343     -0.1245
     52  CA       134.6400   29.9890  168.3850 C.3   343  ILE343      0.1561
     53  C        134.2150   29.5100  167.0050 C.2   343  ILE343      0.2260
     54  O        134.1680   28.3040  166.7310 O.2   343  ILE343     -0.2867
     55  CB       133.4260   30.4290  169.2220 C.3   343  ILE343      0.0252
     56  CG1      133.8390   30.7040  170.6690 C.3   343  ILE343      0.0019
     57  CG2      132.3300   29.3700  169.1900 C.3   343  ILE343      0.0019
     58  CD1      132.7990   31.4720  171.4380 C.3   343  ILE343      0.0001
     59  N        128.2120   32.3550  164.8860 N.3   399  VAL399     -0.1245
     60  CA       128.4280   31.5640  166.0930 C.3   399  VAL399      0.1561
     61  C        127.1060   31.0260  166.6220 C.2   399  VAL399      0.2260
     62  O        127.0220   29.8740  167.0650 O.2   399  VAL399     -0.2867
     63  CB       129.1680   32.4030  167.1530 C.3   399  VAL399      0.0252
     64  CG1      129.0150   31.7990  168.5460 C.3   399  VAL399      0.0019
     65  CG2      130.6380   32.5100  166.7970 C.3   399  VAL399      0.0019
     66  N        126.4970   27.1470  167.1960 N.3   403  LEU403     -0.1231
     67  CA       126.2400   26.6460  168.5440 C.3   403  LEU403      0.1693
     68  C        124.9180   25.8920  168.6070 C.2   403  LEU403      0.2592
     69  O        124.8100   24.8760  169.3030 O.2   403  LEU403     -0.2718
     70  CB       126.2530   27.7960  169.5520 C.3   403  LEU403      0.0284
     71  CG       127.6250   28.3980  169.8620 C.3   403  LEU403      0.0019
     72  CD1      127.4710   29.6010  170.7740 C.3   403  LEU403      0.0001
     73  CD2      128.5560   27.3690  170.4930 C.3   403  LEU403      0.0001
     74  N        123.9420   26.3320  167.8360 N.am  404  PHE404     -0.1976
     75  CA       122.6860   25.6190  167.7670 C.3   404  PHE404      0.1639
     76  C        122.9210   24.2780  167.0590 C.2   404  PHE404      0.2290
     77  O        122.1320   23.3500  167.2130 O.2   404  PHE404     -0.2864
     78  CB       121.6250   26.4380  167.0310 C.3   404  PHE404      0.0560
     79  CG       120.8850   27.4030  167.9140 C.ar  404  PHE404     -0.0200
     80  CD1      119.9060   26.9520  168.7840 C.ar  404  PHE404     -0.0042
     81  CD2      121.1670   28.7580  167.8760 C.ar  404  PHE404     -0.0042
     82  CE1      119.2230   27.8350  169.5990 C.ar  404  PHE404     -0.0003
     83  CE2      120.4880   29.6470  168.6900 C.ar  404  PHE404     -0.0003
     84  CZ       119.5140   29.1840  169.5520 C.ar  404  PHE404     -0.0000
     85  N        125.4040   22.0310  169.6120 N.3   407  LYS407     -0.1231
     86  CA       124.6680   21.8350  170.8620 C.3   407  LYS407      0.1693
     87  C        125.6070   21.4770  172.0120 C.2   407  LYS407      0.2593
     88  O        125.2810   20.6630  172.8790 O.2   407  LYS407     -0.2718
     89  CB       123.5940   20.7620  170.6910 C.3   407  LYS407      0.0285
     90  CG       122.5470   21.1010  169.6460 C.3   407  LYS407      0.0035
     91  CD       121.5990   19.9340  169.4150 C.3   407  LYS407      0.0206
     92  CE       120.5230   20.2880  168.4040 C.3   407  LYS407      0.1093
     93  NZ       121.0940   20.6120  167.0650 N.3   407  LYS407     -0.1314
     94  N        126.7890   22.0870  172.0170 N.am  408  THR408     -0.1939
     95  CA       127.7350   21.8820  173.1020 C.3   408  THR408      0.2028
     96  C        128.6090   23.1180  173.2360 C.2   408  THR408      0.2642
     97  O        128.9340   23.7830  172.2480 O.2   408  THR408     -0.2714
     98  CB       128.6020   20.6320  172.8840 C.3   408  THR408      0.1808
     99  OG1      129.2350   20.2680  174.1180 O.3   408  THR408     -0.2208
    100  CG2      129.6710   20.8700  171.8180 C.3   408  THR408      0.0379
    101  N        128.9840   23.4170  174.4720 N.am  409  PHE409     -0.1973
    102  CA       129.8070   24.5800  174.7610 C.3   409  PHE409      0.1639
    103  C        130.2920   24.4880  176.2030 C.2   409  PHE409      0.2290
    104  O        129.5090   24.1460  177.0980 O.2   409  PHE409     -0.2864
    105  CB       129.0110   25.8650  174.5220 C.3   409  PHE409      0.0560
    106  CG       129.8210   27.1190  174.6680 C.ar  409  PHE409     -0.0200
    107  CD1      130.5650   27.6060  173.6060 C.ar  409  PHE409     -0.0042
    108  CD2      129.8270   27.8200  175.8610 C.ar  409  PHE409     -0.0042
    109  CE1      131.3090   28.7630  173.7370 C.ar  409  PHE409     -0.0003
    110  CE2      130.5700   28.9780  175.9960 C.ar  409  PHE409     -0.0003
    111  CZ       131.3110   29.4490  174.9320 C.ar  409  PHE409     -0.0000
    112  N        130.5670   25.8590  179.2450 N.3   411  ILE411     -0.1245
    113  CA       130.0330   27.0380  179.9210 C.3   411  ILE411      0.1561
    114  C        130.8380   27.3500  181.1770 C.2   411  ILE411      0.2260
    115  O        131.1920   28.5070  181.4300 O.2   411  ILE411     -0.2867
    116  CB       128.5370   26.8440  180.2400 C.3   411  ILE411      0.0252
    117  CG1      127.7480   26.6010  178.9490 C.3   411  ILE411      0.0019
    118  CG2      127.9880   28.0700  180.9710 C.3   411  ILE411      0.0019
    119  CD1      126.2730   26.2870  179.1650 C.3   411  ILE411      0.0001
    120  N        134.1050   28.9680  180.2880 N.3   414  PHE414     -0.1241
    121  CA       133.8740   30.3110  179.7670 C.3   414  PHE414      0.1605
    122  C        133.6740   31.3100  180.8990 C.2   414  PHE414      0.2264
    123  O        134.1720   32.4410  180.8340 O.2   414  PHE414     -0.2867
    124  CB       132.6630   30.3180  178.8340 C.3   414  PHE414      0.0534
    125  CG       132.1220   31.6930  178.5640 C.ar  414  PHE414     -0.0203
    126  CD1      132.7290   32.5220  177.6360 C.ar  414  PHE414     -0.0042
    127  CD2      131.0100   32.1590  179.2460 C.ar  414  PHE414     -0.0042
    128  CE1      132.2350   33.7900  177.3940 C.ar  414  PHE414     -0.0003
    129  CE2      130.5130   33.4250  179.0050 C.ar  414  PHE414     -0.0003
    130  CZ       131.1260   34.2400  178.0780 C.ar  414  PHE414     -0.0000
    131  N        136.2600   34.2880  181.8570 N.3   418  SER418     -0.1217
    132  CA       135.7450   35.6520  181.8530 C.3   418  SER418      0.1889
    133  C        136.0370   36.3560  183.1720 C.2   418  SER418      0.2288
    134  O        136.4040   37.5360  183.1810 O.2   418  SER418     -0.2866
    135  CB       134.2430   35.6380  181.5690 C.3   418  SER418      0.2089
    136  OG       133.9770   35.0710  180.2960 O.3   418  SER418     -0.2183
@<TRIPOS>BOND
     1    59    60    1
     2    60    61    1
     3    60    63    1
     4    61    62    2
     5    43    42    2
     6    54    53    2
     7    65    63    1
     8    53    52    1
     9    78    75    1
    10    78    79    1
    11    42    41    1
    12    76    77    2
    13    76    75    1
    14    93    92    1
    15    63    64    1
    16    66    67    1
    17    75    74    1
    18    74    68   am
    19    81    79   ar
    20    81    83   ar
    21    79    80   ar
    22    44    41    1
    23    44    45    1
    24    51    52    1
    25    41    40    1
    26    52    55    1
    27    92    91    1
    28    67    68    1
    29    67    70    1
    30    68    69    2
    31    83    84   ar
    32    80    82   ar
    33    40    35   am
    34    45    47   ar
    35    45    46   ar
    36    57    55    1
    37    55    56    1
    38    91    90    1
    39    70    71    1
    40    84    82   ar
    41    85    86    1
    42    47    49   ar
    43    90    89    1
    44    36    35    2
    45    46    48   ar
    46    35    34    1
    47    71    73    1
    48    71    72    1
    49    33    34    1
    50    33    39    1
    51    34    37    1
    52    56    58    1
    53    89    86    1
    54    49    50   ar
    55    48    50   ar
    56    86    87    1
    57    39    38    1
    58   100    98    1
    59    38    37    1
    60    87    94   am
    61    87    88    2
    62    94    95    1
    63    97    96    2
    64     1     2    1
    65    98    95    1
    66    98    99    1
    67    30    31    1
    68    30    29    1
    69    95    96    1
    70    96   101   am
    71    31    32    1
    72    29    26    1
    73    26    25    1
    74    26    27    1
    75   107   109   ar
    76   107   106   ar
    77   109   111   ar
    78     9    10    1
    79     2     3    1
    80     2     5    1
    81    28    27    2
    82     3     4    2
    83    16    14    1
    84   101   102    1
    85   105   106    1
    86   105   102    1
    87     8     6   am
    88   106   108   ar
    89   102   103    1
    90    10    13    1
    91    10    11    1
    92    14    13    1
    93    14    15    1
    94   111   110   ar
    95    17    18    1
    96     5     6    1
    97     6     7    2
    98    11    12    2
    99   108   110   ar
   100    18    19    1
   101    18    21    1
   102    22    21    1
   103    22    24    1
   104   103   104    2
   105    20    19    2
   106    21    23    1
   107   128   126   ar
   108   128   130   ar
   109   126   125   ar
   110   130   129   ar
   111   125   124    1
   112   125   127   ar
   113   124   121    1
   114   117   119    1
   115   117   116    1
   116   129   127   ar
   117   112   113    1
   118   121   120    1
   119   121   122    1
   120   113   116    1
   121   113   114    1
   122   116   118    1
   123   136   135    1
   124   123   122    2
   125   114   115    2
   126   135   132    1
   127   132   131    1
   128   132   133    1
   129   133   134    2
