@<TRIPOS>MOLECULE
tmp/5t77A05.pdb
 91 89 0 0 0
SMALL
GASTEIGER

@<TRIPOS>ATOM
      1  N        147.9010   55.2610  185.1550 N.3   433  PHE433     -0.1227
      2  CA       148.1000   56.5770  185.7590 C.3   433  PHE433      0.1736
      3  C        149.0780   57.4690  185.0050 C.2   433  PHE433      0.2596
      4  O        148.8170   58.6660  184.8680 O.2   433  PHE433     -0.2718
      5  CB       148.5740   56.4270  187.2260 C.3   433  PHE433      0.0547
      6  CG       149.6080   55.3490  187.4390 C.ar  433  PHE433     -0.0202
      7  CD1      150.9240   55.5330  187.0430 C.ar  433  PHE433     -0.0042
      8  CD2      149.2670   54.1610  188.0680 C.ar  433  PHE433     -0.0042
      9  CE1      151.8730   54.5460  187.2500 C.ar  433  PHE433     -0.0003
     10  CE2      150.2130   53.1720  188.2790 C.ar  433  PHE433     -0.0003
     11  CZ       151.5160   53.3650  187.8700 C.ar  433  PHE433     -0.0000
     12  N        150.1920   56.9250  184.5110 N.am  434  THR434     -0.1953
     13  CA       151.3060   57.7770  184.0960 C.3   434  THR434      0.1897
     14  C        151.0020   58.5460  182.8140 C.2   434  THR434      0.2313
     15  O        151.4240   59.6990  182.6680 O.2   434  THR434     -0.2863
     16  CB       152.5800   56.9460  183.9170 C.3   434  THR434      0.1794
     17  OG1      153.6100   57.7710  183.3580 O.3   434  THR434     -0.2208
     18  CG2      152.3490   55.7520  183.0010 C.3   434  THR434      0.0378
     19  N        152.4210   57.9290  180.1660 N.3   436  ASN436     -0.1240
     20  CA       153.6030   57.7540  179.3340 C.3   436  ASN436      0.1653
     21  C        153.2610   56.9010  178.1180 C.2   436  ASN436      0.2266
     22  O        152.4560   55.9700  178.1990 O.2   436  ASN436     -0.2867
     23  CB       154.7240   57.1030  180.1480 C.3   436  ASN436      0.1155
     24  CG       155.9700   56.8440  179.3260 C.2   436  ASN436      0.2627
     25  OD1      156.1650   55.7460  178.8040 O.2   436  ASN436     -0.2716
     26  ND2      156.8250   57.8540  179.2120 N.am  436  ASN436     -0.0877
     27  N        154.8590   54.6720  176.5010 N.3   438  PHE438     -0.1227
     28  CA       155.3300   53.2930  176.4940 C.3   438  PHE438      0.1736
     29  C        154.7870   52.4830  177.6620 C.2   438  PHE438      0.2595
     30  O        155.0550   51.2810  177.7450 O.2   438  PHE438     -0.2718
     31  CB       156.8610   53.2710  176.5090 C.3   438  PHE438      0.0547
     32  CG       157.4830   54.1530  175.4610 C.ar  438  PHE438     -0.0202
     33  CD1      157.6000   53.7190  174.1510 C.ar  438  PHE438     -0.0042
     34  CD2      157.9380   55.4210  175.7830 C.ar  438  PHE438     -0.0042
     35  CE1      158.1640   54.5300  173.1830 C.ar  438  PHE438     -0.0003
     36  CE2      158.5050   56.2370  174.8210 C.ar  438  PHE438     -0.0003
     37  CZ       158.6170   55.7910  173.5190 C.ar  438  PHE438     -0.0000
     38  N        154.0120   53.1100  178.5490 N.am  439  TRP439     -0.1976
     39  CA       153.5020   52.4190  179.7260 C.3   439  TRP439      0.1640
     40  C        152.6120   51.2380  179.3600 C.2   439  TRP439      0.2290
     41  O        152.5540   50.2550  180.1070 O.2   439  TRP439     -0.2864
     42  CB       152.7340   53.4060  180.6030 C.3   439  TRP439      0.0576
     43  CG       152.2250   52.8080  181.8690 C.ar  439  TRP439      0.0006
     44  CD1      150.9270   52.7420  182.2830 C.ar  439  TRP439      0.0946
     45  CD2      153.0070   52.1890  182.8950 C.ar  439  TRP439      0.0152
     46  NE1      150.8530   52.1210  183.5060 N.ar  439  TRP439     -0.2442
     47  CE2      152.1170   51.7700  183.9030 C.ar  439  TRP439      0.0810
     48  CE3      154.3740   51.9470  183.0590 C.ar  439  TRP439      0.0012
     49  CZ2      152.5490   51.1230  185.0590 C.ar  439  TRP439      0.0191
     50  CZ3      154.8020   51.3060  184.2060 C.ar  439  TRP439      0.0001
     51  CH2      153.8930   50.9010  185.1910 C.ar  439  TRP439      0.0015
     52  N        153.0080   48.9270  177.3970 N.3   441  LEU441     -0.1231
     53  CA       153.7760   47.6880  177.3220 C.3   441  LEU441      0.1693
     54  C        153.8750   47.0210  178.6880 C.2   441  LEU441      0.2591
     55  O        153.7600   45.7940  178.7990 O.2   441  LEU441     -0.2718
     56  CB       155.1700   47.9700  176.7600 C.3   441  LEU441      0.0284
     57  CG       155.2200   48.4960  175.3220 C.3   441  LEU441      0.0019
     58  CD1      156.6010   49.0480  175.0130 C.3   441  LEU441      0.0001
     59  CD2      154.8470   47.4080  174.3260 C.3   441  LEU441      0.0001
     60  N        154.0900   47.8110  179.7420 N.am  442  ILE442     -0.1980
     61  CA       154.1480   47.2510  181.0880 C.3   442  ILE442      0.1595
     62  C        152.7720   46.7560  181.5170 C.2   442  ILE442      0.2287
     63  O        152.6500   45.7300  182.1980 O.2   442  ILE442     -0.2864
     64  CB       154.7060   48.2920  182.0780 C.3   442  ILE442      0.0276
     65  CG1      156.0500   48.8430  181.5870 C.3   442  ILE442      0.0022
     66  CG2      154.8530   47.6860  183.4740 C.3   442  ILE442      0.0022
     67  CD1      157.1000   47.7820  181.2850 C.3   442  ILE442      0.0001
     68  N        150.5810   45.4660  179.6240 N.3   444  ILE444     -0.1231
     69  CA       150.3870   44.1760  178.9690 C.3   444  ILE444      0.1692
     70  C        151.0470   43.0750  179.7870 C.2   444  ILE444      0.2591
     71  O        150.4620   42.0110  180.0150 O.2   444  ILE444     -0.2718
     72  CB       150.9270   44.2210  177.5280 C.3   444  ILE444      0.0266
     73  CG1      150.0240   45.1080  176.6660 C.3   444  ILE444      0.0019
     74  CG2      151.0250   42.8160  176.9350 C.3   444  ILE444      0.0020
     75  CD1      150.5210   45.3270  175.2510 C.3   444  ILE444      0.0001
     76  N        152.2780   43.3140  180.2430 N.am  445  LEU445     -0.1980
     77  CA       152.9540   42.3290  181.0830 C.3   445  LEU445      0.1596
     78  C        152.1900   42.1140  182.3820 C.2   445  LEU445      0.2287
     79  O        151.9250   40.9740  182.7800 O.2   445  LEU445     -0.2864
     80  CB       154.3920   42.7690  181.3700 C.3   445  LEU445      0.0297
     81  CG       155.3450   42.8470  180.1760 C.3   445  LEU445      0.0022
     82  CD1      156.7280   43.2910  180.6330 C.3   445  LEU445      0.0001
     83  CD2      155.4320   41.5120  179.4520 C.3   445  LEU445      0.0001
     84  N        149.0890   40.1030  181.6660 N.3   448  ILE448     -0.1245
     85  CA       149.3830   38.6890  181.4430 C.3   448  ILE448      0.1561
     86  C        149.6700   37.9950  182.7690 C.2   448  ILE448      0.2260
     87  O        149.1530   36.9060  183.0450 O.2   448  ILE448     -0.2867
     88  CB       150.5540   38.5310  180.4550 C.3   448  ILE448      0.0252
     89  CG1      150.1290   39.0000  179.0580 C.3   448  ILE448      0.0019
     90  CG2      151.0360   37.0790  180.4150 C.3   448  ILE448      0.0019
     91  CD1      151.2150   38.9000  177.9990 C.3   448  ILE448      0.0001
@<TRIPOS>BOND
     1    35    37   ar
     2    35    33   ar
     3    37    36   ar
     4    33    32   ar
     5    59    57    1
     6    36    34   ar
     7    58    57    1
     8    75    73    1
     9    57    56    1
    10    32    34   ar
    11    32    31    1
    12    28    27    1
    13    28    31    1
    14    28    29    1
    15    73    72    1
    16    56    53    1
    17    74    72    1
    18    53    52    1
    19    53    54    1
    20    72    69    1
    21    29    30    2
    22    29    38   am
    23    91    89    1
    24    21    22    2
    25    21    20    1
    26    38    39    1
    27    54    55    2
    28    54    60   am
    29    25    24    2
    30    69    68    1
    31    69    70    1
    32    89    88    1
    33    26    24   am
    34    24    23    1
    35    20    23    1
    36    20    19    1
    37    40    39    1
    38    40    41    2
    39    83    81    1
    40    39    42    1
    41    60    61    1
    42    70    71    2
    43    70    76   am
    44    81    82    1
    45    81    80    1
    46    76    77    1
    47    90    88    1
    48    88    85    1
    49    42    43    1
    50    77    80    1
    51    77    78    1
    52    61    62    1
    53    61    64    1
    54    67    65    1
    55    85    84    1
    56    85    86    1
    57    62    63    2
    58    65    64    1
    59    43    44   ar
    60    43    45   ar
    61    64    66    1
    62    44    46   ar
    63    78    79    2
    64    15    14    2
    65    86    87    2
    66    14    13    1
    67    45    48   ar
    68    45    47   ar
    69    18    16    1
    70    48    50   ar
    71    17    16    1
    72    46    47   ar
    73    47    49   ar
    74    16    13    1
    75    13    12    1
    76    50    51   ar
    77    12     3   am
    78     4     3    2
    79     3     2    1
    80    49    51   ar
    81     1     2    1
    82     2     5    1
    83     7     9   ar
    84     7     6   ar
    85     5     6    1
    86     9    11   ar
    87     6     8   ar
    88    11    10   ar
    89     8    10   ar
