@<TRIPOS>MOLECULE
tmp/5t7eD01.pdb
 114 111 0 0 0
SMALL
GASTEIGER

@<TRIPOS>ATOM
      1  N         -8.6350    7.2250   24.6250 N.3    28  VAL28      -0.1231
      2  CA        -8.2650    6.9520   23.2410 C.3    28  VAL28       0.1692
      3  C         -8.8350    5.6230   22.7700 C.2    28  VAL28       0.2592
      4  O         -9.0040    5.4140   21.5620 O.2    28  VAL28      -0.2718
      5  CB        -6.7340    6.9650   23.0730 C.3    28  VAL28       0.0266
      6  CG1       -6.1650    8.3160   23.4860 C.3    28  VAL28       0.0020
      7  CG2       -6.0890    5.8370   23.8690 C.3    28  VAL28       0.0020
      8  N         -9.1240    4.7160   23.6990 N.am   29  ASN29      -0.1960
      9  CA        -9.7670    3.4430   23.4150 C.3    29  ASN29       0.1819
     10  C        -11.1070    3.4290   24.1330 C.2    29  ASN29       0.2621
     11  O        -11.1640    3.6570   25.3450 O.2    29  ASN29      -0.2715
     12  CB        -8.8850    2.2800   23.8780 C.3    29  ASN29       0.1195
     13  CG        -9.4440    0.9250   23.4950 C.2    29  ASN29       0.2630
     14  OD1      -10.6190    0.6330   23.7190 O.2    29  ASN29      -0.2716
     15  ND2       -8.5960    0.0840   22.9160 N.am   29  ASN29      -0.0877
     16  N        -12.1850    3.1800   23.3900 N.am   30  PHE30      -0.1960
     17  CA       -13.5250    3.2780   23.9590 C.3    30  PHE30       0.1771
     18  C        -13.9650    2.0160   24.6910 C.2    30  PHE30       0.2619
     19  O        -15.1310    1.9270   25.0920 O.2    30  PHE30      -0.2715
     20  CB       -14.5370    3.6270   22.8640 C.3    30  PHE30       0.0574
     21  CG       -14.6850    5.1050   22.6220 C.ar   30  PHE30      -0.0200
     22  CD1      -13.6700    5.9860   22.9640 C.ar   30  PHE30      -0.0042
     23  CD2      -15.8430    5.6140   22.0580 C.ar   30  PHE30      -0.0042
     24  CE1      -13.8030    7.3390   22.7430 C.ar   30  PHE30      -0.0003
     25  CE2      -15.9820    6.9690   21.8330 C.ar   30  PHE30      -0.0003
     26  CZ       -14.9600    7.8340   22.1770 C.ar   30  PHE30      -0.0000
     27  N        -13.0780    1.0490   24.8870 N.am   31  ARG31      -0.1977
     28  CA       -13.3730   -0.0370   25.8070 C.3    31  ARG31       0.1597
     29  C        -13.3700    0.4940   27.2350 C.2    31  ARG31       0.2287
     30  O        -12.6020    1.3970   27.5760 O.2    31  ARG31      -0.2864
     31  CB       -12.3480   -1.1590   25.6650 C.3    31  ARG31       0.0334
     32  CG       -12.3980   -1.8880   24.3350 C.3    31  ARG31       0.0492
     33  CD       -11.3250   -2.9580   24.2570 C.3    31  ARG31       0.2205
     34  NE       -11.4000   -3.7120   23.0100 N.pl3  31  ARG31      -0.0865
     35  CZ       -12.2520   -4.7080   22.7860 C.cat  31  ARG31       0.5346
     36  NH1      -13.1110   -5.0810   23.7260 N.pl3  31  ARG31       0.1354
     37  NH2      -12.2450   -5.3340   21.6190 N.pl3  31  ARG31       0.1354
     38  N         -1.4120   -2.5280   13.6630 N.3    67  TYR67      -0.1241
     39  CA        -2.1320   -3.5670   12.9450 C.3    67  TYR67       0.1605
     40  C         -3.2820   -2.9440   12.1690 C.2    67  TYR67       0.2264
     41  O         -3.6340   -1.7760   12.3550 O.2    67  TYR67      -0.2867
     42  CB        -2.6510   -4.6520   13.8970 C.3    67  TYR67       0.0534
     43  CG        -3.6900   -4.1700   14.8840 C.ar   67  TYR67      -0.0201
     44  CD1       -5.0440   -4.2910   14.6060 C.ar   67  TYR67      -0.0009
     45  CD2       -3.3180   -3.5980   16.0930 C.ar   67  TYR67      -0.0009
     46  CE1       -6.0000   -3.8560   15.5020 C.ar   67  TYR67       0.0417
     47  CE2       -4.2670   -3.1600   16.9960 C.ar   67  TYR67       0.0417
     48  CZ        -5.6070   -3.2910   16.6940 C.ar   67  TYR67       0.1957
     49  OH        -6.5570   -2.8570   17.5870 O.3    67  TYR67      -0.2866
     50  N         -8.9710   -0.4710    8.2180 N.3    82  GLU82      -0.1231
     51  CA        -8.8330    0.3530    9.4100 C.3    82  GLU82       0.1699
     52  C         -7.4750    0.0820   10.0430 C.2    82  GLU82       0.2593
     53  O         -7.0160   -1.0630   10.0730 O.2    82  GLU82      -0.2718
     54  CB        -9.9460    0.0640   10.4230 C.3    82  GLU82       0.0402
     55  CG        -9.8480    0.8990   11.6980 C.3    82  GLU82       0.1161
     56  CD       -10.9000    0.5360   12.7290 C.2    82  GLU82       0.3649
     57  OE1      -11.7080   -0.3770   12.4650 O.co2  82  GLU82      -0.2457
     58  OE2      -10.9120    1.1650   13.8090 O.co2  82  GLU82      -0.2457
     59  N         -6.8370    1.1350   10.5530 N.am   83  SER83      -0.1938
     60  CA        -5.4990    1.0360   11.1180 C.3    83  SER83       0.2055
     61  C         -5.4940    1.5000   12.5690 C.2    83  SER83       0.2643
     62  O         -6.3200    2.3200   12.9820 O.2    83  SER83      -0.2714
     63  CB        -4.4980    1.8630   10.3020 C.3    83  SER83       0.2130
     64  OG        -4.8770    3.2260   10.2570 O.3    83  SER83      -0.2179
     65  N         -4.5440    0.9650   13.3370 N.am   84  THR84      -0.1950
     66  CA        -4.4110    1.2550   14.7570 C.3    84  THR84       0.1897
     67  C         -2.9510    1.0840   15.1550 C.2    84  THR84       0.2313
     68  O         -2.2210    0.2950   14.5490 O.2    84  THR84      -0.2863
     69  CB        -5.3010    0.3310   15.6030 C.3    84  THR84       0.1794
     70  OG1       -6.6440    0.3640   15.1050 O.3    84  THR84      -0.2208
     71  CG2       -5.3020    0.7550   17.0630 C.3    84  THR84       0.0378
     72  N         -0.4240    1.3400   18.9680 N.3    86  TYR86      -0.1241
     73  CA        -0.2370    1.5970   20.3920 C.3    86  TYR86       0.1605
     74  C          1.2340    1.4080   20.7320 C.2    86  TYR86       0.2264
     75  O          1.8450    0.4230   20.3060 O.2    86  TYR86      -0.2867
     76  CB        -1.0890    0.6520   21.2520 C.3    86  TYR86       0.0534
     77  CG        -2.5690    0.9610   21.2700 C.ar   86  TYR86      -0.0201
     78  CD1       -3.1110    1.7820   22.2480 C.ar   86  TYR86      -0.0009
     79  CD2       -3.4260    0.4140   20.3250 C.ar   86  TYR86      -0.0009
     80  CE1       -4.4640    2.0630   22.2790 C.ar   86  TYR86       0.0417
     81  CE2       -4.7840    0.6880   20.3470 C.ar   86  TYR86       0.0417
     82  CZ        -5.2960    1.5130   21.3280 C.ar   86  TYR86       0.1957
     83  OH        -6.6430    1.7910   21.3580 O.3    86  TYR86      -0.2866
     84  N         -8.7060    5.6670   10.1820 N.3   118  ALA118     -0.1231
     85  CA        -8.3640    5.6690   11.5990 C.3   118  ALA118      0.1694
     86  C         -9.5330    6.2320   12.3920 C.2   118  ALA118      0.2592
     87  O        -10.0340    7.3170   12.0780 O.2   118  ALA118     -0.2718
     88  CB        -7.1010    6.4920   11.8610 C.3   118  ALA118      0.0304
     89  N         -9.9640    5.4940   13.4130 N.am  119  VAL119     -0.1966
     90  CA       -11.0760    5.8870   14.2720 C.3   119  VAL119      0.1727
     91  C        -10.4800    6.3840   15.5830 C.2   119  VAL119      0.2616
     92  O         -9.9930    5.5890   16.3950 O.2   119  VAL119     -0.2715
     93  CB       -12.0490    4.7230   14.5040 C.3   119  VAL119      0.0290
     94  CG1      -13.2440    5.1780   15.3300 C.3   119  VAL119      0.0023
     95  CG2      -12.5090    4.1350   13.1770 C.3   119  VAL119      0.0023
     96  N        -10.5240    7.6950   15.8010 N.am  120  ILE120     -0.1963
     97  CA        -9.8100    8.3380   16.8990 C.3   120  ILE120      0.1727
     98  C        -10.8290    8.8470   17.9090 C.2   120  ILE120      0.2616
     99  O        -11.6830    9.6790   17.5780 O.2   120  ILE120     -0.2715
    100  CB        -8.9120    9.4770   16.3900 C.3   120  ILE120      0.0290
    101  CG1       -7.8800    8.9210   15.4010 C.3   120  ILE120      0.0022
    102  CG2       -8.2110   10.1680   17.5590 C.3   120  ILE120      0.0023
    103  CD1       -6.9950    9.9660   14.7530 C.3   120  ILE120      0.0001
    104  N        -10.7400    8.3440   19.1390 N.am  121  GLY121     -0.1955
    105  CA       -11.5310    8.8670   20.2350 C.3   121  GLY121      0.1869
    106  C        -10.9740   10.1850   20.7310 C.2   121  GLY121      0.2309
    107  O         -9.8110   10.2590   21.1400 O.2   121  GLY121     -0.2863
    108  N        -15.9090   10.9370   18.3940 N.3   155  VAL155     -0.1245
    109  CA       -14.9800   10.0940   17.6520 C.3   155  VAL155      0.1561
    110  C        -14.9020   10.6250   16.2300 C.2   155  VAL155      0.2260
    111  O        -15.9320   10.8080   15.5720 O.2   155  VAL155     -0.2867
    112  CB       -15.4040    8.6100   17.6680 C.3   155  VAL155      0.0252
    113  CG1      -16.9080    8.4790   17.5580 C.3   155  VAL155      0.0019
    114  CG2      -14.7190    7.8210   16.5530 C.3   155  VAL155      0.0019
@<TRIPOS>BOND
     1    50    51    1
     2    51    52    1
     3    51    54    1
     4    52    53    2
     5    52    59   am
     6    84    85    1
     7    64    63    1
     8    63    60    1
     9    54    55    1
    10    59    60    1
    11    60    61    1
    12    85    88    1
    13    85    86    1
    14    55    56    1
    15    87    86    2
    16    40    41    2
    17    40    39    1
    18    86    89   am
    19    57    56   ar
    20    61    62    2
    21    61    65   am
    22    56    58   ar
    23    39    38    1
    24    39    42    1
    25    95    93    1
    26    65    66    1
    27    89    90    1
    28    42    43    1
    29    90    93    1
    30    90    91    1
    31    93    94    1
    32    68    67    2
    33    44    43   ar
    34    44    46   ar
    35   103   101    1
    36    66    67    1
    37    66    69    1
    38    43    45   ar
    39    70    69    1
    40   101   100    1
    41    46    48   ar
    42   111   110    2
    43    91    96   am
    44    91    92    2
    45    69    71    1
    46    96    97    1
    47    45    47   ar
    48   110   109    1
    49   100    97    1
    50   100   102    1
    51   114   112    1
    52    48    47   ar
    53    48    49    1
    54    97    98    1
    55   113   112    1
    56    99    98    2
    57   109   112    1
    58   109   108    1
    59    98   104   am
    60    72    73    1
    61   104   105    1
    62   105   106    1
    63    75    74    2
    64    79    81   ar
    65    79    77   ar
    66    81    82   ar
    67    73    74    1
    68    73    76    1
    69   106   107    2
    70    76    77    1
    71    77    78   ar
    72    82    83    1
    73    82    80   ar
    74     4     3    2
    75    37    35    1
    76    25    23   ar
    77    25    26   ar
    78    23    21   ar
    79    26    24   ar
    80    78    80   ar
    81    21    20    1
    82    21    22   ar
    83    24    22   ar
    84     3     2    1
    85     3     8   am
    86    35    34    2
    87    35    36    1
    88    20    17    1
    89    15    13   am
    90    34    33    1
    91     5     2    1
    92     5     6    1
    93     5     7    1
    94     2     1    1
    95    16    17    1
    96    16    10   am
    97     9     8    1
    98     9    12    1
    99     9    10    1
   100    13    14    2
   101    13    12    1
   102    17    18    1
   103    10    11    2
   104    33    32    1
   105    32    31    1
   106    18    27   am
   107    18    19    2
   108    27    28    1
   109    31    28    1
   110    28    29    1
   111    29    30    2
