@<TRIPOS>MOLECULE
tmp/5t7eD00.pdb
 194 191 0 0 0
SMALL
GASTEIGER

@<TRIPOS>ATOM
      1  N         -3.9460    1.8580   28.4860 N.3    22  TYR22      -0.1241
      2  CA        -4.6420    2.9950   27.8970 C.3    22  TYR22       0.1605
      3  C         -6.1550    2.8650   28.0190 C.2    22  TYR22       0.2264
      4  O         -6.8580    3.8810   28.0670 O.2    22  TYR22      -0.2867
      5  CB        -4.2290    3.1500   26.4340 C.3    22  TYR22       0.0534
      6  CG        -2.7610    3.4780   26.2700 C.ar   22  TYR22      -0.0201
      7  CD1       -2.2630    4.7150   26.6550 C.ar   22  TYR22      -0.0009
      8  CD2       -1.8750    2.5510   25.7370 C.ar   22  TYR22      -0.0009
      9  CE1       -0.9250    5.0210   26.5140 C.ar   22  TYR22       0.0417
     10  CE2       -0.5320    2.8500   25.5920 C.ar   22  TYR22       0.0417
     11  CZ        -0.0650    4.0870   25.9810 C.ar   22  TYR22       0.1957
     12  OH         1.2670    4.3940   25.8380 O.3    22  TYR22      -0.2866
     13  N         -8.6350    7.2250   24.6250 N.3    28  VAL28      -0.1245
     14  CA        -8.2650    6.9520   23.2410 C.3    28  VAL28       0.1561
     15  C         -8.8350    5.6230   22.7700 C.2    28  VAL28       0.2260
     16  O         -9.0040    5.4140   21.5620 O.2    28  VAL28      -0.2867
     17  CB        -6.7340    6.9650   23.0730 C.3    28  VAL28       0.0252
     18  CG1       -6.1650    8.3160   23.4860 C.3    28  VAL28       0.0019
     19  CG2       -6.0890    5.8370   23.8690 C.3    28  VAL28       0.0019
     20  N         -4.5440    0.9650   13.3370 N.3    84  THR84      -0.1203
     21  CA        -4.4110    1.2550   14.7570 C.3    84  THR84       0.1994
     22  C         -2.9510    1.0840   15.1550 C.2    84  THR84       0.2618
     23  O         -2.2210    0.2950   14.5490 O.2    84  THR84      -0.2717
     24  CB        -5.3010    0.3310   15.6030 C.3    84  THR84       0.1784
     25  OG1       -6.6440    0.3640   15.1050 O.3    84  THR84      -0.2211
     26  CG2       -5.3020    0.7550   17.0630 C.3    84  THR84       0.0376
     27  N         -2.5300    1.8270   16.1780 N.am   85  VAL85      -0.1965
     28  CA        -1.1660    1.7280   16.6960 C.3    85  VAL85       0.1727
     29  C         -1.1620    2.1140   18.1710 C.2    85  VAL85       0.2616
     30  O         -1.8010    3.0890   18.5770 O.2    85  VAL85      -0.2715
     31  CB        -0.1890    2.6110   15.8860 C.3    85  VAL85       0.0290
     32  CG1       -0.6520    4.0550   15.8720 C.3    85  VAL85       0.0023
     33  CG2        1.2280    2.5080   16.4440 C.3    85  VAL85       0.0023
     34  N         -0.4240    1.3400   18.9680 N.am   86  TYR86      -0.1960
     35  CA        -0.2370    1.5970   20.3920 C.3    86  TYR86       0.1771
     36  C          1.2340    1.4080   20.7320 C.2    86  TYR86       0.2619
     37  O          1.8450    0.4230   20.3060 O.2    86  TYR86      -0.2715
     38  CB        -1.0890    0.6520   21.2520 C.3    86  TYR86       0.0574
     39  CG        -2.5690    0.9610   21.2700 C.ar   86  TYR86      -0.0198
     40  CD1       -3.1110    1.7820   22.2480 C.ar   86  TYR86      -0.0009
     41  CD2       -3.4260    0.4140   20.3250 C.ar   86  TYR86      -0.0009
     42  CE1       -4.4640    2.0630   22.2790 C.ar   86  TYR86       0.0417
     43  CE2       -4.7840    0.6880   20.3470 C.ar   86  TYR86       0.0417
     44  CZ        -5.2960    1.5130   21.3280 C.ar   86  TYR86       0.1957
     45  OH        -6.6430    1.7910   21.3580 O.3    86  TYR86      -0.2866
     46  N          1.7970    2.3390   21.5000 N.am   87  VAL87      -0.1977
     47  CA         3.1830    2.2620   21.9530 C.3    87  VAL87       0.1596
     48  C          3.1910    2.2120   23.4740 C.2    87  VAL87       0.2287
     49  O          2.3760    2.8700   24.1290 O.2    87  VAL87      -0.2864
     50  CB         4.0160    3.4560   21.4380 C.3    87  VAL87       0.0276
     51  CG1        5.4400    3.4160   21.9900 C.3    87  VAL87       0.0022
     52  CG2        4.0480    3.4620   19.9210 C.3    87  VAL87       0.0022
     53  N          7.9960    4.0600   26.1740 N.3    91  HIS91      -0.1226
     54  CA         8.7060    4.1560   24.9050 C.3    91  HIS91       0.1752
     55  C          8.1310    5.2340   23.9950 C.2    91  HIS91       0.2596
     56  O          8.5010    5.2920   22.8160 O.2    91  HIS91      -0.2718
     57  CB         8.6850    2.8100   24.1710 C.3    91  HIS91       0.0759
     58  CG         9.6300    1.7970   24.7350 C.ar   91  HIS91       0.0818
     59  ND1        9.2550    0.8800   25.6930 N.ar   91  HIS91      -0.2268
     60  CD2       10.9350    1.5530   24.4710 C.ar   91  HIS91       0.1154
     61  CE1       10.2890    0.1150   25.9960 C.ar   91  HIS91       0.1986
     62  NE2       11.3210    0.5020   25.2680 N.ar   91  HIS91      -0.2212
     63  N          7.2450    6.0870   24.5000 N.am   92  GLN92      -0.1965
     64  CA         6.5930    7.0730   23.6550 C.3    92  GLN92       0.1733
     65  C          7.5410    8.2240   23.3370 C.2    92  GLN92       0.2616
     66  O          8.5220    8.4740   24.0420 O.2    92  GLN92      -0.2715
     67  CB         5.3290    7.6120   24.3270 C.3    92  GLN92       0.0408
     68  CG         4.3560    6.5310   24.7690 C.3    92  GLN92       0.0908
     69  CD         2.9470    7.0540   24.9990 C.2    92  GLN92       0.2608
     70  OE1        1.9760    6.3060   24.8930 O.2    92  GLN92      -0.2717
     71  NE2        2.8300    8.3390   25.3210 N.am   92  GLN92      -0.0878
     72  N          7.2260    8.9340   22.2550 N.am   93  ARG93      -0.1963
     73  CA         7.9840   10.1030   21.8150 C.3    93  ARG93       0.1729
     74  C          9.3950    9.7380   21.3700 C.2    93  ARG93       0.2617
     75  O         10.2860   10.5940   21.3490 O.2    93  ARG93      -0.2715
     76  CB         8.0340   11.1740   22.9120 C.3    93  ARG93       0.0348
     77  CG         7.1630   12.3830   22.6330 C.3    93  ARG93       0.0492
     78  CD         7.6250   13.1400   21.3980 C.3    93  ARG93       0.2205
     79  NE         6.8620   14.3650   21.2040 N.pl3  93  ARG93      -0.0865
     80  CZ         6.8740   15.0870   20.0890 C.cat  93  ARG93       0.5346
     81  NH1        7.6180   14.7210   19.0510 N.pl3  93  ARG93       0.1354
     82  NH2        6.1380   16.1860   20.0160 N.pl3  93  ARG93       0.1354
     83  N          9.6160    8.4770   21.0040 N.am   94  THR94      -0.1937
     84  CA        10.9080    8.0230   20.5070 C.3    94  THR94       0.2028
     85  C         10.8500    7.6010   19.0430 C.2    94  THR94       0.2643
     86  O         11.8280    7.0490   18.5270 O.2    94  THR94      -0.2714
     87  CB        11.4290    6.8680   21.3660 C.3    94  THR94       0.1808
     88  OG1       10.5720    5.7290   21.2220 O.3    94  THR94      -0.2208
     89  CG2       11.4840    7.2770   22.8340 C.3    94  THR94       0.0379
     90  N          9.7300    7.8470   18.3630 N.am   95  GLY95      -0.1939
     91  CA         9.5990    7.5390   16.9560 C.3    95  GLY95       0.2014
     92  C          9.0990    6.1460   16.6380 C.2    95  GLY95       0.2639
     93  O          9.0220    5.7910   15.4550 O.2    95  GLY95      -0.2714
     94  N          8.7500    5.3450   17.6470 N.am   96  LEU96      -0.1963
     95  CA         8.2630    3.9960   17.3810 C.3    96  LEU96       0.1728
     96  C          6.9290    4.0270   16.6460 C.2    96  LEU96       0.2617
     97  O          6.7720    3.3890   15.5990 O.2    96  LEU96      -0.2715
     98  CB         8.1250    3.2100   18.6860 C.3    96  LEU96       0.0311
     99  CG         9.3740    2.6210   19.3430 C.3    96  LEU96       0.0022
    100  CD1        8.9570    1.7220   20.4980 C.3    96  LEU96       0.0001
    101  CD2       10.2260    1.8400   18.3600 C.3    96  LEU96       0.0001
    102  N          5.9530    4.7630   17.1820 N.am   97  GLY97      -0.1940
    103  CA         4.6350    4.7810   16.5700 C.3    97  GLY97       0.2014
    104  C          4.6780    5.1720   15.1060 C.2    97  GLY97       0.2639
    105  O          4.0350    4.5380   14.2660 O.2    97  GLY97      -0.2714
    106  N          5.4410    6.2170   14.7800 N.am   98  SER98      -0.1949
    107  CA         5.5240    6.6670   13.3950 C.3    98  SER98       0.1924
    108  C          6.2960    5.6820   12.5250 C.2    98  SER98       0.2314
    109  O          6.0170    5.5680   11.3260 O.2    98  SER98      -0.2863
    110  CB         6.1730    8.0490   13.3340 C.3    98  SER98       0.2116
    111  OG         7.4620    8.0320   13.9220 O.3    98  SER98      -0.2180
    112  N         -8.7060    5.6670   10.1820 N.3   118  ALA118     -0.1231
    113  CA        -8.3640    5.6690   11.5990 C.3   118  ALA118      0.1694
    114  C         -9.5330    6.2320   12.3920 C.2   118  ALA118      0.2592
    115  O        -10.0340    7.3170   12.0780 O.2   118  ALA118     -0.2718
    116  CB        -7.1010    6.4920   11.8610 C.3   118  ALA118      0.0304
    117  N         -9.9640    5.4940   13.4130 N.am  119  VAL119     -0.1966
    118  CA       -11.0760    5.8870   14.2720 C.3   119  VAL119      0.1727
    119  C        -10.4800    6.3840   15.5830 C.2   119  VAL119      0.2616
    120  O         -9.9930    5.5890   16.3950 O.2   119  VAL119     -0.2715
    121  CB       -12.0490    4.7230   14.5040 C.3   119  VAL119      0.0290
    122  CG1      -13.2440    5.1780   15.3300 C.3   119  VAL119      0.0023
    123  CG2      -12.5090    4.1350   13.1770 C.3   119  VAL119      0.0023
    124  N        -10.5240    7.6950   15.8010 N.am  120  ILE120     -0.1977
    125  CA        -9.8100    8.3380   16.8990 C.3   120  ILE120      0.1596
    126  C        -10.8290    8.8470   17.9090 C.2   120  ILE120      0.2287
    127  O        -11.6830    9.6790   17.5780 O.2   120  ILE120     -0.2864
    128  CB        -8.9120    9.4770   16.3900 C.3   120  ILE120      0.0276
    129  CG1       -7.8800    8.9210   15.4010 C.3   120  ILE120      0.0022
    130  CG2       -8.2110   10.1680   17.5590 C.3   120  ILE120      0.0022
    131  CD1       -6.9950    9.9660   14.7530 C.3   120  ILE120      0.0001
    132  N         -7.5350   13.7240   21.3790 N.3   124  ASN124     -0.1225
    133  CA        -6.3380   12.9020   21.2500 C.3   124  ASN124      0.1785
    134  C         -5.3370   13.5870   20.3280 C.2   124  ASN124      0.2597
    135  O         -5.0970   13.1220   19.2090 O.2   124  ASN124     -0.2718
    136  CB        -6.6960   11.5110   20.7170 C.3   124  ASN124      0.1169
    137  CG        -5.5300   10.5390   20.7880 C.2   124  ASN124      0.2627
    138  OD1       -4.3870   10.9330   21.0150 O.2   124  ASN124     -0.2716
    139  ND2       -5.8170    9.2580   20.5870 N.am  124  ASN124     -0.0877
    140  N         -4.7560   14.6950   20.7890 N.am  125  ASP125     -0.1960
    141  CA        -3.8070   15.4550   19.9750 C.3   125  ASP125      0.1825
    142  C         -2.6810   14.5990   19.4120 C.2   125  ASP125      0.2464
    143  O         -2.4460   14.6560   18.1940 O.2   125  ASP125     -0.2730
    144  CB        -3.2350   16.6110   20.8060 C.3   125  ASP125      0.1450
    145  CG        -4.3130   17.5160   21.3690 C.2   125  ASP125      0.3671
    146  OD1       -5.3690   17.6650   20.7180 O.co2 125  ASP125     -0.2456
    147  OD2       -4.1050   18.0800   22.4650 O.co2 125  ASP125     -0.2456
    148  N         -1.9530   13.8090   20.2070 N.am  126  PRO126     -0.2715
    149  CA        -0.8530   13.0150   19.6320 C.3   126  PRO126      0.1536
    150  C         -1.2660   12.1590   18.4470 C.2   126  PRO126      0.2599
    151  O         -0.5310   12.0950   17.4540 O.2   126  PRO126     -0.2715
    152  CB        -0.3850   12.1580   20.8200 C.3   126  PRO126      0.0310
    153  CG        -1.4440   12.2930   21.8690 C.3   126  PRO126      0.0237
    154  CD        -2.0410   13.6360   21.6650 C.3   126  PRO126      0.0939
    155  N         -2.4210   11.4970   18.5180 N.am  127  SER127     -0.1950
    156  CA        -2.8560   10.6580   17.4060 C.3   127  SER127      0.1924
    157  C         -3.2460   11.5060   16.2020 C.2   127  SER127      0.2314
    158  O         -2.8230   11.2310   15.0740 O.2   127  SER127     -0.2863
    159  CB        -4.0210    9.7710   17.8400 C.3   127  SER127      0.2116
    160  OG        -4.3200    8.8120   16.8400 O.3   127  SER127     -0.2180
    161  N         -2.2580   14.4750   15.4400 N.3   129  ARG129     -0.1231
    162  CA        -1.0570   15.0700   14.8620 C.3   129  ARG129      0.1694
    163  C         -0.3120   14.0600   13.9990 C.2   129  ARG129      0.2592
    164  O          0.0190   14.3390   12.8410 O.2   129  ARG129     -0.2718
    165  CB        -0.1460   15.6050   15.9680 C.3   129  ARG129      0.0321
    166  CG        -0.7350   16.7670   16.7640 C.3   129  ARG129      0.0489
    167  CD         0.2780   17.8870   16.9810 C.3   129  ARG129      0.2205
    168  NE         0.0540   19.0080   16.0700 N.pl3 129  ARG129     -0.0865
    169  CZ        -0.7580   20.0330   16.3200 C.cat 129  ARG129      0.5346
    170  NH1       -1.4350   20.0950   17.4600 N.pl3 129  ARG129      0.1354
    171  NH2       -0.8940   21.0020   15.4260 N.pl3 129  ARG129      0.1354
    172  N         -0.0410   12.8750   14.5490 N.am  130  MET130     -0.1965
    173  CA         0.7130   11.8690   13.8080 C.3   130  MET130      0.1736
    174  C         -0.0110   11.4710   12.5280 C.2   130  MET130      0.2616
    175  O          0.5970   11.3930   11.4550 O.2   130  MET130     -0.2715
    176  CB         0.9510   10.6440   14.6880 C.3   130  MET130      0.0427
    177  CG         1.9710    9.6740   14.1180 C.3   130  MET130      0.0599
    178  SD         2.0070    8.1050   14.9970 S.3   130  MET130     -0.1393
    179  CE         0.4640    7.3940   14.4430 C.3   130  MET130      0.0692
    180  N         -1.3150   11.2060   12.6240 N.am  131  HIS131     -0.1973
    181  CA        -2.0690   10.7610   11.4560 C.3   131  HIS131      0.1656
    182  C         -2.0400   11.8080   10.3510 C.2   131  HIS131      0.2291
    183  O         -1.7930   11.4890    9.1830 O.2   131  HIS131     -0.2864
    184  CB        -3.5090   10.4340   11.8520 C.3   131  HIS131      0.0771
    185  CG        -3.6720    9.0800   12.4680 C.ar  131  HIS131      0.0820
    186  ND1       -3.5130    8.8510   13.8170 N.ar  131  HIS131     -0.2267
    187  CD2       -3.9740    7.8810   11.9160 C.ar  131  HIS131      0.1154
    188  CE1       -3.7130    7.5690   14.0710 C.ar  131  HIS131      0.1986
    189  NE2       -3.9930    6.9590   12.9340 N.ar  131  HIS131     -0.2212
    190  N          0.1540   14.1160    9.9470 N.3   133  ALA133     -0.1245
    191  CA         1.5230   14.2230    9.4560 C.3   133  ALA133      0.1562
    192  C          1.8260   13.1570    8.4120 C.2   133  ALA133      0.2260
    193  O          2.6430   13.3860    7.5130 O.2   133  ALA133     -0.2867
    194  CB         2.5080   14.1180   10.6210 C.3   133  ALA133      0.0290
@<TRIPOS>BOND
     1   193   192    2
     2   192   191    1
     3   183   182    2
     4   191   190    1
     5   191   194    1
     6   112   113    1
     7   182   181    1
     8   109   108    2
     9   175   174    2
    10   181   184    1
    11   181   180    1
    12   113   116    1
    13   113   114    1
    14   184   185    1
    15   187   185   ar
    16   187   189   ar
    17   115   114    2
    18   114   117   am
    19   185   186   ar
    20   108   107    1
    21   174   180   am
    22   174   173    1
    23   164   163    2
    24   189   188   ar
    25   123   121    1
    26   110   107    1
    27   110   111    1
    28    20    21    1
    29   107   106    1
    30   117   118    1
    31   173   172    1
    32   173   176    1
    33   186   188   ar
    34   163   172   am
    35   163   162    1
    36   177   176    1
    37   177   178    1
    38   105   104    2
    39   118   121    1
    40   118   119    1
    41   179   178    1
    42   121   122    1
    43    23    22    2
    44   131   129    1
    45    21    22    1
    46    21    24    1
    47   106   104   am
    48   162   161    1
    49   162   165    1
    50   158   157    2
    51    25    24    1
    52   104   103    1
    53    22    27   am
    54   129   128    1
    55   171   169    1
    56    93    92    2
    57   119   124   am
    58   119   120    2
    59    97    96    2
    60    24    26    1
    61   124   125    1
    62    32    31    1
    63    31    33    1
    64    31    28    1
    65   165   166    1
    66   168   169    2
    67   168   167    1
    68    27    28    1
    69   157   156    1
    70   169   170    1
    71   128   125    1
    72   128   130    1
    73   103   102    1
    74    92    91    1
    75    92    94   am
    76    96   102   am
    77    96    95    1
    78    28    29    1
    79   166   167    1
    80   160   159    1
    81   125   126    1
    82    91    90    1
    83    95    94    1
    84    95    98    1
    85   156   159    1
    86   156   155    1
    87   151   150    2
    88   127   126    2
    89    29    30    2
    90    29    34   am
    91   143   142    2
    92   101    99    1
    93    90    85   am
    94   150   155   am
    95   150   149    1
    96    86    85    2
    97    98    99    1
    98    34    35    1
    99    85    84    1
   100    81    80    1
   101   135   134    2
   102    99   100    1
   103   142   141    1
   104   142   148   am
   105   149   148    1
   106   149   152    1
   107    52    50    1
   108   141   140    1
   109   141   144    1
   110    82    80    1
   111    80    79    2
   112   148   154    1
   113    37    36    2
   114    41    43   ar
   115    41    39   ar
   116   134   140   am
   117   134   133    1
   118    43    44   ar
   119    35    36    1
   120    35    38    1
   121    84    83    1
   122    84    87    1
   123   139   137   am
   124   136   137    1
   125   136   133    1
   126   146   145   ar
   127    36    46   am
   128   137   138    2
   129   144   145    1
   130   152   153    1
   131    83    74   am
   132    79    78    1
   133    88    87    1
   134   133   132    1
   135    38    39    1
   136    39    40   ar
   137    44    45    1
   138    44    42   ar
   139    75    74    2
   140    87    89    1
   141   145   147   ar
   142    74    73    1
   143    78    77    1
   144    50    47    1
   145    50    51    1
   146    46    47    1
   147    16    15    2
   148   154   153    1
   149    73    72    1
   150    73    76    1
   151    47    48    1
   152    40    42   ar
   153    72    65   am
   154    77    76    1
   155    15    14    1
   156    56    55    2
   157    17    14    1
   158    17    18    1
   159    17    19    1
   160    14    13    1
   161    65    64    1
   162    65    66    2
   163    48    49    2
   164    64    67    1
   165    64    63    1
   166    55    63   am
   167    55    54    1
   168    57    58    1
   169    57    54    1
   170    67    68    1
   171    60    58   ar
   172    60    62   ar
   173    58    59   ar
   174    68    69    1
   175    70    69    2
   176    54    53    1
   177    69    71   am
   178    62    61   ar
   179    10     8   ar
   180    10    11   ar
   181    59    61   ar
   182     8     6   ar
   183    12    11    1
   184    11     9   ar
   185     6     5    1
   186     6     7   ar
   187     5     2    1
   188     9     7   ar
   189     2     3    1
   190     2     1    1
   191     3     4    2
