@<TRIPOS>MOLECULE
tmp/5t7fA00.pdb
 185 178 0 0 0
SMALL
GASTEIGER

@<TRIPOS>ATOM
      1  N        -18.9190   34.9440  157.9860 N.3   511  LYS511     -0.1245
      2  CA       -17.8050   35.1970  157.0730 C.3   511  LYS511      0.1561
      3  C        -17.2570   36.6340  157.1250 C.2   511  LYS511      0.2260
      4  O        -16.0400   36.8110  157.2030 O.2   511  LYS511     -0.2867
      5  CB       -18.2040   34.8530  155.6320 C.3   511  LYS511      0.0271
      6  CG       -17.3150   35.5100  154.5830 C.3   511  LYS511      0.0035
      7  CD       -17.1100   34.6280  153.3630 C.3   511  LYS511      0.0206
      8  CE       -16.2290   35.3260  152.3380 C.3   511  LYS511      0.1093
      9  NZ       -16.1010   34.5490  151.0750 N.3   511  LYS511     -0.1314
     10  N         -9.0830   37.3390  151.2510 N.3   553  THR553     -0.1203
     11  CA       -10.3030   36.7280  151.7650 C.3   553  THR553      0.1994
     12  C        -10.2140   35.2050  151.7240 C.2   553  THR553      0.2618
     13  O         -9.1240   34.6390  151.6350 O.2   553  THR553     -0.2717
     14  CB       -11.5420   37.1860  150.9690 C.3   553  THR553      0.1784
     15  OG1      -12.7090   36.5210  151.4690 O.3   553  THR553     -0.2211
     16  CG2      -11.3750   36.8720  149.4880 C.3   553  THR553      0.0376
     17  N        -11.3670   34.5470  151.7930 N.am  554  PHE554     -0.1961
     18  CA       -11.4300   33.0920  151.7220 C.3   554  PHE554      0.1771
     19  C        -12.7680   32.6410  151.1450 C.2   554  PHE554      0.2619
     20  O        -13.7270   33.4120  151.1040 O.2   554  PHE554     -0.2715
     21  CB       -11.2110   32.4720  153.1050 C.3   554  PHE554      0.0574
     22  CG       -12.2990   32.7880  154.0920 C.ar  554  PHE554     -0.0200
     23  CD1      -13.3410   31.8990  154.3030 C.ar  554  PHE554     -0.0042
     24  CD2      -12.2810   33.9720  154.8090 C.ar  554  PHE554     -0.0042
     25  CE1      -14.3440   32.1860  155.2080 C.ar  554  PHE554     -0.0003
     26  CE2      -13.2810   34.2650  155.7160 C.ar  554  PHE554     -0.0003
     27  CZ       -14.3140   33.3710  155.9150 C.ar  554  PHE554     -0.0000
     28  N        -12.8270   31.3890  150.7040 N.am  555  MET555     -0.1977
     29  CA       -14.0510   30.8320  150.1380 C.3   555  MET555      0.1605
     30  C        -14.8790   30.1460  151.2230 C.2   555  MET555      0.2287
     31  O        -14.3320   29.6190  152.1910 O.2   555  MET555     -0.2864
     32  CB       -13.7170   29.8520  149.0080 C.3   555  MET555      0.0413
     33  CG       -14.9250   29.3380  148.2370 C.3   555  MET555      0.0598
     34  SD       -14.5470   28.9180  146.5220 S.3   555  MET555     -0.1393
     35  CE       -13.2380   27.7140  146.7360 C.3   555  MET555      0.0692
     36  N        -10.3540   27.7590  151.4640 N.3   561  PRO561     -0.2102
     37  CA        -9.0410   28.1220  150.9180 C.3   561  PRO561      0.1504
     38  C         -8.8170   29.6310  150.9150 C.2   561  PRO561      0.2576
     39  O         -9.7740   30.3940  150.7830 O.2   561  PRO561     -0.2718
     40  CB        -9.0890   27.5690  149.4910 C.3   561  PRO561      0.0282
     41  CG       -10.5330   27.5300  149.1530 C.3   561  PRO561      0.0208
     42  CD       -11.2520   27.2170  150.4290 C.3   561  PRO561      0.0893
     43  N         -7.5640   30.0500  151.0640 N.am  562  LEU562     -0.1966
     44  CA        -7.2420   31.4660  151.1880 C.3   562  LEU562      0.1728
     45  C         -7.0420   32.1430  149.8360 C.2   562  LEU562      0.2616
     46  O         -6.5250   31.5430  148.8930 O.2   562  LEU562     -0.2715
     47  CB        -5.9900   31.6530  152.0470 C.3   562  LEU562      0.0311
     48  CG        -6.0460   31.0650  153.4590 C.3   562  LEU562      0.0022
     49  CD1       -4.7830   31.4090  154.2360 C.3   562  LEU562      0.0001
     50  CD2       -7.2870   31.5440  154.1980 C.3   562  LEU562      0.0001
     51  N         -7.4620   33.4020  149.7580 N.am  563  TRP563     -0.1974
     52  CA        -7.2840   34.2200  148.5660 C.3   563  TRP563      0.1640
     53  C         -6.3520   35.3790  148.8910 C.2   563  TRP563      0.2290
     54  O         -6.7850   36.3990  149.4230 O.2   563  TRP563     -0.2864
     55  CB        -8.6370   34.7340  148.0630 C.3   563  TRP563      0.0576
     56  CG        -8.5710   35.5880  146.8270 C.ar  563  TRP563      0.0006
     57  CD1       -8.2160   36.9050  146.7550 C.ar  563  TRP563      0.0946
     58  CD2       -8.9000   35.1900  145.4890 C.ar  563  TRP563      0.0152
     59  NE1       -8.2890   37.3450  145.4560 N.ar  563  TRP563     -0.2442
     60  CE2       -8.7080   36.3120  144.6590 C.ar  563  TRP563      0.0810
     61  CE3       -9.3320   33.9910  144.9130 C.ar  563  TRP563      0.0012
     62  CZ2       -8.9330   36.2720  143.2850 C.ar  563  TRP563      0.0191
     63  CZ3       -9.5550   33.9540  143.5480 C.ar  563  TRP563      0.0001
     64  CH2       -9.3560   35.0870  142.7500 C.ar  563  TRP563      0.0015
     65  N         -3.6720   31.1580  145.5480 N.3   580  ILE580     -0.1245
     66  CA        -4.7090   30.4740  146.3110 C.3   580  ILE580      0.1561
     67  C         -4.1080   29.3840  147.1890 C.2   580  ILE580      0.2260
     68  O         -3.5730   28.3950  146.6890 O.2   580  ILE580     -0.2867
     69  CB        -5.7760   29.8490  145.3920 C.3   580  ILE580      0.0252
     70  CG1       -6.5240   30.9400  144.6250 C.3   580  ILE580      0.0019
     71  CG2       -6.7520   29.0100  146.2030 C.3   580  ILE580      0.0019
     72  CD1       -7.5740   30.4090  143.6740 C.3   580  ILE580      0.0001
     73  N         -4.6600   26.3720  149.4710 N.3   582  LYS582     -0.1245
     74  CA        -5.6330   25.3500  149.8280 C.3   582  LYS582      0.1561
     75  C         -4.9910   24.2890  150.7130 C.2   582  LYS582      0.2260
     76  O         -3.9220   23.7670  150.3960 O.2   582  LYS582     -0.2867
     77  CB        -6.2270   24.7080  148.5720 C.3   582  LYS582      0.0271
     78  CG        -7.3820   23.7580  148.8450 C.3   582  LYS582      0.0035
     79  CD        -8.0070   23.2650  147.5500 C.3   582  LYS582      0.0206
     80  CE        -8.6620   24.4060  146.7860 C.3   582  LYS582      0.1093
     81  NZ        -9.3670   23.9280  145.5640 N.3   582  LYS582     -0.1314
     82  N         -2.7590   27.6900  134.3360 N.3   616  TYR616     -0.1241
     83  CA        -2.3550   28.3450  135.5740 C.3   616  TYR616      0.1605
     84  C         -1.5210   27.4080  136.4420 C.2   616  TYR616      0.2264
     85  O         -1.5760   26.1880  136.2870 O.2   616  TYR616     -0.2867
     86  CB        -3.5820   28.8370  136.3480 C.3   616  TYR616      0.0534
     87  CG        -4.5610   27.7460  136.7200 C.ar  616  TYR616     -0.0201
     88  CD1       -4.4970   27.1220  137.9590 C.ar  616  TYR616     -0.0009
     89  CD2       -5.5530   27.3420  135.8350 C.ar  616  TYR616     -0.0009
     90  CE1       -5.3890   26.1260  138.3060 C.ar  616  TYR616      0.0417
     91  CE2       -6.4490   26.3450  136.1730 C.ar  616  TYR616      0.0417
     92  CZ        -6.3620   25.7400  137.4090 C.ar  616  TYR616      0.1957
     93  OH        -7.2510   24.7480  137.7510 O.3   616  TYR616     -0.2866
     94  N         -2.2580   27.5850  144.3050 N.3   628  ILE628     -0.1231
     95  CA        -2.8650   27.7040  142.9850 C.3   628  ILE628      0.1692
     96  C         -2.7970   29.1560  142.5230 C.2   628  ILE628      0.2592
     97  O         -3.1940   30.0640  143.2530 O.2   628  ILE628     -0.2718
     98  CB        -4.3330   27.2280  142.9800 C.3   628  ILE628      0.0266
     99  CG1       -4.4160   25.7380  143.3190 C.3   628  ILE628      0.0019
    100  CG2       -4.9800   27.5010  141.6310 C.3   628  ILE628      0.0020
    101  CD1       -5.8290   25.1940  143.3430 C.3   628  ILE628      0.0001
    102  N         -2.2850   29.3720  141.3160 N.am  629  GLU629     -0.1966
    103  CA        -2.1620   30.7210  140.7770 C.3   629  GLU629      0.1733
    104  C         -3.5270   31.3270  140.4730 C.2   629  GLU629      0.2616
    105  O         -4.3450   30.7230  139.7800 O.2   629  GLU629     -0.2715
    106  CB        -1.3030   30.7230  139.5110 C.3   629  GLU629      0.0429
    107  CG        -1.1560   32.0980  138.8780 C.3   629  GLU629      0.1163
    108  CD        -0.4150   32.0610  137.5580 C.2   629  GLU629      0.3649
    109  OE1       -0.1190   30.9490  137.0720 O.co2 629  GLU629     -0.2457
    110  OE2       -0.1280   33.1440  137.0060 O.co2 629  GLU629     -0.2457
    111  N         -3.7650   32.5240  140.9980 N.am  630  VAL630     -0.1963
    112  CA        -5.0020   33.2430  140.7240 C.3   630  VAL630      0.1727
    113  C         -5.0470   33.7110  139.2760 C.2   630  VAL630      0.2616
    114  O         -4.1760   34.4570  138.8260 O.2   630  VAL630     -0.2715
    115  CB        -5.1700   34.4630  141.6540 C.3   630  VAL630      0.0290
    116  CG1       -6.2340   35.4060  141.1130 C.3   630  VAL630      0.0023
    117  CG2       -5.5130   34.0140  143.0640 C.3   630  VAL630      0.0023
    118  N         -6.0590   33.2590  138.5450 N.am  631  VAL631     -0.1977
    119  CA        -6.2960   33.7500  137.1950 C.3   631  VAL631      0.1596
    120  C         -7.1270   35.0250  137.2760 C.2   631  VAL631      0.2287
    121  O         -8.3350   34.9800  137.5060 O.2   631  VAL631     -0.2864
    122  CB        -7.0120   32.7080  136.3200 C.3   631  VAL631      0.0276
    123  CG1       -7.2670   33.2720  134.9340 C.3   631  VAL631      0.0022
    124  CG2       -6.1860   31.4350  136.2350 C.3   631  VAL631      0.0022
    125  N        -11.4040   37.0850  135.8490 N.3   634  SER634     -0.1202
    126  CA       -12.1630   35.9140  135.4320 C.3   634  SER634      0.2020
    127  C        -13.3100   35.6380  136.3950 C.2   634  SER634      0.2619
    128  O        -13.4140   36.2660  137.4480 O.2   634  SER634     -0.2717
    129  CB       -11.2500   34.6900  135.3390 C.3   634  SER634      0.2103
    130  OG       -10.6960   34.3760  136.6050 O.3   634  SER634     -0.2182
    131  N        -14.1660   34.6920  136.0250 N.am  635  ASP635     -0.1959
    132  CA       -15.2900   34.3020  136.8660 C.3   635  ASP635      0.1840
    133  C        -15.8090   32.9290  136.4550 C.2   635  ASP635      0.2622
    134  O        -15.6380   32.5080  135.3110 O.2   635  ASP635     -0.2715
    135  CB       -16.4130   35.3400  136.7850 C.3   635  ASP635      0.1450
    136  CG       -17.3510   35.2810  137.9750 C.2   635  ASP635      0.3671
    137  OD1      -17.4320   34.2150  138.6210 O.co2 635  ASP635     -0.2456
    138  OD2      -18.0080   36.3020  138.2670 O.co2 635  ASP635     -0.2456
    139  N        -16.4400   32.2330  137.3950 N.am  636  THR636     -0.1951
    140  CA       -17.0090   30.9210  137.1150 C.3   636  THR636      0.1897
    141  C        -18.2690   31.0540  136.2660 C.2   636  THR636      0.2313
    142  O        -18.9680   32.0650  136.3340 O.2   636  THR636     -0.2863
    143  CB       -17.3480   30.1590  138.4100 C.3   636  THR636      0.1794
    144  OG1      -18.3720   30.8600  139.1270 O.3   636  THR636     -0.2208
    145  CG2      -16.1180   30.0300  139.2940 C.3   636  THR636      0.0378
    146  N        -21.5040   31.4510  138.4350 N.3   639  ASN639     -0.1240
    147  CA       -21.7130   32.7820  138.9930 C.3   639  ASN639      0.1653
    148  C        -22.2650   33.7490  137.9510 C.2   639  ASN639      0.2266
    149  O        -23.0270   34.6590  138.2760 O.2   639  ASN639     -0.2867
    150  CB       -20.4090   33.3270  139.5760 C.3   639  ASN639      0.1155
    151  CG       -20.6220   34.5640  140.4250 C.2   639  ASN639      0.2627
    152  OD1      -21.6720   34.7320  141.0450 O.2   639  ASN639     -0.2716
    153  ND2      -19.6240   35.4390  140.4580 N.am  639  ASN639     -0.0877
    154  N        -19.5580   25.0560  138.0230 N.3   700  ASP700     -0.1239
    155  CA       -18.8300   25.5080  139.2060 C.3   700  ASP700      0.1674
    156  C        -17.3230   25.2810  139.0930 C.2   700  ASP700      0.2266
    157  O        -16.5350   26.0030  139.7050 O.2   700  ASP700     -0.2867
    158  CB       -19.3650   24.8090  140.4590 C.3   700  ASP700      0.1410
    159  CG       -20.7970   25.1940  140.7750 C.2   700  ASP700      0.3668
    160  OD1      -21.0570   26.3970  140.9870 O.co2 700  ASP700     -0.2456
    161  OD2      -21.6640   24.2950  140.8110 O.co2 700  ASP700     -0.2456
    162  N        -14.3920   28.0550  134.5020 N.3   703  MET703     -0.1245
    163  CA       -14.3290   29.5130  134.5470 C.3   703  MET703      0.1570
    164  C        -14.0510   30.1210  133.1760 C.2   703  MET703      0.2261
    165  O        -13.6680   29.4210  132.2390 O.2   703  MET703     -0.2867
    166  CB       -13.2570   29.9710  135.5370 C.3   703  MET703      0.0387
    167  CG       -13.4360   29.4450  136.9470 C.3   703  MET703      0.0595
    168  SD       -12.1930   30.0930  138.0810 S.3   703  MET703     -0.1393
    169  CE       -12.5480   31.8470  138.0120 C.3   703  MET703      0.0692
    170  N        -11.1470   24.2490  136.0340 N.3   713  ILE713     -0.1231
    171  CA       -10.4620   24.1830  137.3210 C.3   713  ILE713      0.1692
    172  C        -10.9160   22.9680  138.1240 C.2   713  ILE713      0.2592
    173  O        -11.8700   22.2860  137.7440 O.2   713  ILE713     -0.2718
    174  CB       -10.7080   25.4460  138.1660 C.3   713  ILE713      0.0266
    175  CG1      -12.1980   25.5830  138.4750 C.3   713  ILE713      0.0019
    176  CG2      -10.1790   26.6880  137.4590 C.3   713  ILE713      0.0020
    177  CD1      -12.5350   26.7600  139.3440 C.3   713  ILE713      0.0001
    178  N        -10.2260   22.7150  139.2330 N.am  714  ASP714     -0.1974
    179  CA       -10.5700   21.6400  140.1630 C.3   714  ASP714      0.1709
    180  C        -10.6830   20.2780  139.4800 C.2   714  ASP714      0.2293
    181  O        -11.7670   19.6970  139.4040 O.2   714  ASP714     -0.2864
    182  CB       -11.8750   21.9710  140.8950 C.3   714  ASP714      0.1436
    183  CG       -11.7580   23.2150  141.7580 C.2   714  ASP714      0.3671
    184  OD1      -10.6270   23.5470  142.1730 O.co2 714  ASP714     -0.2456
    185  OD2      -12.7960   23.8580  142.0230 O.co2 714  ASP714     -0.2456
@<TRIPOS>BOND
     1   165   164    2
     2   164   163    1
     3    82    83    1
     4   162   163    1
     5   163   166    1
     6   123   122    1
     7   134   133    2
     8   129   126    1
     9   129   130    1
    10   126   125    1
    11   126   127    1
    12   166   167    1
    13    83    86    1
    14    83    84    1
    15    89    91   ar
    16    89    87   ar
    17   131   127   am
    18   131   132    1
    19   170   171    1
    20    91    92   ar
    21   124   122    1
    22   141   142    2
    23   141   140    1
    24    85    84    2
    25   122   119    1
    26    86    87    1
    27   127   128    2
    28   133   132    1
    29   133   139   am
    30    87    88   ar
    31   135   132    1
    32   135   136    1
    33   167   168    1
    34   110   108   ar
    35   109   108   ar
    36   140   139    1
    37   140   143    1
    38   119   120    1
    39   119   118    1
    40   120   121    2
    41   171   172    1
    42   171   174    1
    43    92    93    1
    44    92    90   ar
    45   176   174    1
    46   108   107    1
    47   173   172    2
    48   148   149    2
    49   148   147    1
    50    88    90   ar
    51   136   138   ar
    52   136   137   ar
    53   169   168    1
    54   154   155    1
    55   172   178   am
    56   174   175    1
    57   143   144    1
    58   143   145    1
    59   146   147    1
    60   175   177    1
    61   118   113   am
    62   114   113    2
    63   107   106    1
    64   147   150    1
    65   156   155    1
    66   156   157    2
    67   155   158    1
    68   178   179    1
    69   113   112    1
    70   181   180    2
    71   180   179    1
    72   106   103    1
    73   150   151    1
    74   105   104    2
    75   179   182    1
    76   151   153   am
    77   151   152    2
    78   158   159    1
    79   104   103    1
    80   104   111   am
    81   112   111    1
    82   112   115    1
    83   159   161   ar
    84   159   160   ar
    85   103   102    1
    86   182   183    1
    87   116   115    1
    88   102    96   am
    89   100    98    1
    90   115   117    1
    91   183   185   ar
    92   183   184   ar
    93    96    95    1
    94    96    97    2
    95    64    62   ar
    96    64    63   ar
    97    98    95    1
    98    98    99    1
    99    95    94    1
   100    62    60   ar
   101    99   101    1
   102    63    61   ar
   103    72    70    1
   104    70    69    1
   105    60    59   ar
   106    60    58   ar
   107    61    58   ar
   108    69    71    1
   109    69    66    1
   110    59    57   ar
   111    58    56   ar
   112    65    66    1
   113    81    80    1
   114    66    67    1
   115    34    35    1
   116    34    33    1
   117    68    67    2
   118    57    56   ar
   119    80    79    1
   120    56    55    1
   121    79    78    1
   122    55    52    1
   123    33    32    1
   124    52    53    1
   125    52    51    1
   126    77    78    1
   127    77    74    1
   128    53    54    2
   129    46    45    2
   130    32    29    1
   131    41    40    1
   132    41    42    1
   133    73    74    1
   134    16    14    1
   135    40    37    1
   136    51    45   am
   137    74    75    1
   138    45    44    1
   139    29    28    1
   140    29    30    1
   141    76    75    2
   142    42    36    1
   143    28    19   am
   144    39    38    2
   145    38    37    1
   146    38    43   am
   147    37    36    1
   148    14    15    1
   149    14    11    1
   150    43    44    1
   151     9     8    1
   152    20    19    2
   153    19    18    1
   154    44    47    1
   155    30    31    2
   156    10    11    1
   157    13    12    2
   158    18    17    1
   159    18    21    1
   160    12    11    1
   161    12    17   am
   162    47    48    1
   163     8     7    1
   164    21    22    1
   165     7     6    1
   166    48    50    1
   167    48    49    1
   168    22    23   ar
   169    22    24   ar
   170    23    25   ar
   171     6     5    1
   172    24    26   ar
   173    25    27   ar
   174     5     2    1
   175    26    27   ar
   176     2     3    1
   177     2     1    1
   178     3     4    2
