@<TRIPOS>MOLECULE
tmp/5t7fB00.pdb
 176 170 0 0 0
SMALL
GASTEIGER

@<TRIPOS>ATOM
      1  N         13.1660  109.8490  173.5780 N.3   512  LYS512     -0.1245
      2  CA        14.2940  109.6350  174.4810 C.3   512  LYS512      0.1561
      3  C         14.8530  108.2030  174.4290 C.2   512  LYS512      0.2260
      4  O         16.0710  108.0330  174.3730 O.2   512  LYS512     -0.2867
      5  CB        13.9120  109.9890  175.9230 C.3   512  LYS512      0.0271
      6  CG        15.0010  109.6550  176.9330 C.3   512  LYS512      0.0035
      7  CD        14.6490  110.1200  178.3350 C.3   512  LYS512      0.0206
      8  CE        15.7610  109.7680  179.3130 C.3   512  LYS512      0.1093
      9  NZ        15.4890  110.2730  180.6860 N.3   512  LYS512     -0.1314
     10  N         22.9530  107.4710  180.4060 N.3   554  THR554     -0.1203
     11  CA        21.7470  108.1040  179.8890 C.3   554  THR554      0.1994
     12  C         21.8550  109.6240  179.9370 C.2   554  THR554      0.2618
     13  O         22.9460  110.1770  180.0820 O.2   554  THR554     -0.2717
     14  CB        20.4960  107.6640  180.6750 C.3   554  THR554      0.1784
     15  OG1       19.3430  108.3430  180.1630 O.3   554  THR554     -0.2211
     16  CG2       20.6540  107.9840  182.1550 C.3   554  THR554      0.0376
     17  N         20.7150  110.2930  179.8090 N.am  555  PHE555     -0.1961
     18  CA        20.6590  111.7470  179.8860 C.3   555  PHE555      0.1771
     19  C         19.3190  112.1930  180.4590 C.2   555  PHE555      0.2619
     20  O         18.3660  111.4150  180.5050 O.2   555  PHE555     -0.2715
     21  CB        20.8870  112.3720  178.5070 C.3   555  PHE555      0.0574
     22  CG        19.7980  112.0700  177.5150 C.ar  555  PHE555     -0.0200
     23  CD1       18.7530  112.9600  177.3190 C.ar  555  PHE555     -0.0042
     24  CD2       19.8190  110.8980  176.7780 C.ar  555  PHE555     -0.0042
     25  CE1       17.7510  112.6850  176.4090 C.ar  555  PHE555     -0.0003
     26  CE2       18.8190  110.6170  175.8660 C.ar  555  PHE555     -0.0003
     27  CZ        17.7840  111.5130  175.6820 C.ar  555  PHE555     -0.0000
     28  N         19.2500  113.4460  180.8930 N.am  556  MET556     -0.1977
     29  CA        18.0210  113.9900  181.4580 C.3   556  MET556      0.1605
     30  C         17.1870  114.6700  180.3750 C.2   556  MET556      0.2287
     31  O         17.7280  115.2180  179.4150 O.2   556  MET556     -0.2864
     32  CB        18.3420  114.9690  182.5920 C.3   556  MET556      0.0413
     33  CG        17.1280  115.4430  183.3810 C.3   556  MET556      0.0598
     34  SD        17.5110  115.8960  185.0860 S.3   556  MET556     -0.1393
     35  CE        18.7410  117.1740  184.8470 C.3   556  MET556      0.0692
     36  N         21.7180  117.1910  180.1730 N.3   562  PRO562     -0.2102
     37  CA        23.0120  116.7760  180.7260 C.3   562  PRO562      0.1504
     38  C         23.2100  115.2630  180.6670 C.2   562  PRO562      0.2576
     39  O         22.2330  114.5160  180.6970 O.2   562  PRO562     -0.2718
     40  CB        22.9490  117.2680  182.1730 C.3   562  PRO562      0.0282
     41  CG        21.5000  117.2920  182.4920 C.3   562  PRO562      0.0208
     42  CD        20.7960  117.6620  181.2220 C.3   562  PRO562      0.0893
     43  N         24.4620  114.8250  180.5860 N.am  563  LEU563     -0.1966
     44  CA        24.7680  113.4080  180.4250 C.3   563  LEU563      0.1728
     45  C         25.0030  112.7000  181.7570 C.2   563  LEU563      0.2616
     46  O         25.5140  113.2890  182.7100 O.2   563  LEU563     -0.2715
     47  CB        25.9930  113.2280  179.5260 C.3   563  LEU563      0.0311
     48  CG        25.8890  113.7900  178.1070 C.3   563  LEU563      0.0022
     49  CD1       27.1520  113.4810  177.3180 C.3   563  LEU563      0.0001
     50  CD2       24.6600  113.2420  177.3990 C.3   563  LEU563      0.0001
     51  N         24.6240  111.4270  181.8030 N.am  564  TRP564     -0.1974
     52  CA        24.8220  110.5890  182.9780 C.3   564  TRP564      0.1640
     53  C         25.7720  109.4480  182.6300 C.2   564  TRP564      0.2290
     54  O         25.3670  108.4660  182.0100 O.2   564  TRP564     -0.2864
     55  CB        23.4790  110.0470  183.4770 C.3   564  TRP564      0.0576
     56  CG        23.5550  109.2130  184.7250 C.ar  564  TRP564      0.0006
     57  CD1       23.9580  107.9110  184.8200 C.ar  564  TRP564      0.0946
     58  CD2       23.1900  109.6160  186.0520 C.ar  564  TRP564      0.0152
     59  NE1       23.8780  107.4850  186.1240 N.ar  564  TRP564     -0.2442
     60  CE2       23.4090  108.5120  186.9000 C.ar  564  TRP564      0.0810
     61  CE3       22.7050  110.8050  186.6050 C.ar  564  TRP564      0.0012
     62  CZ2       23.1600  108.5620  188.2700 C.ar  564  TRP564      0.0191
     63  CZ3       22.4580  110.8530  187.9660 C.ar  564  TRP564      0.0001
     64  CH2       22.6860  109.7380  188.7820 C.ar  564  TRP564      0.0015
     65  N         28.4160  113.6630  186.0810 N.3   581  ILE581     -0.1245
     66  CA        27.3920  114.3620  185.3130 C.3   581  ILE581      0.1561
     67  C         28.0110  115.4480  184.4410 C.2   581  ILE581      0.2260
     68  O         28.5770  116.4160  184.9480 O.2   581  ILE581     -0.2867
     69  CB        26.3270  114.9950  186.2290 C.3   581  ILE581      0.0252
     70  CG1       25.5660  113.9080  186.9900 C.3   581  ILE581      0.0019
     71  CG2       25.3640  115.8470  185.4180 C.3   581  ILE581      0.0019
     72  CD1       24.5510  114.4460  187.9760 C.3   581  ILE581      0.0001
     73  N         29.2570  117.2040  197.2610 N.3   617  TYR617     -0.1241
     74  CA        29.6560  116.5210  196.0350 C.3   617  TYR617      0.1605
     75  C         30.4890  117.4310  195.1360 C.2   617  TYR617      0.2264
     76  O         30.3960  118.6570  195.2170 O.2   617  TYR617     -0.2867
     77  CB        28.4250  116.0110  195.2790 C.3   617  TYR617      0.0534
     78  CG        27.4390  117.0920  194.8940 C.ar  617  TYR617     -0.0201
     79  CD1       27.4990  117.7020  193.6480 C.ar  617  TYR617     -0.0009
     80  CD2       26.4450  117.5000  195.7760 C.ar  617  TYR617     -0.0009
     81  CE1       26.6000  118.6870  193.2910 C.ar  617  TYR617      0.0417
     82  CE2       25.5420  118.4870  195.4270 C.ar  617  TYR617      0.0417
     83  CZ        25.6260  119.0770  194.1840 C.ar  617  TYR617      0.1957
     84  OH        24.7310  120.0600  193.8300 O.3   617  TYR617     -0.2866
     85  N         29.7760  117.2810  187.3110 N.3   629  ILE629     -0.1231
     86  CA        29.1680  117.1720  188.6300 C.3   629  ILE629      0.1692
     87  C         29.2360  115.7240  189.1000 C.2   629  ILE629      0.2592
     88  O         28.8500  114.8110  188.3700 O.2   629  ILE629     -0.2718
     89  CB        27.7020  117.6500  188.6290 C.3   629  ILE629      0.0266
     90  CG1       27.6170  119.1250  188.2300 C.3   629  ILE629      0.0019
     91  CG2       27.0670  117.4300  189.9930 C.3   629  ILE629      0.0020
     92  CD1       26.2080  119.6770  188.2230 C.3   629  ILE629      0.0001
     93  N         29.7390  115.5140  190.3120 N.am  630  GLU630     -0.1966
     94  CA        29.8560  114.1660  190.8530 C.3   630  GLU630      0.1733
     95  C         28.4890  113.5740  191.1620 C.2   630  GLU630      0.2616
     96  O         27.6570  114.2080  191.8110 O.2   630  GLU630     -0.2715
     97  CB        30.7220  114.1590  192.1150 C.3   630  GLU630      0.0429
     98  CG        30.9130  112.7720  192.7100 C.3   630  GLU630      0.1163
     99  CD        31.6870  112.7910  194.0120 C.2   630  GLU630      0.3649
    100  OE1       31.8920  113.8900  194.5690 O.co2 630  GLU630     -0.2457
    101  OE2       32.0910  111.7040  194.4790 O.co2 630  GLU630     -0.2457
    102  N         28.2610  112.3540  190.6880 N.am  631  VAL631     -0.1963
    103  CA        27.0230  111.6450  190.9750 C.3   631  VAL631      0.1727
    104  C         26.9850  111.1840  192.4260 C.2   631  VAL631      0.2616
    105  O         27.8570  110.4390  192.8720 O.2   631  VAL631     -0.2715
    106  CB        26.8420  110.4200  190.0560 C.3   631  VAL631      0.0290
    107  CG1       25.7360  109.5160  190.5830 C.3   631  VAL631      0.0023
    108  CG2       26.5460  110.8610  188.6340 C.3   631  VAL631      0.0023
    109  N         25.9780  111.6400  193.1620 N.am  632  VAL632     -0.1977
    110  CA        25.7310  111.1240  194.4990 C.3   632  VAL632      0.1596
    111  C         24.9170  109.8430  194.3750 C.2   632  VAL632      0.2287
    112  O         23.7050  109.8810  194.1580 O.2   632  VAL632     -0.2864
    113  CB        24.9900  112.1380  195.3860 C.3   632  VAL632      0.0276
    114  CG1       24.7090  111.5350  196.7520 C.3   632  VAL632      0.0022
    115  CG2       25.8030  113.4150  195.5220 C.3   632  VAL632      0.0022
    116  N         20.6730  107.7240  195.6790 N.3   635  SER635     -0.1202
    117  CA        19.9080  108.8810  196.1220 C.3   635  SER635      0.2020
    118  C         18.7570  109.1810  195.1710 C.2   635  SER635      0.2619
    119  O         18.6610  108.5970  194.0910 O.2   635  SER635     -0.2717
    120  CB        20.8150  110.1060  196.2450 C.3   635  SER635      0.2103
    121  OG        21.3400  110.4760  194.9820 O.3   635  SER635     -0.2182
    122  N         17.8870  110.0960  195.5800 N.am  636  ASP636     -0.1959
    123  CA        16.7610  110.5060  194.7520 C.3   636  ASP636      0.1840
    124  C         16.2860  111.8970  195.1540 C.2   636  ASP636      0.2622
    125  O         16.5340  112.3470  196.2720 O.2   636  ASP636     -0.2715
    126  CB        15.6140  109.4980  194.8640 C.3   636  ASP636      0.1450
    127  CG        14.6870  109.5360  193.6650 C.2   636  ASP636      0.3671
    128  OD1       14.6340  110.5810  192.9850 O.co2 636  ASP636     -0.2456
    129  OD2       14.0110  108.5190  193.4010 O.co2 636  ASP636     -0.2456
    130  N         15.6060  112.5750  194.2360 N.am  637  THR637     -0.1951
    131  CA        15.0690  113.9010  194.5160 C.3   637  THR637      0.1897
    132  C         13.8070  113.7940  195.3640 C.2   637  THR637      0.2313
    133  O         13.0970  112.7900  195.3090 O.2   637  THR637     -0.2863
    134  CB        14.7480  114.6720  193.2210 C.3   637  THR637      0.1794
    135  OG1       13.6230  114.0710  192.5700 O.3   637  THR637     -0.2208
    136  CG2       15.9420  114.6580  192.2790 C.3   637  THR637      0.0378
    137  N         10.6140  113.4230  193.1570 N.3   640  ASN640     -0.1240
    138  CA        10.3930  112.0920  192.6050 C.3   640  ASN640      0.1653
    139  C          9.8690  111.1280  193.6640 C.2   640  ASN640      0.2266
    140  O          9.1420  110.1850  193.3540 O.2   640  ASN640     -0.2867
    141  CB        11.6830  111.5470  191.9900 C.3   640  ASN640      0.1155
    142  CG        11.4400  110.3530  191.0880 C.2   640  ASN640      0.2627
    143  OD1       10.3670  110.2130  190.5000 O.2   640  ASN640     -0.2716
    144  ND2       12.4390  109.4860  190.9730 N.am  640  ASN640     -0.0877
    145  N         12.4290  119.7250  193.5840 N.3   701  ASP701     -0.1239
    146  CA        13.1890  119.2640  192.4250 C.3   701  ASP701      0.1674
    147  C         14.6950  119.4660  192.5880 C.2   701  ASP701      0.2266
    148  O         15.4890  118.7390  191.9900 O.2   701  ASP701     -0.2867
    149  CB        12.7100  119.9710  191.1550 C.3   701  ASP701      0.1410
    150  CG        11.4080  119.4040  190.6260 C.2   701  ASP701      0.3668
    151  OD1       11.3260  118.1710  190.4450 O.co2 701  ASP701     -0.2456
    152  OD2       10.4660  120.1900  190.3910 O.co2 701  ASP701     -0.2456
    153  N         17.6560  116.7450  197.1600 N.3   704  MET704     -0.1245
    154  CA        17.7200  115.2900  197.0910 C.3   704  MET704      0.1570
    155  C         17.9910  114.6800  198.4590 C.2   704  MET704      0.2261
    156  O         18.2380  115.3930  199.4320 O.2   704  MET704     -0.2867
    157  CB        18.7940  114.8430  196.0990 C.3   704  MET704      0.0387
    158  CG        18.5840  115.3450  194.6830 C.3   704  MET704      0.0595
    159  SD        19.8300  114.7170  193.5410 S.3   704  MET704     -0.1393
    160  CE        19.5010  112.9580  193.6140 C.3   704  MET704      0.0692
    161  N         20.8930  120.6170  195.5900 N.3   714  ILE714     -0.1231
    162  CA        21.5790  120.6600  194.3040 C.3   714  ILE714      0.1692
    163  C         21.1360  121.8720  193.4940 C.2   714  ILE714      0.2592
    164  O         20.2120  122.5860  193.8890 O.2   714  ILE714     -0.2718
    165  CB        21.3160  119.3950  193.4700 C.3   714  ILE714      0.0266
    166  CG1       19.8210  119.2640  193.1830 C.3   714  ILE714      0.0019
    167  CG2       21.8480  118.1560  194.1780 C.3   714  ILE714      0.0020
    168  CD1       19.4610  118.0740  192.3430 C.3   714  ILE714      0.0001
    169  N         21.8000  122.0860  192.3600 N.am  715  ASP715     -0.1974
    170  CA        21.4710  123.1670  191.4340 C.3   715  ASP715      0.1709
    171  C         21.3740  124.5230  192.1240 C.2   715  ASP715      0.2293
    172  O         20.2990  125.1200  192.1910 O.2   715  ASP715     -0.2864
    173  CB        20.1620  122.8620  190.7030 C.3   715  ASP715      0.1436
    174  CG        20.2670  121.6450  189.8070 C.2   715  ASP715      0.3671
    175  OD1       21.3930  121.3260  189.3680 O.co2 715  ASP715     -0.2456
    176  OD2       19.2260  121.0080  189.5390 O.co2 715  ASP715     -0.2456
@<TRIPOS>BOND
     1     1     2    1
     2     4     3    2
     3     3     2    1
     4     2     5    1
     5    27    26   ar
     6    27    25   ar
     7    26    24   ar
     8     5     6    1
     9    25    23   ar
    10    24    22   ar
    11     6     7    1
    12    49    48    1
    13    23    22   ar
    14    50    48    1
    15    22    21    1
    16    48    47    1
    17     7     8    1
    18    21    18    1
    19     8     9    1
    20    31    30    2
    21    47    44    1
    22    17    18    1
    23    17    12   am
    24    18    19    1
    25    11    12    1
    26    11    10    1
    27    11    14    1
    28    12    13    2
    29    15    14    1
    30    36    37    1
    31    36    42    1
    32    30    29    1
    33    44    43    1
    34    44    45    1
    35    19    20    2
    36    19    28   am
    37    43    38   am
    38    38    39    2
    39    38    37    1
    40    14    16    1
    41    37    40    1
    42    28    29    1
    43    42    41    1
    44    29    32    1
    45    45    51   am
    46    45    46    2
    47    51    52    1
    48    54    53    2
    49    40    41    1
    50    32    33    1
    51    53    52    1
    52    52    55    1
    53    33    34    1
    54    55    56    1
    55    67    68    2
    56    67    66    1
    57    56    57   ar
    58    56    58   ar
    59    57    59   ar
    60    35    34    1
    61    66    65    1
    62    66    69    1
    63    71    69    1
    64    58    61   ar
    65    58    60   ar
    66    59    60   ar
    67    69    70    1
    68    61    63   ar
    69    60    62   ar
    70    70    72    1
    71    85    86    1
    72    63    64   ar
    73    92    90    1
    74    90    89    1
    75    62    64   ar
    76    88    87    2
    77    89    86    1
    78    89    91    1
    79    86    87    1
    80   108   106    1
    81    87    93   am
    82   175   174   ar
    83   176   174   ar
    84   174   173    1
    85   106   107    1
    86   106   103    1
    87    93    94    1
    88   152   150   ar
    89   151   150   ar
    90   143   142    2
    91   150   149    1
    92   102   103    1
    93   102    95   am
    94   173   170    1
    95    94    95    1
    96    94    97    1
    97   144   142   am
    98   103   104    1
    99   142   141    1
   100   149   146    1
   101    95    96    2
   102   170   171    1
   103   170   169    1
   104   141   138    1
   105   148   147    2
   106    97    98    1
   107   171   172    2
   108   136   134    1
   109   168   166    1
   110   169   163   am
   111   146   147    1
   112   146   145    1
   113   104   105    2
   114   104   109   am
   115   135   134    1
   116   138   137    1
   117   138   139    1
   118    98    99    1
   119   128   127   ar
   120   109   110    1
   121   166   165    1
   122   134   131    1
   123    81    79   ar
   124    81    83   ar
   125   140   139    2
   126   129   127   ar
   127   165   167    1
   128   165   162    1
   129   163   164    2
   130   163   162    1
   131   159   160    1
   132   159   158    1
   133    79    78   ar
   134   127   126    1
   135    84    83    1
   136    99   101   ar
   137    99   100   ar
   138   119   118    2
   139   112   111    2
   140    83    82   ar
   141   130   131    1
   142   130   124   am
   143   162   161    1
   144   111   110    1
   145   110   113    1
   146   131   132    1
   147   158   157    1
   148   123   126    1
   149   123   124    1
   150   123   122    1
   151    78    77    1
   152    78    80   ar
   153   121   120    1
   154    75    76    2
   155    75    74    1
   156   124   125    2
   157   118   122   am
   158   118   117    1
   159    77    74    1
   160   133   132    2
   161   113   115    1
   162   113   114    1
   163    82    80   ar
   164   116   117    1
   165    74    73    1
   166   157   154    1
   167   117   120    1
   168   154   153    1
   169   154   155    1
   170   155   156    2
