@<TRIPOS>MOLECULE
tmp/5t7hB00.pdb
 113 109 0 0 0
SMALL
GASTEIGER

@<TRIPOS>ATOM
      1  N        -95.4260   66.7800   58.2980 N.3    43  SER43      -0.1202
      2  CA       -94.2730   66.0520   57.7760 C.3    43  SER43       0.2020
      3  C        -93.2360   66.9970   57.1790 C.2    43  SER43       0.2619
      4  O        -93.5630   68.1170   56.7820 O.2    43  SER43      -0.2717
      5  CB       -94.7120   65.0250   56.7330 C.3    43  SER43       0.2103
      6  OG       -95.5090   65.6120   55.7290 O.3    43  SER43      -0.2182
      7  N        -91.9800   66.5520   57.1410 N.am   44  GLY44      -0.1956
      8  CA       -90.9460   67.2750   56.4290 C.3    44  GLY44       0.1869
      9  C        -90.5310   68.5830   57.0600 C.2    44  GLY44       0.2309
     10  O        -90.0770   69.4970   56.3710 O.2    44  GLY44      -0.2863
     11  N        -84.9170   68.1150   53.7700 N.3    51  TYR51      -0.1227
     12  CA       -85.4680   66.9010   53.1480 C.3    51  TYR51       0.1736
     13  C        -85.3110   66.8580   51.6290 C.2    51  TYR51       0.2596
     14  O        -84.9740   67.8700   51.0060 O.2    51  TYR51      -0.2718
     15  CB       -86.9640   66.7820   53.4720 C.3    51  TYR51       0.0548
     16  CG       -87.2760   66.6720   54.9370 C.ar   51  TYR51      -0.0200
     17  CD1      -87.1820   67.7780   55.7780 C.ar   51  TYR51      -0.0009
     18  CD2      -87.6720   65.4580   55.4800 C.ar   51  TYR51      -0.0009
     19  CE1      -87.4760   67.6770   57.1330 C.ar   51  TYR51       0.0417
     20  CE2      -87.9760   65.3440   56.8350 C.ar   51  TYR51       0.0417
     21  CZ       -87.8710   66.4590   57.6540 C.ar   51  TYR51       0.1957
     22  OH       -88.1710   66.3470   58.9930 O.3    51  TYR51      -0.2866
     23  N        -85.5950   65.6910   51.0420 N.am   52  THR52      -0.1953
     24  CA       -85.7560   65.5660   49.5930 C.3    52  THR52       0.1897
     25  C        -87.0240   66.3170   49.1580 C.2    52  THR52       0.2313
     26  O        -87.7590   66.8450   49.9990 O.2    52  THR52      -0.2863
     27  CB       -85.9000   64.1060   49.1380 C.3    52  THR52       0.1794
     28  OG1      -87.2430   63.6730   49.3830 O.3    52  THR52      -0.2208
     29  CG2      -84.9070   63.1770   49.8700 C.3    52  THR52       0.0378
     30  N        -89.6980   65.2380   48.4280 N.3    54  ALA54      -0.1231
     31  CA       -90.8820   64.5540   48.9210 C.3    54  ALA54       0.1694
     32  C        -91.7440   65.4720   49.7830 C.2    54  ALA54       0.2592
     33  O        -92.9630   65.3450   49.7900 O.2    54  ALA54      -0.2718
     34  CB       -90.4850   63.2940   49.7040 C.3    54  ALA54       0.0304
     35  N        -91.1360   66.4150   50.4970 N.am   55  ASN55      -0.1974
     36  CA       -91.9380   67.2490   51.3900 C.3    55  ASN55       0.1688
     37  C        -92.5520   68.4930   50.7230 C.2    55  ASN55       0.2292
     38  O        -93.2510   69.2700   51.3850 O.2    55  ASN55      -0.2864
     39  CB       -91.1180   67.6550   52.6250 C.3    55  ASN55       0.1181
     40  CG       -89.9880   68.6020   52.3080 C.2    55  ASN55       0.2629
     41  OD1      -89.5390   68.7070   51.1720 O.2    55  ASN55      -0.2716
     42  ND2      -89.4960   69.2880   53.3380 N.am   55  ASN55      -0.0877
     43  N        -95.8000   65.6980   48.8830 N.3    58  LYS58      -0.1245
     44  CA       -96.8170   65.1780   49.7850 C.3    58  LYS58       0.1561
     45  C        -96.7330   65.8940   51.1340 C.2    58  LYS58       0.2260
     46  O        -95.6380   66.2540   51.5860 O.2    58  LYS58      -0.2867
     47  CB       -96.6530   63.6620   49.9900 C.3    58  LYS58       0.0271
     48  CG       -95.8460   62.9340   48.9140 C.3    58  LYS58       0.0035
     49  CD       -96.5680   62.9250   47.5710 C.3    58  LYS58       0.0206
     50  CE       -95.8020   62.1510   46.5130 C.3    58  LYS58       0.1093
     51  NZ       -96.2120   62.6020   45.1400 N.3    58  LYS58      -0.1314
     52  N        -98.6040   65.5390   55.1430 N.3    60  VAL60      -0.1245
     53  CA       -99.5480   65.1090   56.1480 C.3    60  VAL60       0.1561
     54  C        -99.1990   65.7310   57.4910 C.2    60  VAL60       0.2260
     55  O        -98.0310   65.9940   57.7870 O.2    60  VAL60      -0.2867
     56  CB       -99.5770   63.5780   56.2770 C.3    60  VAL60       0.0252
     57  CG1     -100.0020   62.9550   54.9630 C.3    60  VAL60       0.0019
     58  CG2      -98.2010   63.0380   56.7140 C.3    60  VAL60       0.0019
     59  N        -98.8650   64.3000   60.8340 N.3    62  TRP62      -0.1241
     60  CA       -98.6840   62.8990   61.2260 C.3    62  TRP62       0.1605
     61  C        -99.6430   62.4760   62.3320 C.2    62  TRP62       0.2264
     62  O        -99.8110   63.1850   63.3200 O.2    62  TRP62      -0.2867
     63  CB       -97.2380   62.6270   61.6940 C.3    62  TRP62       0.0550
     64  CG       -96.1780   62.6110   60.6070 C.ar   62  TRP62       0.0003
     65  CD1      -95.1440   63.4840   60.4670 C.ar   62  TRP62       0.0946
     66  CD2      -96.0500   61.6630   59.5350 C.ar   62  TRP62       0.0152
     67  NE1      -94.3800   63.1450   59.3760 N.ar   62  TRP62      -0.2442
     68  CE2      -94.9160   62.0290   58.7870 C.ar   62  TRP62       0.0810
     69  CE3      -96.7830   60.5390   59.1380 C.ar   62  TRP62       0.0012
     70  CZ2      -94.4980   61.3190   57.6600 C.ar   62  TRP62       0.0191
     71  CZ3      -96.3730   59.8390   58.0130 C.ar   62  TRP62       0.0001
     72  CH2      -95.2360   60.2290   57.2920 C.ar   62  TRP62       0.0015
     73  N       -102.0010   57.8690   58.8400 N.3    66  ASN66      -0.1240
     74  CA      -101.0940   58.1060   57.7140 C.3    66  ASN66       0.1653
     75  C        -99.6700   57.5600   57.9680 C.2    66  ASN66       0.2266
     76  O        -98.9810   57.1510   57.0360 O.2    66  ASN66      -0.2867
     77  CB      -101.0440   59.6010   57.3740 C.3    66  ASN66       0.1155
     78  CG      -100.8780   60.4840   58.6010 C.2    66  ASN66       0.2627
     79  OD1     -100.2520   60.0910   59.5890 O.2    66  ASN66      -0.2716
     80  ND2     -101.4230   61.6960   58.5330 N.am   66  ASN66      -0.0877
     81  N        -99.6630   53.7270   57.0600 N.3    69  GLU69      -0.1231
     82  CA       -99.6720   53.4740   55.6300 C.3    69  GLU69       0.1699
     83  C        -98.3140   53.8630   55.0100 C.2    69  GLU69       0.2592
     84  O        -97.8030   53.1700   54.1380 O.2    69  GLU69      -0.2718
     85  CB      -100.8420   54.2290   54.9880 C.3    69  GLU69       0.0402
     86  CG      -101.6760   53.3840   54.0350 C.3    69  GLU69       0.1161
     87  CD      -102.6030   52.4030   54.7440 C.2    69  GLU69       0.3649
     88  OE1     -102.7240   52.4690   55.9920 O.co2  69  GLU69      -0.2457
     89  OE2     -103.1990   51.5480   54.0450 O.co2  69  GLU69      -0.2457
     90  N        -97.7380   54.9600   55.4920 N.am   70  TYR70      -0.1976
     91  CA       -96.3630   55.3510   55.1410 C.3    70  TYR70       0.1639
     92  C        -95.3730   54.2200   55.3450 C.2    70  TYR70       0.2290
     93  O        -94.6280   53.8490   54.4390 O.2    70  TYR70      -0.2864
     94  CB       -95.9100   56.5500   55.9690 C.3    70  TYR70       0.0560
     95  CG       -94.4550   56.9150   55.7470 C.ar   70  TYR70      -0.0198
     96  CD1      -94.0030   57.3280   54.4940 C.ar   70  TYR70      -0.0009
     97  CD2      -93.5370   56.8490   56.7830 C.ar   70  TYR70      -0.0009
     98  CE1      -92.6670   57.6610   54.2800 C.ar   70  TYR70       0.0417
     99  CE2      -92.1930   57.1840   56.5820 C.ar   70  TYR70       0.0417
    100  CZ       -91.7690   57.5900   55.3310 C.ar   70  TYR70       0.1957
    101  OH       -90.4520   57.9220   55.1320 O.3    70  TYR70      -0.2866
    102  N        -91.7320   56.9640   48.5770 N.3    77  TYR77      -0.1241
    103  CA       -91.7790   58.4220   48.6770 C.3    77  TYR77       0.1605
    104  C        -90.4190   59.0690   48.4940 C.2    77  TYR77       0.2264
    105  O        -90.3040   60.2920   48.5290 O.2    77  TYR77      -0.2867
    106  CB       -92.3560   58.8460   50.0150 C.3    77  TYR77       0.0534
    107  CG       -93.7140   58.2640   50.2430 C.ar   77  TYR77      -0.0201
    108  CD1      -94.8570   58.8780   49.7370 C.ar   77  TYR77      -0.0009
    109  CD2      -93.8560   57.0790   50.9370 C.ar   77  TYR77      -0.0009
    110  CE1      -96.0960   58.3240   49.9460 C.ar   77  TYR77       0.0417
    111  CE2      -95.0760   56.5290   51.1490 C.ar   77  TYR77       0.0417
    112  CZ       -96.1870   57.1480   50.6580 C.ar   77  TYR77       0.1957
    113  OH       -97.3870   56.5550   50.8960 O.3    77  TYR77      -0.2866
@<TRIPOS>BOND
     1    51    50    1
     2    50    49    1
     3    49    48    1
     4    30    31    1
     5   104   105    2
     6   104   103    1
     7   102   103    1
     8   103   106    1
     9    43    44    1
    10    48    47    1
    11    31    34    1
    12    31    32    1
    13    27    28    1
    14    27    24    1
    15    27    29    1
    16    25    24    1
    17    25    26    2
    18    24    23    1
    19   108   110   ar
    20   108   107   ar
    21    32    33    2
    22    32    35   am
    23    44    47    1
    24    44    45    1
    25   110   112   ar
    26   106   107    1
    27   107   109   ar
    28    35    36    1
    29   112   113    1
    30   112   111   ar
    31    37    38    2
    32    37    36    1
    33   109   111   ar
    34    14    13    2
    35    23    13   am
    36    45    46    2
    37    41    40    2
    38    36    39    1
    39    13    12    1
    40    40    39    1
    41    40    42   am
    42    12    15    1
    43    12    11    1
    44    15    16    1
    45    86    87    1
    46    86    85    1
    47    89    87   ar
    48    84    83    2
    49    98    96   ar
    50    98   100   ar
    51    93    92    2
    52    96    95   ar
    53    87    88   ar
    54    16    18   ar
    55    16    17   ar
    56    57    56    1
    57    85    82    1
    58    83    90   am
    59    83    82    1
    60   101   100    1
    61    91    92    1
    62    91    90    1
    63    91    94    1
    64    52    53    1
    65   100    99   ar
    66    18    20   ar
    67    82    81    1
    68     6     5    1
    69    95    94    1
    70    95    97   ar
    71    17    19   ar
    72    53    56    1
    73    53    54    1
    74    56    58    1
    75    10     9    2
    76     8     9    1
    77     8     7    1
    78    99    97   ar
    79     5     2    1
    80     4     3    2
    81    20    21   ar
    82    76    75    2
    83    19    21   ar
    84     7     3   am
    85     3     2    1
    86    72    70   ar
    87    72    71   ar
    88    77    74    1
    89    77    78    1
    90    54    55    2
    91    21    22    1
    92    70    68   ar
    93    74    75    1
    94    74    73    1
    95     2     1    1
    96    71    69   ar
    97    80    78   am
    98    78    79    2
    99    68    67   ar
   100    68    66   ar
   101    69    66   ar
   102    67    65   ar
   103    66    64   ar
   104    65    64   ar
   105    64    63    1
   106    59    60    1
   107    60    63    1
   108    60    61    1
   109    61    62    2
