@<TRIPOS>MOLECULE
tmp/5t7iA02.pdb
 93 86 0 0 0
SMALL
GASTEIGER

@<TRIPOS>ATOM
      1  N        -25.2930   12.2130   -3.7980 N.3    11  PRO11      -0.2116
      2  CA       -25.8680   10.8690   -3.6840 C.3    11  PRO11       0.1372
      3  C        -27.0980   10.6300   -4.5590 C.2    11  PRO11       0.2244
      4  O        -27.9790   11.4820   -4.6650 O.2    11  PRO11      -0.2868
      5  CB       -26.2160   10.7580   -2.1780 C.3    11  PRO11       0.0268
      6  CG       -26.4120   12.1680   -1.7260 C.3    11  PRO11       0.0207
      7  CD       -25.4400   12.9850   -2.5460 C.3    11  PRO11       0.0892
      8  N        -19.7500    3.6850   -2.9290 N.3    40  GLN40      -0.1245
      9  CA       -20.4880    2.4380   -2.8820 C.3    40  GLN40       0.1566
     10  C        -21.7260    2.4560   -3.7280 C.2    40  GLN40       0.2260
     11  O        -22.3570    3.5000   -3.9090 O.2    40  GLN40      -0.2867
     12  CB       -20.8450    2.0380   -1.4440 C.3    40  GLN40       0.0367
     13  CG       -21.7120    3.0300   -0.6910 C.3    40  GLN40       0.0905
     14  CD       -20.9500    3.9660    0.2130 C.2    40  GLN40       0.2608
     15  OE1      -19.7920    4.2950   -0.0290 O.2    40  GLN40      -0.2717
     16  NE2      -21.6190    4.4220    1.2740 N.am   40  GLN40      -0.0878
     17  N        -25.2540    0.4330   -3.7370 N.3    42  ASP42      -0.1239
     18  CA       -26.1320   -0.3170   -2.8350 C.3    42  ASP42       0.1674
     19  C        -27.3910   -0.7510   -3.5670 C.2    42  ASP42       0.2266
     20  O        -28.0620    0.0810   -4.1410 O.2    42  ASP42      -0.2867
     21  CB       -26.5450    0.5470   -1.6280 C.3    42  ASP42       0.1410
     22  CG       -25.4040    0.7900   -0.6510 C.2    42  ASP42       0.3668
     23  OD1      -24.3510    0.1490   -0.7940 O.co2  42  ASP42      -0.2456
     24  OD2      -25.5600    1.6140    0.2770 O.co2  42  ASP42      -0.2456
     25  N        -30.8560   -1.9490   -2.8330 N.3    44  GLN44      -0.1245
     26  CA       -31.6330   -1.7770   -1.5950 C.3    44  GLN44       0.1566
     27  C        -33.0630   -2.3150   -1.7190 C.2    44  GLN44       0.2260
     28  O        -33.6550   -2.3190   -2.8060 O.2    44  GLN44      -0.2867
     29  CB       -31.6990   -0.2910   -1.1960 C.3    44  GLN44       0.0367
     30  CG       -30.3590    0.4040   -1.0420 C.3    44  GLN44       0.0905
     31  CD       -30.4510    1.8890   -0.7130 C.2    44  GLN44       0.2608
     32  OE1      -29.4300    2.5800   -0.7030 O.2    44  GLN44      -0.2717
     33  NE2      -31.6640    2.3930   -0.4510 N.am   44  GLN44      -0.0878
     34  N        -36.0700    3.8290    2.5800 N.3    48  SER48      -0.1202
     35  CA       -36.1610    4.2930    3.9610 C.3    48  SER48       0.2020
     36  C        -34.7670    4.5990    4.5180 C.2    48  SER48       0.2618
     37  O        -33.7780    3.9280    4.1730 O.2    48  SER48      -0.2717
     38  CB       -36.8770    3.2400    4.8340 C.3    48  SER48       0.2103
     39  OG       -36.9410    3.6300    6.1890 O.3    48  SER48      -0.2182
     40  N        -34.7020    5.6440    5.3390 N.am   49  VAL49      -0.1979
     41  CA       -33.4780    6.0530    6.0600 C.3    49  VAL49       0.1595
     42  C        -33.5610    5.8640    7.5790 C.2    49  VAL49       0.2287
     43  O        -32.5300    5.9540    8.2690 O.2    49  VAL49      -0.2864
     44  CB       -33.0580    7.5150    5.7440 C.3    49  VAL49       0.0276
     45  CG1      -32.6710    7.6540    4.2780 C.3    49  VAL49       0.0022
     46  CG2      -34.1440    8.5340    6.1200 C.3    49  VAL49       0.0022
     47  N        -32.7740    2.3990    8.3710 N.3    52  ARG52      -0.1231
     48  CA       -32.0020    2.3370    7.1140 C.3    52  ARG52       0.1694
     49  C        -32.4690    1.1560    6.2850 C.2    52  ARG52       0.2591
     50  O        -32.5010    0.0190    6.7890 O.2    52  ARG52      -0.2718
     51  CB       -30.4990    2.1770    7.3660 C.3    52  ARG52       0.0321
     52  CG       -29.8140    3.3760    7.9940 C.3    52  ARG52       0.0489
     53  CD       -29.6840    4.5230    7.0120 C.3    52  ARG52       0.2205
     54  NE       -29.0970    5.7030    7.6440 N.pl3  52  ARG52      -0.0865
     55  CZ       -29.0890    6.9280    7.1200 C.cat  52  ARG52       0.5346
     56  NH1      -29.6180    7.1720    5.9230 N.pl3  52  ARG52       0.1354
     57  NH2      -28.5320    7.9230    7.8050 N.pl3  52  ARG52       0.1354
     58  N        -32.8300    1.4150    5.0290 N.am   53  ALA53      -0.1980
     59  CA       -33.2320    0.3320    4.1050 C.3    53  ALA53       0.1597
     60  C        -32.2300   -0.8350    4.1140 C.2    53  ALA53       0.2287
     61  O        -31.0080   -0.6300    4.1740 O.2    53  ALA53      -0.2864
     62  CB       -33.4040    0.8660    2.6880 C.3    53  ALA53       0.0319
     63  N        -29.8500   -3.4930    2.7190 N.3    55  VAL55      -0.1245
     64  CA       -28.9990   -3.4580    1.5430 C.3    55  VAL55       0.1561
     65  C        -28.6100   -4.9020    1.2120 C.2    55  VAL55       0.2260
     66  O        -27.7600   -5.5100    1.8860 O.2    55  VAL55      -0.2867
     67  CB       -27.7440   -2.5890    1.7550 C.3    55  VAL55       0.0252
     68  CG1      -26.8900   -2.5960    0.4850 C.3    55  VAL55       0.0019
     69  CG2      -28.1160   -1.1620    2.1770 C.3    55  VAL55       0.0019
     70  N        -26.7330   -5.5120    4.6180 N.3    73  LEU73      -0.1245
     71  CA       -27.2730   -4.8070    5.7880 C.3    73  LEU73       0.1561
     72  C        -28.7120   -5.2550    5.9780 C.2    73  LEU73       0.2260
     73  O        -29.5220   -5.1490    5.0620 O.2    73  LEU73      -0.2867
     74  CB       -27.2320   -3.2870    5.6220 C.3    73  LEU73       0.0270
     75  CG       -27.5910   -2.4620    6.8780 C.3    73  LEU73       0.0019
     76  CD1      -26.3950   -2.3200    7.7990 C.3    73  LEU73       0.0001
     77  CD2      -28.1220   -1.0840    6.4960 C.3    73  LEU73       0.0001
     78  N        -23.3840    6.1700   -3.6650 N.3   133  TYR133     -0.1227
     79  CA       -22.9140    7.1230   -2.6630 C.3   133  TYR133      0.1736
     80  C        -21.4180    7.2250   -2.5950 C.2   133  TYR133      0.2596
     81  O        -20.6850    6.2950   -2.9940 O.2   133  TYR133     -0.2718
     82  CB       -23.3930    6.7160   -1.2780 C.3   133  TYR133      0.0548
     83  CG       -24.8330    6.2910   -1.2080 C.ar  133  TYR133     -0.0200
     84  CD1      -25.8500    7.2220   -1.3190 C.ar  133  TYR133     -0.0009
     85  CD2      -25.1800    4.9530   -1.0070 C.ar  133  TYR133     -0.0009
     86  CE1      -27.1770    6.8540   -1.2310 C.ar  133  TYR133      0.0417
     87  CE2      -26.5120    4.5710   -0.9190 C.ar  133  TYR133      0.0417
     88  CZ       -27.5040    5.5300   -1.0300 C.ar  133  TYR133      0.1957
     89  OH       -28.8160    5.1720   -0.9610 O.3   133  TYR133     -0.2866
     90  N        -20.9760    8.3570   -2.0380 N.am  134  GLY134     -0.1957
     91  CA       -19.5790    8.6220   -1.7680 C.3   134  GLY134      0.1869
     92  C        -18.9020    9.4030   -2.8750 C.2   134  GLY134      0.2309
     93  O        -19.5530   10.0790   -3.6800 O.2   134  GLY134     -0.2863
@<TRIPOS>BOND
     1     4     3    2
     2     3     2    1
     3    20    19    2
     4    11    10    2
     5     1     2    1
     6     1     7    1
     7    17    18    1
     8    10     9    1
     9     2     5    1
    10    93    92    2
    11    78    79    1
    12    19    18    1
    13    81    80    2
    14     8     9    1
    15     9    12    1
    16    92    91    1
    17    18    21    1
    18    25    26    1
    19    28    27    2
    20    79    80    1
    21    79    82    1
    22    80    90   am
    23     7     6    1
    24     5     6    1
    25    90    91    1
    26    27    26    1
    27    21    22    1
    28    26    29    1
    29    12    13    1
    30    84    86   ar
    31    84    83   ar
    32    82    83    1
    33    86    88   ar
    34    83    85   ar
    35    29    30    1
    36    30    31    1
    37    88    89    1
    38    88    87   ar
    39    85    87   ar
    40    23    22   ar
    41    31    32    2
    42    31    33   am
    43    13    14    1
    44    22    24   ar
    45    15    14    2
    46    14    16   am
    47    68    67    1
    48    65    64    1
    49    65    66    2
    50    64    67    1
    51    64    63    1
    52    67    69    1
    53    34    35    1
    54    62    59    1
    55    35    36    1
    56    35    38    1
    57    59    60    1
    58    59    58    1
    59    60    61    2
    60    37    36    2
    61    45    44    1
    62    36    40   am
    63    70    71    1
    64    38    39    1
    65    58    49   am
    66    73    72    2
    67    40    41    1
    68    74    71    1
    69    74    75    1
    70    44    41    1
    71    44    46    1
    72    71    72    1
    73    56    55    1
    74    41    42    1
    75    49    50    2
    76    49    48    1
    77    77    75    1
    78    75    76    1
    79    53    54    1
    80    53    52    1
    81    48    51    1
    82    48    47    1
    83    55    54    2
    84    55    57    1
    85    51    52    1
    86    42    43    2
