@<TRIPOS>MOLECULE
tmp/5t7mA00.pdb
 153 150 0 0 0
SMALL
GASTEIGER

@<TRIPOS>ATOM
      1  N        -29.3130   -0.7960  -18.6280 N.3    70  PHE70      -0.1241
      2  CA       -30.7320   -0.6780  -18.9700 C.3    70  PHE70       0.1605
      3  C        -31.1370    0.7900  -18.8500 C.2    70  PHE70       0.2264
      4  O        -30.6840    1.4900  -17.9380 O.2    70  PHE70      -0.2867
      5  CB       -31.6310   -1.5320  -18.0440 C.3    70  PHE70       0.0534
      6  CG       -31.3560   -3.0070  -18.1050 C.ar   70  PHE70      -0.0203
      7  CD1      -32.0070   -3.8110  -19.0370 C.ar   70  PHE70      -0.0042
      8  CD2      -30.4600   -3.5950  -17.2280 C.ar   70  PHE70      -0.0042
      9  CE1      -31.7630   -5.1720  -19.0970 C.ar   70  PHE70      -0.0003
     10  CE2      -30.2090   -4.9620  -17.2790 C.ar   70  PHE70      -0.0003
     11  CZ       -30.8600   -5.7520  -18.2200 C.ar   70  PHE70      -0.0000
     12  N        -34.9010    3.2260  -19.0800 N.3    72  TYR72      -0.1241
     13  CA       -36.3290    2.9710  -18.9900 C.3    72  TYR72       0.1605
     14  C        -37.1790    4.1700  -18.5760 C.2    72  TYR72       0.2264
     15  O        -36.6850    5.1510  -18.0000 O.2    72  TYR72      -0.2867
     16  CB       -36.5740    1.8130  -18.0030 C.3    72  TYR72       0.0534
     17  CG       -35.7330    1.8990  -16.7410 C.ar   72  TYR72      -0.0201
     18  CD1      -36.1470    2.6620  -15.6560 C.ar   72  TYR72      -0.0009
     19  CD2      -34.5340    1.2140  -16.6340 C.ar   72  TYR72      -0.0009
     20  CE1      -35.3900    2.7280  -14.4880 C.ar   72  TYR72       0.0417
     21  CE2      -33.7690    1.2900  -15.4880 C.ar   72  TYR72       0.0417
     22  CZ       -34.1990    2.0500  -14.4150 C.ar   72  TYR72       0.1957
     23  OH       -33.4420    2.1020  -13.2550 O.3    72  TYR72      -0.2866
     24  N        -44.5550    0.5040  -17.4610 N.3    80  PHE80      -0.1241
     25  CA       -43.0960    0.4480  -17.5020 C.3    80  PHE80       0.1605
     26  C        -42.5790    0.0040  -18.8740 C.2    80  PHE80       0.2264
     27  O        -43.0600   -0.9770  -19.4320 O.2    80  PHE80      -0.2867
     28  CB       -42.6050   -0.5040  -16.4100 C.3    80  PHE80       0.0534
     29  CG       -41.1070   -0.5690  -16.2610 C.ar   80  PHE80      -0.0203
     30  CD1      -40.3900    0.5180  -15.7900 C.ar   80  PHE80      -0.0042
     31  CD2      -40.4230   -1.7450  -16.5640 C.ar   80  PHE80      -0.0042
     32  CE1      -39.0160    0.4420  -15.6240 C.ar   80  PHE80      -0.0003
     33  CE2      -39.0550   -1.8330  -16.4060 C.ar   80  PHE80      -0.0003
     34  CZ       -38.3470   -0.7350  -15.9250 C.ar   80  PHE80      -0.0000
     35  N        -38.8210   -0.6500  -20.9410 N.3    82  MET82      -0.1245
     36  CA       -37.3680   -0.7470  -20.7770 C.3    82  MET82       0.1570
     37  C        -36.6230   -1.3550  -21.9840 C.2    82  MET82       0.2261
     38  O        -37.1500   -2.2390  -22.6620 O.2    82  MET82      -0.2867
     39  CB       -37.0640   -1.5730  -19.5280 C.3    82  MET82       0.0387
     40  CG       -35.5810   -1.7570  -19.2400 C.3    82  MET82       0.0595
     41  SD       -35.2780   -2.4720  -17.5950 S.3    82  MET82      -0.1393
     42  CE       -35.9440   -4.1270  -17.8250 C.3    82  MET82       0.0692
     43  N        -36.3330   -7.6580  -20.7590 N.3    86  SER86      -0.1203
     44  CA       -35.9630   -8.5250  -19.6520 C.3    86  SER86       0.2005
     45  C        -37.1710   -9.3040  -19.1860 C.2    86  SER86       0.2461
     46  O        -38.3090   -8.8560  -19.3480 O.2    86  SER86      -0.2732
     47  CB       -35.3690   -7.6860  -18.5020 C.3    86  SER86       0.2103
     48  OG       -35.1220   -8.4540  -17.3300 O.3    86  SER86      -0.2182
     49  N        -36.9410  -10.4950  -18.6330 N.am   87  PRO87      -0.2717
     50  CA       -38.0620  -11.1680  -17.9670 C.3    87  PRO87       0.1535
     51  C        -38.5760  -10.3070  -16.8070 C.2    87  PRO87       0.2598
     52  O        -37.7970   -9.6210  -16.1370 O.2    87  PRO87      -0.2715
     53  CB       -37.4440  -12.4840  -17.4820 C.3    87  PRO87       0.0310
     54  CG       -36.2800  -12.7190  -18.4120 C.3    87  PRO87       0.0237
     55  CD       -35.7380  -11.3420  -18.7080 C.3    87  PRO87       0.0939
     56  N        -39.8840  -10.3010  -16.6050 N.am   88  MET88      -0.1964
     57  CA       -40.4920   -9.4110  -15.6330 C.3    88  MET88       0.1721
     58  C        -41.0270  -10.1800  -14.4230 C.2    88  MET88       0.2458
     59  O        -41.8350  -11.0930  -14.5740 O.2    88  MET88      -0.2730
     60  CB       -41.6210   -8.6120  -16.2840 C.3    88  MET88       0.0427
     61  CG       -41.1510   -7.5940  -17.3190 C.3    88  MET88       0.0599
     62  SD       -40.3560   -6.1340  -16.5760 S.3    88  MET88      -0.1393
     63  CE       -41.7220   -5.3990  -15.6520 C.3    88  MET88       0.0692
     64  N        -40.5830   -9.7960  -13.2140 N.am   89  PRO89      -0.2727
     65  CA       -41.0730  -10.4210  -11.9820 C.3    89  PRO89       0.1402
     66  C        -42.5260  -10.0460  -11.7660 C.2    89  PRO89       0.2269
     67  O        -42.9060   -8.9200  -12.0850 O.2    89  PRO89      -0.2865
     68  CB       -40.1790   -9.8130  -10.8930 C.3    89  PRO89       0.0296
     69  CG       -39.8460   -8.4510  -11.4330 C.3    89  PRO89       0.0237
     70  CD       -39.7470   -8.6120  -12.9400 C.3    89  PRO89       0.0939
     71  N        -44.4880   -6.2260  -10.2410 N.3    92  TYR92      -0.1241
     72  CA       -43.6520   -5.0460  -10.4210 C.3    92  TYR92       0.1605
     73  C        -44.4740   -3.7630  -10.5810 C.2    92  TYR92       0.2264
     74  O        -45.4990   -3.7450  -11.2810 O.2    92  TYR92      -0.2867
     75  CB       -42.7360   -5.2250  -11.6440 C.3    92  TYR92       0.0534
     76  CG       -41.6840   -4.1430  -11.7490 C.ar   92  TYR92      -0.0201
     77  CD1      -40.5510   -4.1840  -10.9370 C.ar   92  TYR92      -0.0009
     78  CD2      -41.8290   -3.0740  -12.6360 C.ar   92  TYR92      -0.0009
     79  CE1      -39.6020   -3.2110  -10.9910 C.ar   92  TYR92       0.0417
     80  CE2      -40.8660   -2.0830  -12.7120 C.ar   92  TYR92       0.0417
     81  CZ       -39.7490   -2.1630  -11.8780 C.ar   92  TYR92       0.1957
     82  OH       -38.7620   -1.2080  -11.9160 O.3    92  TYR92      -0.2866
     83  N        -40.3520    1.9740   -6.6940 N.3    97  ARG97      -0.1245
     84  CA       -38.9130    1.6960   -6.7160 C.3    97  ARG97       0.1563
     85  C        -38.0730    2.9110   -6.2680 C.2    97  ARG97       0.2260
     86  O        -38.5090    4.0470   -6.4180 O.2    97  ARG97      -0.2867
     87  CB       -38.5080    1.2490   -8.1220 C.3    97  ARG97       0.0307
     88  CG       -39.2540    0.0050   -8.6440 C.3    97  ARG97       0.0489
     89  CD       -38.8800   -1.2660   -7.8580 C.3    97  ARG97       0.2205
     90  NE       -37.5360   -1.7520   -8.1880 N.pl3  97  ARG97      -0.0865
     91  CZ       -36.7230   -2.3620   -7.3260 C.cat  97  ARG97       0.5346
     92  NH1      -37.1080   -2.5550   -6.0730 N.pl3  97  ARG97       0.1354
     93  NH2      -35.5160   -2.7680   -7.7060 N.pl3  97  ARG97       0.1354
     94  N        -35.4570    4.4940   -7.4870 N.3    99  TRP99      -0.1241
     95  CA       -35.1030    5.4900   -8.5100 C.3    99  TRP99       0.1605
     96  C        -36.2740    6.4120   -8.7800 C.2    99  TRP99       0.2264
     97  O        -36.0900    7.6000   -9.0350 O.2    99  TRP99      -0.2867
     98  CB       -34.6470    4.8210   -9.8120 C.3    99  TRP99       0.0550
     99  CG       -35.5660    3.7360  -10.3520 C.ar   99  TRP99       0.0003
    100  CD1      -35.5400    2.3920  -10.0390 C.ar   99  TRP99       0.0946
    101  CD2      -36.5980    3.8910  -11.3320 C.ar   99  TRP99       0.0152
    102  NE1      -36.5080    1.7120  -10.7550 N.ar   99  TRP99      -0.2442
    103  CE2      -37.1690    2.6130  -11.5540 C.ar   99  TRP99       0.0810
    104  CE3      -37.1030    4.9910  -12.0390 C.ar   99  TRP99       0.0012
    105  CZ2      -38.2200    2.4120  -12.4450 C.ar   99  TRP99       0.0191
    106  CZ3      -38.1480    4.7790  -12.9480 C.ar   99  TRP99       0.0001
    107  CH2      -38.6910    3.5040  -13.1370 C.ar   99  TRP99       0.0015
    108  N        -29.1270   -0.0790   -4.5450 N.3   115  TYR115     -0.1241
    109  CA       -30.3240   -0.7990   -4.1020 C.3   115  TYR115      0.1605
    110  C        -30.3640   -2.1260   -4.8690 C.2   115  TYR115      0.2264
    111  O        -29.6630   -2.2780   -5.8740 O.2   115  TYR115     -0.2867
    112  CB       -31.5970    0.0170   -4.3530 C.3   115  TYR115      0.0534
    113  CG       -31.8720    0.2370   -5.8410 C.ar  115  TYR115     -0.0201
    114  CD1      -31.3170    1.3230   -6.5210 C.ar  115  TYR115     -0.0009
    115  CD2      -32.6600   -0.6700   -6.5680 C.ar  115  TYR115     -0.0009
    116  CE1      -31.5540    1.5200   -7.8980 C.ar  115  TYR115      0.0417
    117  CE2      -32.8980   -0.4960   -7.9070 C.ar  115  TYR115      0.0417
    118  CZ       -32.3500    0.5980   -8.5780 C.ar  115  TYR115      0.1957
    119  OH       -32.5940    0.7400   -9.9250 O.3   115  TYR115     -0.2866
    120  N        -31.2340   -4.7820   -7.4210 N.3   117  ASP117     -0.1225
    121  CA       -31.8500   -4.8220   -8.7530 C.3   117  ASP117      0.1805
    122  C        -32.9970   -5.8540   -8.8540 C.2   117  ASP117      0.2598
    123  O        -32.9370   -6.9250   -8.2650 O.2   117  ASP117     -0.2718
    124  CB       -30.7920   -5.1090   -9.8180 C.3   117  ASP117      0.1424
    125  CG       -31.3500   -5.0110  -11.2320 C.2   117  ASP117      0.3668
    126  OD1      -31.4970   -3.8810  -11.7490 O.co2 117  ASP117     -0.2456
    127  OD2      -31.6720   -6.0620  -11.8180 O.co2 117  ASP117     -0.2456
    128  N        -34.0460   -5.4990   -9.5970 N.am  118  ALA118     -0.1966
    129  CA       -35.2460   -6.3350   -9.7620 C.3   118  ALA118      0.1728
    130  C        -35.0000   -7.7020  -10.4210 C.2   118  ALA118      0.2616
    131  O        -35.7580   -8.6420  -10.1890 O.2   118  ALA118     -0.2715
    132  CB       -36.2940   -5.5660  -10.5690 C.3   118  ALA118      0.0334
    133  N        -33.9560   -7.7980  -11.2460 N.am  119  ALA119     -0.1977
    134  CA       -33.6540   -9.0190  -11.9850 C.3   119  ALA119      0.1597
    135  C        -32.4200   -9.7170  -11.4420 C.2   119  ALA119      0.2287
    136  O        -32.4600  -10.9200  -11.1800 O.2   119  ALA119     -0.2864
    137  CB       -33.4660   -8.7210  -13.4800 C.3   119  ALA119      0.0319
    138  N        -27.2500   -2.1480   -7.5550 N.3   124  ILE124     -0.1245
    139  CA       -27.1690   -1.3330   -8.7680 C.3   124  ILE124      0.1561
    140  C        -27.3210    0.1470   -8.3810 C.2   124  ILE124      0.2260
    141  O        -27.9220    0.4730   -7.3470 O.2   124  ILE124     -0.2867
    142  CB       -28.2610   -1.7660   -9.8030 C.3   124  ILE124      0.0252
    143  CG1      -27.9680   -1.2270  -11.1960 C.3   124  ILE124      0.0019
    144  CG2      -29.6540   -1.3820   -9.3440 C.3   124  ILE124      0.0019
    145  CD1      -26.8410   -2.0040  -11.9030 C.3   124  ILE124      0.0001
    146  N        -29.3000    2.7010  -15.6050 N.3   144  ASP144     -0.1239
    147  CA       -28.6130    1.8730  -14.6010 C.3   144  ASP144      0.1674
    148  C        -27.1040    1.8520  -14.7880 C.2   144  ASP144      0.2266
    149  O        -26.5930    1.7290  -15.9220 O.2   144  ASP144     -0.2867
    150  CB       -29.1300    0.4320  -14.6270 C.3   144  ASP144      0.1410
    151  CG       -30.5080    0.2820  -13.9980 C.2   144  ASP144      0.3668
    152  OD1      -31.0170    1.2560  -13.3750 O.co2 144  ASP144     -0.2456
    153  OD2      -31.0860   -0.8220  -14.1390 O.co2 144  ASP144     -0.2456
@<TRIPOS>BOND
     1    38    37    2
     2    37    36    1
     3    35    36    1
     4    36    39    1
     5    43    44    1
     6    44    45    1
     7    44    47    1
     8    39    40    1
     9    27    26    2
    10    46    45    2
    11    40    41    1
    12    45    49   am
    13     9     7   ar
    14     9    11   ar
    15    12    13    1
    16     7     6   ar
    17    13    14    1
    18    13    16    1
    19     2     3    1
    20     2     1    1
    21     2     5    1
    22    26    25    1
    23     3     4    2
    24    55    49    1
    25    55    54    1
    26    49    50    1
    27    14    15    2
    28    47    48    1
    29    54    53    1
    30    11    10   ar
    31     6     5    1
    32     6     8   ar
    33    16    17    1
    34    50    53    1
    35    50    51    1
    36    42    41    1
    37    25    24    1
    38    25    28    1
    39    61    62    1
    40    61    60    1
    41    10     8   ar
    42    51    56   am
    43    51    52    2
    44    17    19   ar
    45    17    18   ar
    46    19    21   ar
    47    56    57    1
    48    62    63    1
    49    31    33   ar
    50    31    29   ar
    51    28    29    1
    52    33    34   ar
    53    60    57    1
    54    29    30   ar
    55    34    32   ar
    56   149   148    2
    57    30    32   ar
    58    18    20   ar
    59    57    58    1
    60   146   147    1
    61    21    22   ar
    62   148   147    1
    63   150   147    1
    64   150   151    1
    65    59    58    2
    66    20    22   ar
    67    58    64   am
    68    22    23    1
    69   153   151   ar
    70   151   152   ar
    71   137   134    1
    72    64    70    1
    73    64    65    1
    74   107   106   ar
    75   107   105   ar
    76   106   104   ar
    77    70    69    1
    78    80    78   ar
    79    80    81   ar
    80    78    76   ar
    81   105   103   ar
    82    67    66    2
    83   104   101   ar
    84   134   135    1
    85   134   133    1
    86    65    66    1
    87    65    68    1
    88    82    81    1
    89   145   143    1
    90    81    79   ar
    91   127   125   ar
    92   126   125   ar
    93    76    75    1
    94    76    77   ar
    95    75    72    1
    96   103   101   ar
    97   103   102   ar
    98   135   136    2
    99    69    68    1
   100   101    99   ar
   101    74    73    2
   102   133   130   am
   103   125   124    1
   104   143   142    1
   105    79    77   ar
   106   102   100   ar
   107    73    72    1
   108   132   129    1
   109    72    71    1
   110   130   131    2
   111   130   129    1
   112    99   100   ar
   113    99    98    1
   114   119   118    1
   115   124   121    1
   116    98    95    1
   117   142   144    1
   118   142   139    1
   119   129   128    1
   120   128   122   am
   121    97    96    2
   122   122   121    1
   123   122   123    2
   124    96    95    1
   125   139   140    1
   126   139   138    1
   127   121   120    1
   128    88    87    1
   129    88    89    1
   130   118   117   ar
   131   118   116   ar
   132    95    94    1
   133   140   141    2
   134    90    89    1
   135    90    91    2
   136    87    84    1
   137   117   115   ar
   138   116   114   ar
   139    93    91    1
   140    91    92    1
   141    84    83    1
   142    84    85    1
   143   115   113   ar
   144   114   113   ar
   145    86    85    2
   146   111   110    2
   147   113   112    1
   148   110   109    1
   149   108   109    1
   150   112   109    1
