@<TRIPOS>MOLECULE
tmp/5t7oC02.pdb
 122 119 0 0 0
SMALL
GASTEIGER

@<TRIPOS>ATOM
      1  N         29.8420   66.2380   70.5540 N.3   316  TYR316     -0.1241
      2  CA        29.4480   64.8220   70.6330 C.3   316  TYR316      0.1605
      3  C         28.7800   64.5560   71.9480 C.2   316  TYR316      0.2264
      4  O         27.8060   65.0730   72.2920 O.2   316  TYR316     -0.2867
      5  CB        30.5430   63.7060   70.4690 C.3   316  TYR316      0.0534
      6  CG        30.8020   63.7490   68.6910 C.ar  316  TYR316     -0.0201
      7  CD1       29.9630   63.1740   67.7580 C.ar  316  TYR316     -0.0009
      8  CD2       31.9990   64.2570   68.2440 C.ar  316  TYR316     -0.0009
      9  CE1       30.3280   63.1080   66.4350 C.ar  316  TYR316      0.0417
     10  CE2       32.3480   64.2090   66.9330 C.ar  316  TYR316      0.0417
     11  CZ        31.4960   63.6310   66.0280 C.ar  316  TYR316      0.1957
     12  OH        31.8140   63.5780   64.7320 O.3   316  TYR316     -0.2866
     13  N         34.9800   71.1200   66.2490 N.3   373  LEU373     -0.1231
     14  CA        34.3490   70.7290   64.9410 C.3   373  LEU373      0.1678
     15  C         32.8660   70.3710   65.2180 C.2   373  LEU373      0.2434
     16  O         32.5740   69.7460   66.1850 O.2   373  LEU373     -0.2733
     17  CB        35.0340   69.3760   64.5150 C.3   373  LEU373      0.0284
     18  CG        36.5000   69.1850   64.1530 C.3   373  LEU373      0.0019
     19  CD1       36.9010   67.7250   63.9210 C.3   373  LEU373      0.0001
     20  CD2       36.7630   70.0460   62.9150 C.3   373  LEU373      0.0001
     21  N         32.0080   70.5360   64.1900 N.am  374  PRO374     -0.2729
     22  CA        30.6220   70.0360   64.1750 C.3   374  PRO374      0.1401
     23  C         30.6300   68.5460   63.9760 C.2   374  PRO374      0.2269
     24  O         31.5440   68.0150   63.2760 O.2   374  PRO374     -0.2865
     25  CB        29.9560   70.7660   62.9920 C.3   374  PRO374      0.0296
     26  CG        31.1220   71.3130   62.1850 C.3   374  PRO374      0.0237
     27  CD        32.2750   71.5280   63.1230 C.3   374  PRO374      0.0939
     28  N         30.1140   64.7550   62.8640 N.3   376  CYS376     -0.1221
     29  CA        29.9640   64.1740   61.5870 C.3   376  CYS376      0.1808
     30  C         28.8670   63.0900   61.5980 C.2   376  CYS376      0.2601
     31  O         27.8900   63.1330   60.8060 O.2   376  CYS376     -0.2717
     32  CB        31.3210   63.6510   61.2130 C.3   376  CYS376      0.0970
     33  SG        31.2860   63.0580   59.5640 S.3   376  CYS376     -0.0800
     34  N         29.0390   62.1210   62.4850 N.am  377  HIS377     -0.1975
     35  CA        27.9530   61.1670   62.7630 C.3   377  HIS377      0.1656
     36  C         27.0430   61.9460   63.7440 C.2   377  HIS377      0.2291
     37  O         27.4450   62.2740   64.8830 O.2   377  HIS377     -0.2864
     38  CB        28.4840   59.8640   63.3500 C.3   377  HIS377      0.0771
     39  CG        29.4230   59.9820   64.5750 C.ar  377  HIS377      0.0820
     40  ND1       30.7970   60.1020   64.4920 N.ar  377  HIS377     -0.2267
     41  CD2       29.1390   59.8930   65.8890 C.ar  377  HIS377      0.1154
     42  CE1       31.3370   60.0500   65.7110 C.ar  377  HIS377      0.1986
     43  NE2       30.3380   59.8820   66.5770 N.ar  377  HIS377     -0.2212
     44  N         25.2290   60.1100   58.8850 N.3   395  GLN395     -0.1231
     45  CA        26.5680   60.7230   58.8500 C.3   395  GLN395      0.1698
     46  C         26.6520   61.7290   57.6850 C.2   395  GLN395      0.2592
     47  O         26.5100   61.3240   56.5030 O.2   395  GLN395     -0.2718
     48  CB        27.6330   59.5880   58.7220 C.3   395  GLN395      0.0381
     49  CG        29.0440   60.1200   58.9910 C.3   395  GLN395      0.0905
     50  CD        30.0830   59.0040   59.0560 C.2   395  GLN395      0.2608
     51  OE1       29.7870   57.8530   59.1130 O.2   395  GLN395     -0.2717
     52  NE2       31.2970   59.4060   59.0600 N.am  395  GLN395     -0.0878
     53  N         26.8420   63.0330   57.9980 N.am  396  ARG396     -0.1966
     54  CA        26.8960   64.0270   56.9290 C.3   396  ARG396      0.1729
     55  C         28.1130   63.9110   56.0040 C.2   396  ARG396      0.2616
     56  O         27.9830   64.3040   54.8440 O.2   396  ARG396     -0.2715
     57  CB        26.8400   65.4480   57.5020 C.3   396  ARG396      0.0348
     58  CG        28.0530   65.7790   58.4110 C.3   396  ARG396      0.0492
     59  CD        27.9630   67.2450   58.8670 C.3   396  ARG396      0.2205
     60  NE        29.1680   67.4350   59.7460 N.pl3 396  ARG396     -0.0865
     61  CZ        30.4130   67.6850   59.2760 C.cat 396  ARG396      0.5346
     62  NH1       30.6560   67.8990   57.9640 N.pl3 396  ARG396      0.1354
     63  NH2       31.4280   67.8380   60.1660 N.pl3 396  ARG396      0.1354
     64  N         29.2770   63.4300   56.4970 N.am  397  SER397     -0.1950
     65  CA        30.5260   63.5520   55.7090 C.3   397  SER397      0.1924
     66  C         31.2780   62.2800   56.0270 C.2   397  SER397      0.2314
     67  O         31.5030   61.9670   57.2020 O.2   397  SER397     -0.2863
     68  CB        31.3000   64.7590   56.2210 C.3   397  SER397      0.2116
     69  OG        32.5330   64.8160   55.4910 O.3   397  SER397     -0.2180
     70  N         34.3390   59.7510   55.1280 N.3   399  ASP399     -0.1239
     71  CA        35.6100   59.3690   54.4950 C.3   399  ASP399      0.1674
     72  C         35.6290   57.8880   54.4220 C.2   399  ASP399      0.2266
     73  O         35.7550   57.1890   55.4530 O.2   399  ASP399     -0.2867
     74  CB        36.8110   59.8830   55.3540 C.3   399  ASP399      0.1410
     75  CG        38.1130   59.1260   55.0080 C.2   399  ASP399      0.3668
     76  OD1       38.3150   58.8170   53.8110 O.co2 399  ASP399     -0.2456
     77  OD2       38.8250   58.7020   55.9350 O.co2 399  ASP399     -0.2456
     78  N         37.4060   56.8670   58.0740 N.3   403  GLY403     -0.1225
     79  CA        36.3040   57.2200   58.9240 C.3   403  GLY403      0.1811
     80  C         35.1780   56.1820   58.9680 C.2   403  GLY403      0.2280
     81  O         34.7230   55.8120   60.0440 O.2   403  GLY403     -0.2866
     82  N         35.4400   52.8620   60.8740 N.3   406  PHE406     -0.1227
     83  CA        35.5720   53.1520   62.2890 C.3   406  PHE406      0.1736
     84  C         34.1700   53.4620   62.8280 C.2   406  PHE406      0.2595
     85  O         33.8100   52.9890   63.8830 O.2   406  PHE406     -0.2718
     86  CB        36.4890   54.4080   62.3660 C.3   406  PHE406      0.0547
     87  CG        37.0240   54.7330   63.7870 C.ar  406  PHE406     -0.0202
     88  CD1       36.2360   55.5230   64.6730 C.ar  406  PHE406     -0.0042
     89  CD2       38.2800   54.2720   64.2030 C.ar  406  PHE406     -0.0042
     90  CE1       36.6810   55.8240   65.9720 C.ar  406  PHE406     -0.0003
     91  CE2       38.7440   54.6320   65.5210 C.ar  406  PHE406     -0.0003
     92  CZ        37.9120   55.3810   66.3770 C.ar  406  PHE406     -0.0000
     93  N         33.4330   54.2890   62.0320 N.am  407  ASN407     -0.1974
     94  CA        32.0900   54.7090   62.3600 C.3   407  ASN407      0.1688
     95  C         31.0980   53.5010   62.4410 C.2   407  ASN407      0.2292
     96  O         30.2610   53.4300   63.3600 O.2   407  ASN407     -0.2864
     97  CB        31.5700   55.7490   61.3300 C.3   407  ASN407      0.1181
     98  CG        32.2170   57.1420   61.4610 C.2   407  ASN407      0.2629
     99  OD1       32.0550   57.8330   62.4550 O.2   407  ASN407     -0.2716
    100  ND2       32.8760   57.5740   60.4140 N.am  407  ASN407     -0.0877
    101  N         33.0170   60.0790   50.4030 N.3   437  HIS437     -0.1241
    102  CA        34.1960   60.4960   49.5910 C.3   437  HIS437      0.1621
    103  C         35.4270   59.6350   49.8500 C.2   437  HIS437      0.2264
    104  O         35.5880   58.9720   50.9080 O.2   437  HIS437     -0.2867
    105  CB        34.4440   62.0130   49.7590 C.3   437  HIS437      0.0745
    106  CG        34.5870   62.4350   51.1990 C.ar  437  HIS437      0.0817
    107  ND1       33.5900   63.0980   51.8940 N.ar  437  HIS437     -0.2268
    108  CD2       35.6060   62.2530   52.0850 C.ar  437  HIS437      0.1154
    109  CE1       33.9960   63.3310   53.1350 C.ar  437  HIS437      0.1986
    110  NE2       35.1980   62.8000   53.2860 N.ar  437  HIS437     -0.2212
    111  N         39.6220   60.3060   49.5400 N.3   439  TYR439     -0.1241
    112  CA        40.6660   61.3460   49.2490 C.3   439  TYR439      0.1605
    113  C         41.4470   60.9240   47.9520 C.2   439  TYR439      0.2264
    114  O         41.7340   59.7490   47.7150 O.2   439  TYR439     -0.2867
    115  CB        41.5130   61.5810   50.5420 C.3   439  TYR439      0.0534
    116  CG        40.7780   62.4210   51.5280 C.ar  439  TYR439     -0.0201
    117  CD1       40.8360   63.8160   51.4290 C.ar  439  TYR439     -0.0009
    118  CD2       40.0080   61.8450   52.5900 C.ar  439  TYR439     -0.0009
    119  CE1       40.1090   64.6610   52.2940 C.ar  439  TYR439      0.0417
    120  CE2       39.3120   62.6760   53.4870 C.ar  439  TYR439      0.0417
    121  CZ        39.3740   64.0960   53.3220 C.ar  439  TYR439      0.1957
    122  OH        38.6690   64.9650   54.1560 O.3   439  TYR439     -0.2866
@<TRIPOS>BOND
     1   114   113    2
     2   113   112    1
     3   112   111    1
     4   112   115    1
     5   102   105    1
     6   102   103    1
     7   102   101    1
     8   105   106    1
     9   103   104    2
    10   115   116    1
    11   106   107   ar
    12   106   108   ar
    13   117   116   ar
    14   117   119   ar
    15   116   118   ar
    16   107   109   ar
    17   108   110   ar
    18   119   121   ar
    19   118   120   ar
    20   109   110   ar
    21   121   120   ar
    22   121   122    1
    23    76    75   ar
    24    72    71    1
    25    72    73    2
    26    71    70    1
    27    71    74    1
    28    56    55    2
    29    75    74    1
    30    75    77   ar
    31    69    68    1
    32    65    66    1
    33    65    68    1
    34    65    64    1
    35    55    64   am
    36    55    54    1
    37    66    67    2
    38    47    46    2
    39    54    57    1
    40    54    53    1
    41    57    58    1
    42    46    53   am
    43    46    45    1
    44    62    61    1
    45    78    79    1
    46    58    59    1
    47    48    45    1
    48    48    49    1
    49    45    44    1
    50    59    60    1
    51    79    80    1
    52    80    81    2
    53    49    50    1
    54    50    52   am
    55    50    51    2
    56    61    60    2
    57    61    63    1
    58    33    32    1
    59   100    98   am
    60    31    30    2
    61    82    83    1
    62    32    29    1
    63    97    98    1
    64    97    94    1
    65    98    99    2
    66    29    30    1
    67    29    28    1
    68    30    34   am
    69    93    94    1
    70    93    84   am
    71    26    25    1
    72    26    27    1
    73    83    86    1
    74    83    84    1
    75    94    95    1
    76    86    87    1
    77    95    96    2
    78    34    35    1
    79    35    38    1
    80    35    36    1
    81    84    85    2
    82    20    18    1
    83    25    22    1
    84    27    21    1
    85    24    23    2
    86    38    39    1
    87    36    37    2
    88    87    89   ar
    89    87    88   ar
    90    19    18    1
    91    23    22    1
    92    18    17    1
    93    22    21    1
    94    21    15   am
    95    89    91   ar
    96    40    39   ar
    97    40    42   ar
    98    17    14    1
    99    39    41   ar
   100    88    90   ar
   101    12    11    1
   102    14    15    1
   103    14    13    1
   104    15    16    2
   105    91    92   ar
   106    42    43   ar
   107    41    43   ar
   108    90    92   ar
   109    11     9   ar
   110    11    10   ar
   111     9     7   ar
   112    10     8   ar
   113     7     6   ar
   114     8     6   ar
   115     6     5    1
   116     5     2    1
   117     1     2    1
   118     2     3    1
   119     3     4    2
