@<TRIPOS>MOLECULE
tmp/5t7pA00.pdb
 96 93 0 0 0
SMALL
GASTEIGER

@<TRIPOS>ATOM
      1  N          5.3810  -13.7630   -5.0410 N.3    39  ASN39      -0.1240
      2  CA         4.9560  -14.4650   -3.8290 C.3    39  ASN39       0.1653
      3  C          6.0550  -14.5290   -2.7750 C.2    39  ASN39       0.2266
      4  O          6.3280  -15.5780   -2.1950 O.2    39  ASN39      -0.2867
      5  CB         4.4660  -15.8740   -4.1640 C.3    39  ASN39       0.1155
      6  CG         3.2230  -15.8540   -5.0110 C.2    39  ASN39       0.2627
      7  OD1        2.2460  -15.1830   -4.6720 O.2    39  ASN39      -0.2716
      8  ND2        3.2560  -16.5520   -6.1340 N.am   39  ASN39      -0.0877
      9  N          2.8370   -4.8640   -7.5790 N.3    80  ALA80      -0.1231
     10  CA         2.4340   -5.4320   -6.3010 C.3    80  ALA80       0.1694
     11  C          3.6410   -5.8410   -5.4330 C.2    80  ALA80       0.2592
     12  O          4.7020   -6.1060   -5.9340 O.2    80  ALA80      -0.2718
     13  CB         1.4500   -6.5730   -6.4510 C.3    80  ALA80       0.0304
     14  N          3.4410   -5.9010   -4.1450 N.am   81  ASP81      -0.1974
     15  CA         2.2210   -5.5580   -3.4860 C.3    81  ASP81       0.1709
     16  C          2.4060   -4.2780   -2.7100 C.2    81  ASP81       0.2293
     17  O          1.4780   -3.6650   -2.3390 O.2    81  ASP81      -0.2864
     18  CB         1.7990   -6.6060   -2.4950 C.3    81  ASP81       0.1436
     19  CG         0.9840   -7.6640   -3.1050 C.2    81  ASP81       0.3671
     20  OD1       -0.1560   -7.4280   -3.2730 O.co2  81  ASP81      -0.2456
     21  OD2        1.4960   -8.7250   -3.4210 O.co2  81  ASP81      -0.2456
     22  N          1.4250  -13.0140    3.4620 N.3    97  GLY97      -0.1210
     23  CA         2.0740  -12.4360    2.3000 C.3    97  GLY97       0.1956
     24  C          1.1080  -11.7190    1.3730 C.2    97  GLY97       0.2612
     25  O         -0.0330  -11.4030    1.7340 O.2    97  GLY97      -0.2717
     26  N          1.5870  -11.4520    0.1580 N.am   98  GLY98      -0.1942
     27  CA         0.7300  -10.8490   -0.8510 C.3    98  GLY98       0.2014
     28  C          0.1820   -9.5190   -0.3660 C.2    98  GLY98       0.2639
     29  O          0.9010   -8.7030    0.2210 O.2    98  GLY98      -0.2714
     30  N         -1.1140   -9.3030   -0.5920 N.am   99  GLY99      -0.1939
     31  CA        -1.7480   -8.0500   -0.2080 C.3    99  GLY99       0.2014
     32  C         -1.7330   -7.7640    1.2870 C.2    99  GLY99       0.2638
     33  O         -2.0610   -6.6390    1.6890 O.2    99  GLY99      -0.2714
     34  N         -1.3610   -8.7370    2.1130 N.am  100  TYR100     -0.1973
     35  CA        -1.2640   -8.5120    3.5490 C.3   100  TYR100      0.1639
     36  C          0.0600   -7.8930    3.9670 C.2   100  TYR100      0.2290
     37  O          0.2250   -7.5710    5.1500 O.2   100  TYR100     -0.2864
     38  CB        -1.4950   -9.8290    4.3030 C.3   100  TYR100      0.0560
     39  CG        -2.9300  -10.2870    4.2230 C.ar  100  TYR100     -0.0198
     40  CD1       -3.3650  -11.0950    3.1720 C.ar  100  TYR100     -0.0009
     41  CD2       -3.8670   -9.8660    5.1750 C.ar  100  TYR100     -0.0009
     42  CE1       -4.6920  -11.5020    3.0800 C.ar  100  TYR100      0.0417
     43  CE2       -5.1840  -10.2590    5.0980 C.ar  100  TYR100      0.0417
     44  CZ        -5.5930  -11.0770    4.0500 C.ar  100  TYR100      0.1957
     45  OH        -6.9010  -11.4690    3.9720 O.3   100  TYR100     -0.2866
     46  N         -1.1170   -2.3640   -5.0270 N.3   123  PHE123     -0.1241
     47  CA        -2.0190   -3.3200   -5.6600 C.3   123  PHE123      0.1605
     48  C         -3.3890   -3.3120   -4.9910 C.2   123  PHE123      0.2264
     49  O         -3.4970   -3.4910   -3.7750 O.2   123  PHE123     -0.2867
     50  CB        -1.4470   -4.7390   -5.6140 C.3   123  PHE123      0.0534
     51  CG        -2.2830   -5.7450   -6.3580 C.ar  123  PHE123     -0.0203
     52  CD1       -2.1080   -5.9410   -7.7290 C.ar  123  PHE123     -0.0042
     53  CD2       -3.2580   -6.4910   -5.6960 C.ar  123  PHE123     -0.0042
     54  CE1       -2.8910   -6.8740   -8.4200 C.ar  123  PHE123     -0.0003
     55  CE2       -4.0490   -7.4210   -6.3870 C.ar  123  PHE123     -0.0003
     56  CZ        -3.8650   -7.6110   -7.7380 C.ar  123  PHE123     -0.0000
     57  N         -6.4030   -4.7290   -3.6180 N.3   125  ASN125     -0.1240
     58  CA        -7.0570   -5.9380   -3.1270 C.3   125  ASN125      0.1653
     59  C         -8.5190   -5.6000   -2.8860 C.2   125  ASN125      0.2266
     60  O         -8.8390   -4.8080   -1.9920 O.2   125  ASN125     -0.2867
     61  CB        -6.3790   -6.4640   -1.8670 C.3   125  ASN125      0.1155
     62  CG        -4.9440   -6.8630   -2.1210 C.2   125  ASN125      0.2627
     63  OD1       -4.0320   -6.0630   -1.9310 O.2   125  ASN125     -0.2716
     64  ND2       -4.7380   -8.0900   -2.6060 N.am  125  ASN125     -0.0877
     65  N        -10.5620   -5.2170    0.6090 N.3   128  TRP128     -0.1241
     66  CA       -10.3920   -4.1880    1.6350 C.3   128  TRP128      0.1605
     67  C         -9.8820   -2.8410    1.1520 C.2   128  TRP128      0.2264
     68  O        -10.0450   -1.8490    1.8670 O.2   128  TRP128     -0.2867
     69  CB        -9.4390   -4.6660    2.7220 C.3   128  TRP128      0.0550
     70  CG        -8.0860   -5.0940    2.2070 C.ar  128  TRP128      0.0003
     71  CD1       -7.0580   -4.2870    1.8490 C.ar  128  TRP128      0.0946
     72  CD2       -7.6260   -6.4420    2.0150 C.ar  128  TRP128      0.0152
     73  NE1       -5.9820   -5.0400    1.4430 N.ar  128  TRP128     -0.2442
     74  CE2       -6.3040   -6.3670    1.5390 C.ar  128  TRP128      0.0810
     75  CE3       -8.2050   -7.7030    2.2030 C.ar  128  TRP128      0.0012
     76  CZ2       -5.5470   -7.5050    1.2390 C.ar  128  TRP128      0.0191
     77  CZ3       -7.4470   -8.8410    1.9000 C.ar  128  TRP128      0.0001
     78  CH2       -6.1360   -8.7290    1.4350 C.ar  128  TRP128      0.0015
     79  N          3.0610  -10.8330   -4.7570 N.3   209  GLY209     -0.1210
     80  CA         2.1390  -11.9480   -4.8110 C.3   209  GLY209      0.1956
     81  C          2.1170  -12.5590   -6.1930 C.2   209  GLY209      0.2612
     82  O          3.1560  -13.0150   -6.6780 O.2   209  GLY209     -0.2717
     83  N          0.9470  -12.5750   -6.8410 N.am  210  ALA210     -0.1965
     84  CA         0.9040  -12.9570   -8.2490 C.3   210  ALA210      0.1728
     85  C          1.5200  -11.8880   -9.1440 C.2   210  ALA210      0.2616
     86  O          1.9760  -12.2010  -10.2510 O.2   210  ALA210     -0.2715
     87  CB        -0.5300  -13.2450   -8.6840 C.3   210  ALA210      0.0334
     88  N          1.5430  -10.6410   -8.6860 N.am  211  GLU211     -0.1977
     89  CA         2.3020   -9.5730   -9.3130 C.3   211  GLU211      0.1602
     90  C          3.4320   -9.1820   -8.3740 C.2   211  GLU211      0.2287
     91  O          3.4690   -9.5990   -7.2180 O.2   211  GLU211     -0.2864
     92  CB         1.3900   -8.3940   -9.6660 C.3   211  GLU211      0.0415
     93  CG         0.2960   -8.8120  -10.6500 C.3   211  GLU211      0.1163
     94  CD        -0.6070   -7.6700  -11.0780 C.2   211  GLU211      0.3649
     95  OE1       -0.2960   -6.4970  -10.7870 O.co2 211  GLU211     -0.2457
     96  OE2       -1.6420   -7.9500  -11.7080 O.co2 211  GLU211     -0.2457
@<TRIPOS>BOND
     1    96    94   ar
     2    94    95   ar
     3    94    93    1
     4    93    92    1
     5    86    85    2
     6    92    89    1
     7    89    88    1
     8    89    90    1
     9    85    88   am
    10    85    84    1
    11    87    84    1
    12    54    56   ar
    13    54    52   ar
    14    90    91    2
    15    84    83    1
    16    56    55   ar
    17    52    51   ar
    18     9    10    1
    19    83    81   am
    20    82    81    2
    21    13    10    1
    22    55    53   ar
    23    51    53   ar
    24    51    50    1
    25    10    11    1
    26    81    80    1
    27     8     6   am
    28    12    11    2
    29    47    50    1
    30    47    46    1
    31    47    48    1
    32    11    14   am
    33     1     2    1
    34     6     7    2
    35     6     5    1
    36    48    49    2
    37    80    79    1
    38     5     2    1
    39    14    15    1
    40     2     3    1
    41    57    58    1
    42    15    16    1
    43    15    18    1
    44    21    19   ar
    45    20    19   ar
    46    58    59    1
    47    58    61    1
    48    19    18    1
    49    59    60    2
    50     3     4    2
    51    16    17    2
    52    64    62   am
    53    62    63    2
    54    62    61    1
    55    27    28    1
    56    27    26    1
    57    30    28   am
    58    30    31    1
    59    28    29    2
    60    31    32    1
    61    26    24   am
    62    65    66    1
    63    67    66    1
    64    67    68    2
    65    76    78   ar
    66    76    74   ar
    67    32    33    2
    68    32    34   am
    69    24    25    2
    70    24    23    1
    71    78    77   ar
    72    73    74   ar
    73    73    71   ar
    74    74    72   ar
    75    66    69    1
    76    71    70   ar
    77    77    75   ar
    78    72    75   ar
    79    72    70   ar
    80    34    35    1
    81    70    69    1
    82    23    22    1
    83    42    40   ar
    84    42    44   ar
    85    40    39   ar
    86    35    36    1
    87    35    38    1
    88    36    37    2
    89    45    44    1
    90    44    43   ar
    91    39    38    1
    92    39    41   ar
    93    43    41   ar
