@<TRIPOS>MOLECULE
tmp/5t85C00.pdb
 81 76 0 0 0
SMALL
GASTEIGER

@<TRIPOS>ATOM
      1  N        -29.7420   -8.0450   13.2000 N.3    41  PHE41      -0.1241
      2  CA       -28.6970   -7.2700   12.5430 C.3    41  PHE41       0.1605
      3  C        -29.1550   -5.9190   12.0130 C.2    41  PHE41       0.2264
      4  O        -28.4490   -4.9130   12.1470 O.2    41  PHE41      -0.2867
      5  CB       -28.1420   -8.0990   11.3940 C.3    41  PHE41       0.0534
      6  CG       -26.9870   -7.4790   10.6910 C.ar   41  PHE41      -0.0203
      7  CD1      -25.7560   -7.3910   11.3030 C.ar   41  PHE41      -0.0042
      8  CD2      -27.1210   -7.0330    9.3860 C.ar   41  PHE41      -0.0042
      9  CE1      -24.6870   -6.8520   10.6350 C.ar   41  PHE41      -0.0003
     10  CE2      -26.0440   -6.4840    8.7210 C.ar   41  PHE41      -0.0003
     11  CZ       -24.8270   -6.4010    9.3470 C.ar   41  PHE41      -0.0000
     12  N        -23.6000   -0.2700    7.8690 N.3    67  HIS67      -0.1226
     13  CA       -22.9930   -1.3730    8.5850 C.3    67  HIS67       0.1752
     14  C        -23.2380   -1.1810   10.0710 C.2    67  HIS67       0.2597
     15  O        -23.9080   -0.2290   10.4820 O.2    67  HIS67      -0.2718
     16  CB       -21.4940   -1.4470    8.2950 C.3    67  HIS67       0.0759
     17  CG       -20.7340   -0.2500    8.7730 C.ar   67  HIS67       0.0818
     18  ND1      -20.4490    0.8260    7.9580 N.ar   67  HIS67      -0.2268
     19  CD2      -20.2160    0.0520    9.9870 C.ar   67  HIS67       0.1154
     20  CE1      -19.7790    1.7320    8.6450 C.ar   67  HIS67       0.1986
     21  NE2      -19.6180    1.2820    9.8790 N.ar   67  HIS67      -0.2212
     22  N        -22.6990   -2.0870   10.8740 N.am   68  THR68      -0.1939
     23  CA       -22.7560   -1.9460   12.3130 C.3    68  THR68       0.2028
     24  C        -21.4830   -2.5490   12.8810 C.2    68  THR68       0.2642
     25  O        -20.4890   -2.6980   12.1660 O.2    68  THR68      -0.2714
     26  CB       -24.0200   -2.6130   12.9040 C.3    68  THR68       0.1808
     27  OG1      -24.0080   -2.4910   14.3260 O.3    68  THR68      -0.2208
     28  CG2      -24.0980   -4.0980   12.5340 C.3    68  THR68       0.0379
     29  N        -21.4990   -2.8930   14.1600 N.am   69  ASP69      -0.1957
     30  CA       -20.3100   -3.4340   14.8150 C.3    69  ASP69       0.1840
     31  C        -19.9610   -4.8660   14.3540 C.2    69  ASP69       0.2622
     32  O        -20.8380   -5.6750   14.0960 O.2    69  ASP69      -0.2715
     33  CB       -20.5150   -3.3960   16.3250 C.3    69  ASP69       0.1450
     34  CG       -19.2190   -3.4710   17.0870 C.2    69  ASP69       0.3671
     35  OD1      -19.0390   -4.4410   17.8400 O.co2  69  ASP69      -0.2456
     36  OD2      -18.3790   -2.5580   16.9250 O.co2  69  ASP69      -0.2456
     37  N        -18.6750   -5.1710   14.2570 N.am   70  SER70      -0.1950
     38  CA       -18.2330   -6.4650   13.7550 C.3    70  SER70       0.1924
     39  C        -18.7040   -7.6270   14.6120 C.2    70  SER70       0.2314
     40  O        -18.8140   -8.7540   14.1320 O.2    70  SER70      -0.2863
     41  CB       -16.7150   -6.5070   13.6550 C.3    70  SER70       0.2116
     42  OG       -16.2890   -5.9460   12.4310 O.3    70  SER70      -0.2180
     43  N        -21.4240   -9.8700   13.3870 N.3    73  VAL73      -0.1245
     44  CA       -21.1750  -10.6510   12.1840 C.3    73  VAL73       0.1561
     45  C        -20.7490  -12.0780   12.5330 C.2    73  VAL73       0.2260
     46  O        -20.0340  -12.3010   13.5110 O.2    73  VAL73      -0.2867
     47  CB       -20.0940   -9.9880   11.2940 C.3    73  VAL73       0.0252
     48  CG1      -19.8370  -10.8360   10.0280 C.3    73  VAL73       0.0019
     49  CG2      -20.5020   -8.5600   10.9260 C.3    73  VAL73       0.0019
     50  N        -22.4280   -3.8520    4.4630 N.3   107  LEU107     -0.1245
     51  CA       -21.2460   -4.6250    4.8140 C.3   107  LEU107      0.1561
     52  C        -21.4580   -5.3530    6.1170 C.2   107  LEU107      0.2260
     53  O        -21.7130   -4.7240    7.1430 O.2   107  LEU107     -0.2867
     54  CB       -20.0300   -3.7240    4.9540 C.3   107  LEU107      0.0270
     55  CG       -19.7840   -2.7310    3.8190 C.3   107  LEU107      0.0019
     56  CD1      -18.7590   -1.7190    4.2970 C.3   107  LEU107      0.0001
     57  CD2      -19.2960   -3.4760    2.5790 C.3   107  LEU107      0.0001
     58  N        -18.9000   -7.4610    7.7240 N.3   109  LEU109     -0.1245
     59  CA       -17.5460   -8.0370    7.7680 C.3   109  LEU109      0.1561
     60  C        -16.9700   -8.0770    9.1790 C.2   109  LEU109      0.2260
     61  O        -17.1160   -7.1410    9.9450 O.2   109  LEU109     -0.2867
     62  CB       -16.6180   -7.2530    6.8370 C.3   109  LEU109      0.0270
     63  CG       -17.1620   -7.0940    5.4110 C.3   109  LEU109      0.0019
     64  CD1      -16.4700   -5.9500    4.6340 C.3   109  LEU109      0.0001
     65  CD2      -17.0500   -8.4340    4.6620 C.3   109  LEU109      0.0001
     66  N        -12.1900   -6.0560    5.9040 N.3   115  ILE115     -0.1245
     67  CA       -12.8500   -4.7700    6.0250 C.3   115  ILE115      0.1561
     68  C        -12.1220   -3.7090    5.2010 C.2   115  ILE115      0.2260
     69  O        -12.7320   -3.0120    4.3950 O.2   115  ILE115     -0.2867
     70  CB       -12.9280   -4.2990    7.4900 C.3   115  ILE115      0.0252
     71  CG1      -13.9670   -5.1190    8.2530 C.3   115  ILE115      0.0019
     72  CG2      -13.2950   -2.8100    7.5530 C.3   115  ILE115      0.0019
     73  CD1      -14.0940   -4.7250    9.7180 C.3   115  ILE115      0.0001
     74  N        -13.4330   -1.7880    1.7960 N.3   119  LEU119     -0.1245
     75  CA       -13.5690   -0.3270    1.7920 C.3   119  LEU119      0.1561
     76  C        -12.7430    0.3000    0.6500 C.2   119  LEU119      0.2260
     77  O        -13.2260    1.1600   -0.0700 O.2   119  LEU119     -0.2867
     78  CB       -13.1610    0.2560    3.1530 C.3   119  LEU119      0.0270
     79  CG       -14.1860    0.0270    4.2710 C.3   119  LEU119      0.0019
     80  CD1      -13.7390    0.5910    5.6160 C.3   119  LEU119      0.0001
     81  CD2      -15.5580    0.5770    3.8770 C.3   119  LEU119      0.0001
@<TRIPOS>BOND
     1    77    76    2
     2    76    75    1
     3    75    74    1
     4    75    78    1
     5    57    55    1
     6    78    79    1
     7    55    56    1
     8    55    54    1
     9    81    79    1
    10    79    80    1
    11    69    68    2
    12    50    51    1
    13    64    63    1
    14    65    63    1
    15    51    54    1
    16    51    52    1
    17    68    67    1
    18    63    62    1
    19    66    67    1
    20    67    70    1
    21    52    53    2
    22    62    59    1
    23    70    72    1
    24    70    71    1
    25    58    59    1
    26    59    60    1
    27    12    13    1
    28    18    20   ar
    29    18    17   ar
    30    71    73    1
    31    16    13    1
    32    16    17    1
    33    13    14    1
    34    20    21   ar
    35    10    11   ar
    36    10     8   ar
    37    17    19   ar
    38    60    61    2
    39    11     9   ar
    40     8     6   ar
    41    21    19   ar
    42    48    47    1
    43    14    15    2
    44    14    22   am
    45     9     7   ar
    46     6     7   ar
    47     6     5    1
    48    22    23    1
    49    49    47    1
    50    47    44    1
    51     5     2    1
    52     3     4    2
    53     3     2    1
    54    25    24    2
    55    44    45    1
    56    44    43    1
    57    23    24    1
    58    23    26    1
    59    42    41    1
    60    45    46    2
    61    28    26    1
    62     2     1    1
    63    24    29   am
    64    26    27    1
    65    41    38    1
    66    38    37    1
    67    38    39    1
    68    32    31    2
    69    40    39    2
    70    29    30    1
    71    37    31   am
    72    31    30    1
    73    30    33    1
    74    33    34    1
    75    36    34   ar
    76    34    35   ar
