@<TRIPOS>MOLECULE
tmp/5t88B06.pdb
 96 93 0 0 0
SMALL
GASTEIGER

@<TRIPOS>ATOM
      1  N        143.5270   16.0200  146.5280 N.3   401  TYR401     -0.1241
      2  CA       142.1950   15.5080  146.2090 C.3   401  TYR401      0.1605
      3  C        142.4240   14.2680  145.3490 C.2   401  TYR401      0.2264
      4  O        142.4320   13.1410  145.8530 O.2   401  TYR401     -0.2867
      5  CB       141.3580   16.5940  145.5140 C.3   401  TYR401      0.0534
      6  CG       139.8990   16.2080  145.2620 C.ar  401  TYR401     -0.0201
      7  CD1      138.9410   16.1640  146.2990 C.ar  401  TYR401     -0.0009
      8  CD2      139.4840   15.8600  143.9850 C.ar  401  TYR401     -0.0009
      9  CE1      137.6300   15.8060  146.0210 C.ar  401  TYR401      0.0417
     10  CE2      138.1830   15.5110  143.7260 C.ar  401  TYR401      0.0417
     11  CZ       137.2700   15.4920  144.7300 C.ar  401  TYR401      0.1957
     12  OH       135.9850   15.1090  144.4120 O.3   401  TYR401     -0.2866
     13  N        138.0860   12.3600  139.8930 N.3   404  PHE404     -0.1241
     14  CA       136.8520   12.8910  139.3360 C.3   404  PHE404      0.1605
     15  C        137.0660   13.9880  138.2980 C.2   404  PHE404      0.2264
     16  O        136.1720   14.7810  138.0430 O.2   404  PHE404     -0.2867
     17  CB       135.9610   13.3890  140.4710 C.3   404  PHE404      0.0534
     18  CG       135.3730   12.2790  141.2990 C.ar  404  PHE404     -0.0203
     19  CD1      134.1790   11.6760  140.9270 C.ar  404  PHE404     -0.0042
     20  CD2      136.0340   11.7890  142.4030 C.ar  404  PHE404     -0.0042
     21  CE1      133.6410   10.6510  141.6860 C.ar  404  PHE404     -0.0003
     22  CE2      135.4880   10.7590  143.1430 C.ar  404  PHE404     -0.0003
     23  CZ       134.3030   10.2090  142.7930 C.ar  404  PHE404     -0.0000
     24  N        138.7860   16.5070  138.4210 N.3   406  ILE406     -0.1245
     25  CA       138.8340   17.8240  139.0160 C.3   406  ILE406      0.1561
     26  C        140.2780   18.2500  139.1980 C.2   406  ILE406      0.2260
     27  O        141.0640   17.6180  139.9410 O.2   406  ILE406     -0.2867
     28  CB       138.0870   17.8470  140.3560 C.3   406  ILE406      0.0252
     29  CG1      136.6050   17.5860  140.0970 C.3   406  ILE406      0.0019
     30  CG2      138.2180   19.2330  141.0500 C.3   406  ILE406      0.0019
     31  CD1      135.8210   17.2970  141.3660 C.3   406  ILE406      0.0001
     32  N        136.3220   14.7590  151.2930 N.3   477  SER477     -0.1202
     33  CA       135.5590   13.9940  150.3790 C.3   477  SER477      0.2020
     34  C        136.4200   12.9890  149.6720 C.2   477  SER477      0.2618
     35  O        136.9990   12.1610  150.3520 O.2   477  SER477     -0.2717
     36  CB       134.8300   14.9890  149.4640 C.3   477  SER477      0.2103
     37  OG       135.6990   15.7860  148.6550 O.3   477  SER477     -0.2182
     38  N        136.4900   12.9360  148.3460 N.am  478  ASN478     -0.1974
     39  CA       137.4040   11.9890  147.7220 C.3   478  ASN478      0.1688
     40  C        138.7920   12.2730  148.3330 C.2   478  ASN478      0.2292
     41  O        139.6690   11.4070  148.4250 O.2   478  ASN478     -0.2864
     42  CB       137.4010   12.2080  146.2050 C.3   478  ASN478      0.1181
     43  CG       138.5380   11.4840  145.5070 C.2   478  ASN478      0.2629
     44  OD1      138.5520   10.2630  145.4310 O.2   478  ASN478     -0.2716
     45  ND2      139.4480   12.2350  144.9620 N.am  478  ASN478     -0.0877
     46  N        134.8410    9.6780  152.0660 N.3   503  VAL503     -0.1245
     47  CA       134.5040    8.3760  151.5420 C.3   503  VAL503      0.1561
     48  C        135.5680    7.4340  152.0630 C.2   503  VAL503      0.2260
     49  O        136.7500    7.7100  151.9500 O.2   503  VAL503     -0.2867
     50  CB       134.5210    8.3680  150.0120 C.3   503  VAL503      0.0252
     51  CG1      134.1910    6.9680  149.4780 C.3   503  VAL503      0.0019
     52  CG2      133.5880    9.4660  149.4800 C.3   503  VAL503      0.0019
     53  N        129.3290    7.5100  141.9520 N.3   518  TRP518     -0.1241
     54  CA       130.7820    7.4240  141.9470 C.3   518  TRP518      0.1605
     55  C        131.3180    6.1110  141.4120 C.2   518  TRP518      0.2264
     56  O        132.5410    5.9140  141.3090 O.2   518  TRP518     -0.2867
     57  CB       131.2970    7.6070  143.3670 C.3   518  TRP518      0.0550
     58  CG       130.7860    8.8490  144.0060 C.ar  518  TRP518      0.0003
     59  CD1      130.4230    9.9990  143.3910 C.ar  518  TRP518      0.0946
     60  CD2      130.5780    9.0600  145.4080 C.ar  518  TRP518      0.0152
     61  NE1      129.9800   10.9150  144.3170 N.ar  518  TRP518     -0.2442
     62  CE2      130.0670   10.3640  145.5660 C.ar  518  TRP518      0.0810
     63  CE3      130.7780    8.2750  146.5510 C.ar  518  TRP518      0.0012
     64  CZ2      129.7680   10.9120  146.8240 C.ar  518  TRP518      0.0191
     65  CZ3      130.4900    8.8280  147.7950 C.ar  518  TRP518      0.0001
     66  CH2      129.9620   10.1170  147.9110 C.ar  518  TRP518      0.0015
     67  N        135.2470    4.8840  140.9890 N.3   522  TYR522     -0.1241
     68  CA       135.8720    4.0320  141.9820 C.3   522  TYR522      0.1605
     69  C        135.8500    2.5890  141.5650 C.2   522  TYR522      0.2264
     70  O        136.7250    1.8210  141.9910 O.2   522  TYR522     -0.2867
     71  CB       135.1780    4.1530  143.3370 C.3   522  TYR522      0.0534
     72  CG       135.4020    5.4590  144.0840 C.ar  522  TYR522     -0.0201
     73  CD1      136.6380    6.0970  144.0700 C.ar  522  TYR522     -0.0009
     74  CD2      134.3620    6.0730  144.7600 C.ar  522  TYR522     -0.0009
     75  CE1      136.8330    7.2950  144.7410 C.ar  522  TYR522      0.0417
     76  CE2      134.5550    7.2590  145.4330 C.ar  522  TYR522      0.0417
     77  CZ       135.7860    7.8620  145.4180 C.ar  522  TYR522      0.1957
     78  OH       135.9480    9.0500  146.0960 O.3   522  TYR522     -0.2866
     79  N        125.1890   14.4050  150.6990 N.3   562  ARG562     -0.1231
     80  CA       126.0010   13.8670  149.5930 C.3   562  ARG562      0.1694
     81  C        126.9200   12.7740  150.0860 C.2   562  ARG562      0.2591
     82  O        126.9160   11.6760  149.5440 O.2   562  ARG562     -0.2718
     83  CB       126.8760   14.9230  148.9100 C.3   562  ARG562      0.0321
     84  CG       126.1560   16.0600  148.2350 C.3   562  ARG562      0.0489
     85  CD       127.1750   16.8690  147.4190 C.3   562  ARG562      0.2205
     86  NE       127.4930   16.2190  146.1380 N.pl3 562  ARG562     -0.0865
     87  CZ       128.5780   15.4780  145.8710 C.cat 562  ARG562      0.5346
     88  NH1      129.5240   15.2420  146.7810 N.pl3 562  ARG562      0.1354
     89  NH2      128.7140   14.9590  144.6590 N.pl3 562  ARG562      0.1354
     90  N        127.7260   13.0800  151.1000 N.am  563  VAL563     -0.1980
     91  CA       128.6790   12.1050  151.6230 C.3   563  VAL563      0.1595
     92  C        128.1820   11.6650  152.9740 C.2   563  VAL563      0.2287
     93  O        128.1840   12.4340  153.9160 O.2   563  VAL563     -0.2864
     94  CB       130.1160   12.6790  151.6960 C.3   563  VAL563      0.0276
     95  CG1      131.1070   11.6050  152.1670 C.3   563  VAL563      0.0022
     96  CG2      130.5430   13.1850  150.3200 C.3   563  VAL563      0.0022
@<TRIPOS>BOND
     1    16    15    2
     2    15    14    1
     3    24    25    1
     4    25    26    1
     5    25    28    1
     6    26    27    2
     7    14    13    1
     8    14    17    1
     9    29    28    1
    10    29    31    1
    11    28    30    1
    12    17    18    1
    13    19    18   ar
    14    19    21   ar
    15    67    68    1
    16    18    20   ar
    17    56    55    2
    18    55    54    1
    19    69    68    1
    20    69    70    2
    21    21    23   ar
    22    54    53    1
    23    54    57    1
    24    68    71    1
    25    20    22   ar
    26    23    22   ar
    27    71    72    1
    28    57    58    1
    29    59    58   ar
    30    59    61   ar
    31    10     8   ar
    32    10    11   ar
    33     8     6   ar
    34    58    60   ar
    35    73    72   ar
    36    73    75   ar
    37    72    74   ar
    38    61    62   ar
    39    12    11    1
    40    89    87    1
    41    11     9   ar
    42    75    77   ar
    43    74    76   ar
    44    45    43   am
    45     6     5    1
    46     6     7   ar
    47     3     4    2
    48     3     2    1
    49    60    62   ar
    50    60    63   ar
    51    77    76   ar
    52    77    78    1
    53    44    43    2
    54    43    42    1
    55     5     2    1
    56    62    64   ar
    57    87    86    2
    58    87    88    1
    59     9     7   ar
    60    86    85    1
    61    42    39    1
    62     2     1    1
    63    63    65   ar
    64    64    66   ar
    65    85    84    1
    66    39    40    1
    67    39    38    1
    68    65    66   ar
    69    84    83    1
    70    40    41    2
    71    38    34   am
    72    37    36    1
    73    83    80    1
    74    36    33    1
    75    51    50    1
    76    52    50    1
    77    82    81    2
    78    80    81    1
    79    80    79    1
    80    34    35    2
    81    34    33    1
    82    50    47    1
    83    81    90   am
    84    96    94    1
    85    33    32    1
    86    90    91    1
    87    47    48    1
    88    47    46    1
    89    91    94    1
    90    91    92    1
    91    94    95    1
    92    49    48    2
    93    92    93    2
