@<TRIPOS>MOLECULE
tmp/5t88B03.pdb
 98 97 0 0 0
SMALL
GASTEIGER

@<TRIPOS>ATOM
      1  N        129.0860   35.7560  142.0430 N.3    53  MET53      -0.1245
      2  CA       128.6750   35.9540  140.6450 C.3    53  MET53       0.1570
      3  C        128.6840   37.4140  140.2270 C.2    53  MET53       0.2261
      4  O        128.5120   38.3220  141.0440 O.2    53  MET53      -0.2867
      5  CB       127.2460   35.4400  140.4030 C.3    53  MET53       0.0387
      6  CG       126.9600   33.9900  140.6970 C.3    53  MET53       0.0595
      7  SD       125.1890   33.6040  140.4640 S.3    53  MET53      -0.1393
      8  CE       125.2060   31.9180  140.9960 C.3    53  MET53       0.0692
      9  N        121.7440   31.9790  144.0980 N.3    99  GLY99      -0.1210
     10  CA       122.2630   32.4800  142.8410 C.3    99  GLY99       0.1956
     11  C        121.3070   33.5150  142.2900 C.2    99  GLY99       0.2612
     12  O        120.1840   33.6770  142.7960 O.2    99  GLY99      -0.2717
     13  N        121.7360   34.2200  141.2500 N.am  100  PHE100     -0.1962
     14  CA       120.8990   35.2520  140.6610 C.3   100  PHE100      0.1771
     15  C        121.2330   35.4410  139.1990 C.2   100  PHE100      0.2620
     16  O        122.2780   34.9590  138.7010 O.2   100  PHE100     -0.2715
     17  CB       121.0450   36.5810  141.4440 C.3   100  PHE100      0.0574
     18  CG       122.2520   37.3840  141.0630 C.ar  100  PHE100     -0.0200
     19  CD1      123.4940   37.1160  141.6350 C.ar  100  PHE100     -0.0042
     20  CD2      122.1560   38.4140  140.1630 C.ar  100  PHE100     -0.0042
     21  CE1      124.6330   37.8670  141.2810 C.ar  100  PHE100     -0.0003
     22  CE2      123.2970   39.1480  139.7970 C.ar  100  PHE100     -0.0003
     23  CZ       124.5250   38.8770  140.3710 C.ar  100  PHE100     -0.0000
     24  N        120.3070   36.0640  138.4850 N.am  101  THR101     -0.1951
     25  CA       120.6270   36.5930  137.1590 C.3   101  THR101      0.1897
     26  C        119.7740   37.8390  136.9080 C.2   101  THR101      0.2313
     27  O        119.0020   38.2500  137.7580 O.2   101  THR101     -0.2863
     28  CB       120.4170   35.5270  136.0590 C.3   101  THR101      0.1794
     29  OG1      120.9490   36.0020  134.8220 O.3   101  THR101     -0.2208
     30  CG2      118.9330   35.1720  135.8800 C.3   101  THR101      0.0378
     31  N        116.3650   38.2020  139.1270 N.3   110  ALA110     -0.1231
     32  CA       115.8090   36.9730  139.6660 C.3   110  ALA110      0.1694
     33  C        116.7930   36.4600  140.6810 C.2   110  ALA110      0.2592
     34  O        117.9680   36.3740  140.3480 O.2   110  ALA110     -0.2718
     35  CB       115.6360   35.9740  138.5910 C.3   110  ALA110      0.0304
     36  N        116.3490   36.1180  141.9020 N.am  111  TYR111     -0.1962
     37  CA       117.2600   35.4460  142.8250 C.3   111  TYR111      0.1771
     38  C        116.5910   34.2500  143.4850 C.2   111  TYR111      0.2620
     39  O        115.3710   34.2130  143.6750 O.2   111  TYR111     -0.2715
     40  CB       117.7870   36.4030  143.8930 C.3   111  TYR111      0.0574
     41  CG       116.7590   36.9870  144.8790 C.ar  111  TYR111     -0.0198
     42  CD1      116.0280   38.1250  144.5580 C.ar  111  TYR111     -0.0009
     43  CD2      116.5960   36.4560  146.1550 C.ar  111  TYR111     -0.0009
     44  CE1      115.1490   38.6970  145.4690 C.ar  111  TYR111      0.0417
     45  CE2      115.6860   37.0210  147.0790 C.ar  111  TYR111      0.0417
     46  CZ       114.9700   38.1270  146.7270 C.ar  111  TYR111      0.1957
     47  OH       114.0910   38.6770  147.6440 O.3   111  TYR111     -0.2866
     48  N        117.4150   33.2770  143.8470 N.am  112  SER112     -0.1950
     49  CA       116.9220   32.0660  144.4940 C.3   112  SER112      0.1924
     50  C        117.5220   31.8970  145.8710 C.2   112  SER112      0.2314
     51  O        118.6540   32.3000  146.1420 O.2   112  SER112     -0.2863
     52  CB       117.2200   30.8230  143.6310 C.3   112  SER112      0.2116
     53  OG       116.5590   30.9290  142.3780 O.3   112  SER112     -0.2180
     54  N        112.2950   31.0420  144.1580 N.3   123  THR123     -0.1218
     55  CA       112.8540   32.0010  143.2030 C.3   123  THR123      0.1862
     56  C        111.9710   33.2430  143.1870 C.2   123  THR123      0.2287
     57  O        110.7410   33.1600  143.0960 O.2   123  THR123     -0.2866
     58  CB       112.9770   31.4280  141.7540 C.3   123  THR123      0.1770
     59  OG1      113.8450   30.2900  141.7500 O.3   123  THR123     -0.2211
     60  CG2      113.5880   32.4650  140.8440 C.3   123  THR123      0.0375
     61  N        113.4420   27.7340  140.3680 N.3   141  ILE141     -0.1231
     62  CA       113.8130   27.3960  139.0130 C.3   141  ILE141      0.1692
     63  C        115.2070   27.9060  138.7340 C.2   141  ILE141      0.2592
     64  O        115.8490   28.5400  139.5830 O.2   141  ILE141     -0.2718
     65  CB       112.8040   27.9640  138.0070 C.3   141  ILE141      0.0266
     66  CG1      112.7010   29.4980  138.1520 C.3   141  ILE141      0.0019
     67  CG2      111.4550   27.2790  138.2220 C.3   141  ILE141      0.0020
     68  CD1      111.7440   30.1550  137.2140 C.3   141  ILE141      0.0001
     69  N        115.6880   27.5500  137.5570 N.am  142  TRP142     -0.1962
     70  CA       117.0860   27.6980  137.2140 C.3   142  TRP142      0.1771
     71  C        117.2640   28.1760  135.8150 C.2   142  TRP142      0.2620
     72  O        116.3750   28.0150  134.9740 O.2   142  TRP142     -0.2715
     73  CB       117.8020   26.3710  137.3900 C.3   142  TRP142      0.0590
     74  CG       117.6420   25.8120  138.7440 C.ar  142  TRP142      0.0006
     75  CD1      116.7670   24.8420  139.1520 C.ar  142  TRP142      0.0946
     76  CD2      118.4010   26.1850  139.8980 C.ar  142  TRP142      0.0152
     77  NE1      116.9330   24.6000  140.5000 N.ar  142  TRP142     -0.2442
     78  CE2      117.9370   25.4110  140.9770 C.ar  142  TRP142      0.0810
     79  CE3      119.4280   27.1020  140.1200 C.ar  142  TRP142      0.0012
     80  CZ2      118.4700   25.5250  142.2560 C.ar  142  TRP142      0.0191
     81  CZ3      119.9540   27.2190  141.3870 C.ar  142  TRP142      0.0001
     82  CH2      119.4740   26.4380  142.4390 C.ar  142  TRP142      0.0015
     83  N        118.4240   28.7660  135.5650 N.am  143  ASN143     -0.1958
     84  CA       118.8290   29.0560  134.1930 C.3   143  ASN143      0.1819
     85  C        117.8370   30.0020  133.5380 C.2   143  ASN143      0.2621
     86  O        117.4390   29.8410  132.3680 O.2   143  ASN143     -0.2715
     87  CB       118.9330   27.7520  133.4100 C.3   143  ASN143      0.1195
     88  CG       119.8590   27.8290  132.2550 C.2   143  ASN143      0.2630
     89  OD1      120.1200   26.8080  131.6380 O.2   143  ASN143     -0.2716
     90  ND2      120.3840   29.0240  131.9400 N.am  143  ASN143     -0.0877
     91  N        117.3780   30.9630  134.3220 N.am  144  ILE144     -0.1977
     92  CA       116.4390   31.9410  133.8020 C.3   144  ILE144      0.1596
     93  C        117.1250   32.7410  132.6870 C.2   144  ILE144      0.2287
     94  O        118.2230   33.2640  132.8660 O.2   144  ILE144     -0.2864
     95  CB       115.9210   32.8600  134.9230 C.3   144  ILE144      0.0276
     96  CG1      115.1560   32.0220  135.9590 C.3   144  ILE144      0.0022
     97  CG2      114.9480   33.8870  134.3630 C.3   144  ILE144      0.0022
     98  CD1      114.6250   32.8270  137.1630 C.3   144  ILE144      0.0001
@<TRIPOS>BOND
     1    89    88    2
     2    90    88   am
     3    88    87    1
     4    86    85    2
     5    93    94    2
     6    93    92    1
     7    87    84    1
     8    85    84    1
     9    85    91   am
    10    92    91    1
    11    92    95    1
    12    84    83    1
    13    97    95    1
    14    29    28    1
    15    95    96    1
    16    72    71    2
    17    83    71   am
    18    71    70    1
    19    30    28    1
    20    96    98    1
    21    28    25    1
    22    26    25    1
    23    26    27    2
    24    25    24    1
    25    68    66    1
    26    70    73    1
    27    70    69    1
    28    73    74    1
    29    69    63   am
    30    65    66    1
    31    65    67    1
    32    65    62    1
    33    24    15   am
    34    35    32    1
    35    16    15    2
    36    63    62    1
    37    63    64    2
    38    74    75   ar
    39    74    76   ar
    40    62    61    1
    41    31    32    1
    42    75    77   ar
    43    15    14    1
    44    32    33    1
    45    22    20   ar
    46    22    23   ar
    47    76    79   ar
    48    76    78   ar
    49    79    81   ar
    50    20    18   ar
    51     3     2    1
    52     3     4    2
    53    34    33    2
    54    23    21   ar
    55     5     2    1
    56     5     6    1
    57     7     6    1
    58     7     8    1
    59    77    78   ar
    60     2     1    1
    61    14    13    1
    62    14    17    1
    63    33    36   am
    64    60    58    1
    65    78    80   ar
    66    18    17    1
    67    18    19   ar
    68    13    11   am
    69    21    19   ar
    70    81    82   ar
    71    59    58    1
    72    58    55    1
    73    36    37    1
    74    80    82   ar
    75    11    12    2
    76    11    10    1
    77    53    52    1
    78    37    38    1
    79    37    40    1
    80    10     9    1
    81    57    56    2
    82    56    55    1
    83    55    54    1
    84    38    39    2
    85    38    48   am
    86    52    49    1
    87    48    49    1
    88    40    41    1
    89    49    50    1
    90    42    41   ar
    91    42    44   ar
    92    41    43   ar
    93    44    46   ar
    94    50    51    2
    95    43    45   ar
    96    46    45   ar
    97    46    47    1
