@<TRIPOS>MOLECULE
tmp/5t88A03.pdb
 79 75 0 0 0
SMALL
GASTEIGER

@<TRIPOS>ATOM
      1  N        165.3750  -36.6460  125.4400 N.3    50  THR50      -0.1203
      2  CA       164.2300  -35.7430  125.4220 C.3    50  THR50       0.1994
      3  C        163.6050  -35.7070  124.0160 C.2    50  THR50       0.2618
      4  O        164.2810  -35.4460  123.0340 O.2    50  THR50      -0.2717
      5  CB       164.6180  -34.3160  125.8650 C.3    50  THR50       0.1784
      6  OG1      165.1990  -34.3640  127.1700 O.3    50  THR50      -0.2211
      7  CG2      163.4040  -33.4180  125.9280 C.3    50  THR50       0.0376
      8  N        162.3190  -35.9940  123.9390 N.am   51  ILE51      -0.1965
      9  CA       161.6210  -36.0140  122.6600 C.3    51  ILE51       0.1727
     10  C        161.4790  -34.5910  122.1350 C.2    51  ILE51       0.2617
     11  O        161.3760  -33.6480  122.9210 O.2    51  ILE51      -0.2715
     12  CB       160.2250  -36.6590  122.7960 C.3    51  ILE51       0.0290
     13  CG1      159.6870  -37.0330  121.4160 C.3    51  ILE51       0.0022
     14  CG2      159.2530  -35.7300  123.5460 C.3    51  ILE51       0.0023
     15  CD1      158.2660  -37.5700  121.4340 C.3    51  ILE51       0.0001
     16  N        161.4830  -34.4100  120.8140 N.am   52  GLY52      -0.1940
     17  CA       161.1780  -33.0990  120.2720 C.3    52  GLY52       0.2014
     18  C        159.8370  -33.1360  119.5780 C.2    52  GLY52       0.2638
     19  O        158.7940  -32.9080  120.1850 O.2    52  GLY52      -0.2714
     20  N        159.8770  -33.4270  118.2860 N.am   53  MET53      -0.1976
     21  CA       158.6690  -33.5560  117.4880 C.3    53  MET53       0.1605
     22  C        158.3180  -35.0000  117.2830 C.2    53  MET53       0.2287
     23  O        159.1840  -35.8720  117.3900 O.2    53  MET53      -0.2864
     24  CB       158.8630  -32.9200  116.1410 C.3    53  MET53       0.0413
     25  CG       159.2770  -31.4780  116.1550 C.3    53  MET53       0.0598
     26  SD       159.5260  -30.9490  114.4500 S.3    53  MET53      -0.1393
     27  CE       158.2230  -31.8560  113.6570 C.3    53  MET53       0.0692
     28  N        161.6900  -37.4080  116.9660 N.3    64  SER64      -0.1202
     29  CA       163.0390  -36.9300  117.1440 C.3    64  SER64       0.2020
     30  C        163.3630  -36.9280  118.6380 C.2    64  SER64       0.2619
     31  O        162.4800  -36.7290  119.4660 O.2    64  SER64      -0.2717
     32  CB       163.2170  -35.5450  116.5290 C.3    64  SER64       0.2103
     33  OG       162.3380  -34.6200  117.1370 O.3    64  SER64      -0.2182
     34  N        164.6220  -37.1970  118.9700 N.am   65  TYR65      -0.1961
     35  CA       165.0820  -37.1350  120.3520 C.3    65  TYR65       0.1771
     36  C        166.4320  -36.4420  120.4810 C.2    65  TYR65       0.2620
     37  O        167.2890  -36.5940  119.6340 O.2    65  TYR65      -0.2715
     38  CB       165.2260  -38.5320  120.9700 C.3    65  TYR65       0.0574
     39  CG       163.9760  -39.3590  121.0510 C.ar   65  TYR65      -0.0198
     40  CD1      163.5610  -40.1580  119.9850 C.ar   65  TYR65      -0.0009
     41  CD2      163.2170  -39.3580  122.2040 C.ar   65  TYR65      -0.0009
     42  CE1      162.4090  -40.9260  120.0850 C.ar   65  TYR65       0.0417
     43  CE2      162.0710  -40.1050  122.3140 C.ar   65  TYR65       0.0417
     44  CZ       161.6750  -40.8980  121.2610 C.ar   65  TYR65       0.1957
     45  OH       160.5340  -41.6440  121.3970 O.3    65  TYR65      -0.2866
     46  N        166.6220  -35.7090  121.5740 N.am   66  SER66      -0.1950
     47  CA       167.9630  -35.3260  121.9800 C.3    66  SER66       0.1924
     48  C        168.5050  -36.2360  123.0380 C.2    66  SER66       0.2314
     49  O        167.8170  -36.5280  124.0000 O.2    66  SER66      -0.2863
     50  CB       167.9910  -33.9120  122.5220 C.3    66  SER66       0.2116
     51  OG       167.2660  -33.8080  123.7260 O.3    66  SER66      -0.2180
     52  N        171.3880  -35.7730  118.1020 N.3    71  VAL71      -0.1245
     53  CA       169.9520  -35.8100  117.8990 C.3    71  VAL71       0.1561
     54  C        169.6170  -36.8290  116.8440 C.2    71  VAL71       0.2260
     55  O        170.3140  -36.9400  115.8380 O.2    71  VAL71      -0.2867
     56  CB       169.4160  -34.4530  117.4790 C.3    71  VAL71       0.0252
     57  CG1      167.9220  -34.5450  117.1850 C.3    71  VAL71       0.0019
     58  CG2      169.6950  -33.4540  118.5710 C.3    71  VAL71       0.0019
     59  N        169.5930  -29.6280  114.1500 N.3    97  LEU97      -0.1231
     60  CA       168.4370  -30.2330  113.5010 C.3    97  LEU97       0.1693
     61  C        167.1500  -29.5090  113.9520 C.2    97  LEU97       0.2591
     62  O        166.8720  -29.4280  115.1550 O.2    97  LEU97      -0.2718
     63  CB       168.3920  -31.7230  113.8410 C.3    97  LEU97       0.0284
     64  CG       167.4770  -32.6360  113.0230 C.3    97  LEU97       0.0019
     65  CD1      167.8450  -32.6480  111.5170 C.3    97  LEU97       0.0001
     66  CD2      167.5210  -34.0310  113.6090 C.3    97  LEU97       0.0001
     67  N        166.3960  -28.9420  113.0020 N.am   98  GLN98      -0.1979
     68  CA       165.3510  -27.9560  113.3260 C.3    98  GLN98       0.1601
     69  C        163.9490  -28.5560  113.4940 C.2    98  GLN98       0.2287
     70  O        163.2680  -28.2930  114.4880 O.2    98  GLN98      -0.2864
     71  CB       165.2740  -26.8650  112.2470 C.3    98  GLN98       0.0394
     72  CG       166.4500  -25.8960  112.2150 C.3    98  GLN98       0.0908
     73  CD       166.1550  -24.6530  111.3800 C.2    98  GLN98       0.2608
     74  OE1      165.5070  -23.7120  111.8500 O.2    98  GLN98      -0.2717
     75  NE2      166.6110  -24.6540  110.1330 N.am   98  GLN98      -0.0878
     76  N        170.3060  -26.6970  120.3980 N.3   594  GLY594     -0.1225
     77  CA       169.5150  -27.8580  120.0120 C.3   594  GLY594      0.1811
     78  C        170.2960  -29.1560  119.8300 C.2   594  GLY594      0.2280
     79  O        169.8180  -30.2150  120.2310 O.2   594  GLY594     -0.2866
@<TRIPOS>BOND
     1    75    73   am
     2    73    74    2
     3    73    72    1
     4    65    64    1
     5    72    71    1
     6    71    68    1
     7    67    68    1
     8    67    61   am
     9    64    66    1
    10    64    63    1
    11    68    69    1
    12    69    70    2
    13    60    63    1
    14    60    61    1
    15    60    59    1
    16    27    26    1
    17    61    62    2
    18    26    25    1
    19    55    54    2
    20    24    25    1
    21    24    21    1
    22    32    33    1
    23    32    29    1
    24    54    53    1
    25    28    29    1
    26    29    30    1
    27    57    56    1
    28    22    23    2
    29    22    21    1
    30    56    53    1
    31    56    58    1
    32    21    20    1
    33    53    52    1
    34    20    18   am
    35    30    34   am
    36    30    31    2
    37    34    35    1
    38    18    19    2
    39    18    17    1
    40    37    36    2
    41    78    77    1
    42    78    79    2
    43    40    42   ar
    44    40    39   ar
    45    77    76    1
    46    42    44   ar
    47    17    16    1
    48    35    36    1
    49    35    38    1
    50    36    46   am
    51    16    10   am
    52    38    39    1
    53    39    41   ar
    54    44    45    1
    55    44    43   ar
    56    13    15    1
    57    13    12    1
    58    46    47    1
    59    47    50    1
    60    47    48    1
    61    10     9    1
    62    10    11    2
    63    41    43   ar
    64    50    51    1
    65     9    12    1
    66     9     8    1
    67    12    14    1
    68     4     3    2
    69    48    49    2
    70     8     3   am
    71     3     2    1
    72     2     1    1
    73     2     5    1
    74     5     7    1
    75     5     6    1
