@<TRIPOS>MOLECULE
tmp/5t89D00.pdb
 80 75 0 0 0
SMALL
GASTEIGER

@<TRIPOS>ATOM
      1  N        -92.9250   29.0210   18.7640 N.3    35  GLU35      -0.1245
      2  CA       -92.6620   27.7090   19.3460 C.3    35  GLU35       0.1567
      3  C        -93.6320   26.7230   18.6890 C.2    35  GLU35       0.2260
      4  O        -94.8040   26.6560   19.0730 O.2    35  GLU35      -0.2867
      5  CB       -92.8300   27.7390   20.8580 C.3    35  GLU35       0.0388
      6  CG       -91.9400   26.7700   21.6110 C.3    35  GLU35       0.1160
      7  CD       -92.1280   25.3390   21.1600 C.2    35  GLU35       0.3649
      8  OE1      -91.4400   24.9160   20.2060 O.co2  35  GLU35      -0.2457
      9  OE2      -92.9800   24.6410   21.7480 O.co2  35  GLU35      -0.2457
     10  N        -95.0920   23.3540   18.5260 N.3    37  VAL37      -0.1245
     11  CA       -95.2040   22.2990   19.5290 C.3    37  VAL37       0.1561
     12  C        -94.8290   20.9550   18.9010 C.2    37  VAL37       0.2260
     13  O        -93.6780   20.5140   19.0170 O.2    37  VAL37      -0.2867
     14  CB       -96.6110   22.2970   20.1700 C.3    37  VAL37       0.0252
     15  CG1      -97.6960   22.5060   19.1220 C.3    37  VAL37       0.0019
     16  CG2      -96.8540   21.0340   21.0050 C.3    37  VAL37       0.0019
     17  N        -99.7270   18.5740   17.9700 N.3    40  GLU40      -0.1245
     18  CA      -100.7870   19.1150   18.8140 C.3    40  GLU40       0.1567
     19  C       -101.7990   19.9110   17.9980 C.2    40  GLU40       0.2260
     20  O       -102.9920   19.5930   17.9970 O.2    40  GLU40      -0.2867
     21  CB      -100.1770   19.9920   19.9170 C.3    40  GLU40       0.0388
     22  CG      -101.0340   20.1490   21.1650 C.3    40  GLU40       0.1160
     23  CD      -101.0630   18.8910   22.0140 C.2    40  GLU40       0.3649
     24  OE1     -101.8440   17.9710   21.6940 O.co2  40  GLU40      -0.2457
     25  OE2     -100.2980   18.8200   23.0000 O.co2  40  GLU40      -0.2457
     26  N       -102.1820   27.4220   25.7420 N.3    60  GLN60      -0.1231
     27  CA      -101.1240   27.3480   26.7350 C.3    60  GLN60       0.1698
     28  C       -100.2720   28.6020   26.6460 C.2    60  GLN60       0.2592
     29  O       -100.0180   29.1120   25.5510 O.2    60  GLN60      -0.2718
     30  CB      -100.2510   26.1070   26.5300 C.3    60  GLN60       0.0381
     31  CG      -101.0000   24.7860   26.6080 C.3    60  GLN60       0.0905
     32  CD      -101.6820   24.4230   25.3040 C.2    60  GLN60       0.2608
     33  OE1     -101.5980   25.1590   24.3200 O.2    60  GLN60      -0.2717
     34  NE2     -102.3600   23.2810   25.2890 N.am   60  GLN60      -0.0878
     35  N        -99.8300   29.0950   27.8040 N.am   61  ALA61      -0.1966
     36  CA       -99.0590   30.3310   27.8460 C.3    61  ALA61       0.1728
     37  C        -97.7270   30.2260   27.1150 C.2    61  ALA61       0.2616
     38  O        -97.1220   31.2630   26.8220 O.2    61  ALA61      -0.2715
     39  CB       -98.8240   30.7480   29.2990 C.3    61  ALA61       0.0334
     40  N        -97.2650   29.0120   26.8010 N.am   62  ASN62      -0.1958
     41  CA       -95.9790   28.8270   26.1380 C.3    62  ASN62       0.1819
     42  C        -95.9510   29.3760   24.7210 C.2    62  ASN62       0.2621
     43  O        -94.8680   29.4540   24.1300 O.2    62  ASN62      -0.2715
     44  CB       -95.6120   27.3450   26.0820 C.3    62  ASN62       0.1195
     45  CG       -96.0050   26.6030   27.3290 C.2    62  ASN62       0.2630
     46  OD1      -96.1990   27.2040   28.3840 O.2    62  ASN62      -0.2716
     47  ND2      -96.1250   25.2840   27.2190 N.am   62  ASN62      -0.0877
     48  N        -97.1000   29.7370   24.1560 N.am   63  HIS63      -0.1973
     49  CA       -97.1760   30.0850   22.7460 C.3    63  HIS63       0.1656
     50  C        -97.3390   31.5840   22.5200 C.2    63  HIS63       0.2291
     51  O        -97.7690   32.0010   21.4420 O.2    63  HIS63      -0.2864
     52  CB       -98.3040   29.2960   22.0840 C.3    63  HIS63       0.0771
     53  CG       -98.1570   27.8100   22.2240 C.ar   63  HIS63       0.0820
     54  ND1      -98.4880   27.1320   23.3790 N.ar   63  HIS63      -0.2267
     55  CD2      -97.7040   26.8730   21.3560 C.ar   63  HIS63       0.1154
     56  CE1      -98.2530   25.8420   23.2140 C.ar   63  HIS63       0.1986
     57  NE2      -97.7770   25.6590   21.9950 N.ar   63  HIS63      -0.2212
     58  N       -102.8710   33.5650   31.6800 N.3    88  ASP88      -0.1239
     59  CA      -103.2950   32.5620   32.6450 C.3    88  ASP88       0.1674
     60  C       -103.0950   33.1320   34.0390 C.2    88  ASP88       0.2266
     61  O       -102.0830   33.7840   34.3030 O.2    88  ASP88      -0.2867
     62  CB      -102.5010   31.2580   32.4810 C.3    88  ASP88       0.1410
     63  CG      -103.1580   30.0780   33.1780 C.2    88  ASP88       0.3668
     64  OD1     -103.8750   30.2850   34.1800 O.co2  88  ASP88      -0.2456
     65  OD2     -102.9620   28.9350   32.7150 O.co2  88  ASP88      -0.2456
     66  N       -101.6140   32.7070   36.6620 N.3    90  GLY90      -0.1210
     67  CA      -100.5400   31.8980   37.2000 C.3    90  GLY90       0.1956
     68  C       -100.2400   30.6930   36.3320 C.2    90  GLY90       0.2611
     69  O       -101.0580   29.7730   36.2370 O.2    90  GLY90      -0.2717
     70  N        -99.0730   30.6840   35.6930 N.am   91  ARG91      -0.1979
     71  CA       -98.1020   31.7660   35.8300 C.3    91  ARG91       0.1597
     72  C        -98.0240   32.6050   34.5530 C.2    91  ARG91       0.2287
     73  O        -98.1530   32.0750   33.4490 O.2    91  ARG91      -0.2864
     74  CB       -96.7260   31.1960   36.1930 C.3    91  ARG91       0.0334
     75  CG       -96.6540   30.6460   37.6140 C.3    91  ARG91       0.0492
     76  CD       -95.2800   30.0810   37.9500 C.3    91  ARG91       0.2205
     77  NE       -95.1960   29.6600   39.3480 N.pl3  91  ARG91      -0.0865
     78  CZ       -94.1560   29.0270   39.8810 C.cat  91  ARG91       0.5346
     79  NH1      -93.1010   28.7330   39.1340 N.pl3  91  ARG91       0.1354
     80  NH2      -94.1700   28.6850   41.1620 N.pl3  91  ARG91       0.1354
@<TRIPOS>BOND
     1    17    18    1
     2    20    19    2
     3    19    18    1
     4    10    11    1
     5     3     4    2
     6     3     2    1
     7     1     2    1
     8    18    21    1
     9    12    13    2
    10    12    11    1
    11    15    14    1
    12     2     5    1
    13    11    14    1
    14    21    22    1
    15    14    16    1
    16     8     7   ar
    17     5     6    1
    18     7     6    1
    19     7     9   ar
    20    22    23    1
    21    55    57   ar
    22    55    53   ar
    23    51    50    2
    24    24    23   ar
    25    57    56   ar
    26    23    25   ar
    27    52    53    1
    28    52    49    1
    29    53    54   ar
    30    50    49    1
    31    49    48    1
    32    56    54   ar
    33    43    42    2
    34    48    42   am
    35    33    32    2
    36    42    41    1
    37    34    32   am
    38    32    31    1
    39    29    28    2
    40    26    27    1
    41    44    41    1
    42    44    45    1
    43    41    40    1
    44    30    31    1
    45    30    27    1
    46    28    27    1
    47    28    35   am
    48    40    37   am
    49    38    37    2
    50    37    36    1
    51    47    45   am
    52    45    46    2
    53    35    36    1
    54    36    39    1
    55    58    59    1
    56    62    59    1
    57    62    63    1
    58    59    60    1
    59    65    63   ar
    60    63    64   ar
    61    73    72    2
    62    60    61    2
    63    72    71    1
    64    70    71    1
    65    70    68   am
    66    71    74    1
    67    74    75    1
    68    69    68    2
    69    68    67    1
    70    66    67    1
    71    75    76    1
    72    76    77    1
    73    79    78    1
    74    77    78    2
    75    78    80    1
