@<TRIPOS>MOLECULE
tmp/5t8eA00.pdb
 170 159 0 0 0
SMALL
GASTEIGER

@<TRIPOS>ATOM
      1  N         31.4880   -0.1330   -3.1400 N.3    31  LEU31      -0.1245
      2  CA        31.5950   -0.3610   -1.6950 C.3    31  LEU31       0.1561
      3  C         32.7030    0.4490   -1.0200 C.2    31  LEU31       0.2260
      4  O         32.5120    0.9360    0.0970 O.2    31  LEU31      -0.2867
      5  CB        31.7560   -1.8510   -1.3740 C.3    31  LEU31       0.0270
      6  CG        30.4330   -2.6280   -1.2450 C.3    31  LEU31       0.0019
      7  CD1       29.6840   -2.2530    0.0250 C.3    31  LEU31       0.0001
      8  CD2       29.5260   -2.4200   -2.4590 C.3    31  LEU31       0.0001
      9  N         31.1110    3.8020   -0.5300 N.3    34  LEU34      -0.1231
     10  CA        30.1800    3.7410    0.6090 C.3    34  LEU34       0.1693
     11  C         30.9000    3.7370    1.9600 C.2    34  LEU34       0.2592
     12  O         30.5000    4.4300    2.8770 O.2    34  LEU34      -0.2718
     13  CB        29.2730    2.5140    0.5170 C.3    34  LEU34       0.0284
     14  CG        28.0740    2.5780   -0.4400 C.3    34  LEU34       0.0019
     15  CD1       27.5340    1.1760   -0.6660 C.3    34  LEU34       0.0001
     16  CD2       26.9540    3.4950    0.0590 C.3    34  LEU34       0.0001
     17  N         31.9620    2.9450    2.0720 N.am   35  ASN35      -0.1974
     18  CA        32.7870    2.8890    3.2920 C.3    35  ASN35       0.1688
     19  C         33.4540    4.2250    3.6530 C.2    35  ASN35       0.2292
     20  O         33.4480    4.6390    4.8110 O.2    35  ASN35      -0.2864
     21  CB        33.8560    1.7940    3.1610 C.3    35  ASN35       0.1181
     22  CG        33.2780    0.3870    3.2530 C.2    35  ASN35       0.2629
     23  OD1       32.1070    0.1950    3.5870 O.2    35  ASN35      -0.2716
     24  ND2       34.1050   -0.6070    2.9520 N.am   35  ASN35      -0.0877
     25  N         32.2590    7.0150    2.7380 N.3    37  LEU37      -0.1231
     26  CA        31.1090    7.8190    3.1140 C.3    37  LEU37       0.1693
     27  C         30.6710    7.5050    4.5500 C.2    37  LEU37       0.2592
     28  O         30.3590    8.4150    5.3180 O.2    37  LEU37      -0.2718
     29  CB        29.9470    7.6010    2.1280 C.3    37  LEU37       0.0284
     30  CG        28.6050    8.2690    2.4740 C.3    37  LEU37       0.0019
     31  CD1       28.7530    9.7860    2.5250 C.3    37  LEU37       0.0001
     32  CD2       27.5290    7.8680    1.4860 C.3    37  LEU37       0.0001
     33  N         30.6460    6.2260    4.9100 N.am   38  GLY38      -0.1957
     34  CA        30.3540    5.8210    6.2790 C.3    38  GLY38       0.1869
     35  C         31.2970    6.4520    7.2910 C.2    38  GLY38       0.2309
     36  O         30.8680    6.8720    8.3640 O.2    38  GLY38      -0.2863
     37  N         30.2590   10.1130    7.4080 N.3    41  GLN41      -0.1245
     38  CA        28.9860   10.2240    8.1120 C.3    41  GLN41       0.1566
     39  C         29.1740   10.0160    9.6060 C.2    41  GLN41       0.2260
     40  O         28.5080   10.6560   10.4140 O.2    41  GLN41      -0.2867
     41  CB        27.9600    9.1980    7.5990 C.3    41  GLN41       0.0367
     42  CG        27.3890    9.4540    6.2080 C.3    41  GLN41       0.0905
     43  CD        26.4600   10.6570    6.1300 C.2    41  GLN41       0.2608
     44  OE1       26.3880   11.4730    7.0500 O.2    41  GLN41      -0.2717
     45  NE2       25.7550   10.7830    5.0070 N.am   41  GLN41      -0.0878
     46  N         25.0060    3.9460   14.9030 N.3    71  TRP71      -0.1227
     47  CA        25.5340    4.5880   13.7140 C.3    71  TRP71       0.1737
     48  C         24.9230    4.1170   12.3970 C.2    71  TRP71       0.2595
     49  O         24.5750    4.9380   11.5510 O.2    71  TRP71      -0.2718
     50  CB        27.0540    4.4240   13.7040 C.3    71  TRP71       0.0564
     51  CG        27.7180    4.6820   12.4070 C.ar   71  TRP71       0.0003
     52  CD1       27.8860    5.8850   11.7900 C.ar   71  TRP71       0.0946
     53  CD2       28.3430    3.7050   11.5720 C.ar   71  TRP71       0.0152
     54  NE1       28.5690    5.7150   10.6050 N.ar   71  TRP71      -0.2442
     55  CE2       28.8620    4.3850   10.4520 C.ar   71  TRP71       0.0810
     56  CE3       28.5000    2.3160   11.6570 C.ar   71  TRP71       0.0012
     57  CZ2       29.5250    3.7250    9.4240 C.ar   71  TRP71       0.0191
     58  CZ3       29.1570    1.6560   10.6270 C.ar   71  TRP71       0.0001
     59  CH2       29.6590    2.3600    9.5260 C.ar   71  TRP71       0.0015
     60  N         24.7840    2.8070   12.2140 N.am   72  MET72      -0.1979
     61  CA        24.2070    2.2860   10.9690 C.3    72  MET72       0.1605
     62  C         22.7430    2.7080   10.7780 C.2    72  MET72       0.2287
     63  O         22.3720    3.2150    9.7170 O.2    72  MET72      -0.2864
     64  CB        24.3210    0.7600   10.8930 C.3    72  MET72       0.0413
     65  CG        23.9360    0.1780    9.5290 C.3    72  MET72       0.0598
     66  SD        25.0220    0.6550    8.1540 S.3    72  MET72      -0.1393
     67  CE        26.4550   -0.3820    8.4640 C.3    72  MET72       0.0692
     68  N         22.3770    6.3510   10.0350 N.3    75  MET75      -0.1230
     69  CA        22.7480    6.5840    8.6450 C.3    75  MET75       0.1702
     70  C         21.6030    6.1880    7.7220 C.2    75  MET75       0.2592
     71  O         21.1720    6.9890    6.8870 O.2    75  MET75      -0.2718
     72  CB        24.0150    5.8180    8.2590 C.3    75  MET75       0.0401
     73  CG        25.3110    6.5280    8.6120 C.3    75  MET75       0.0596
     74  SD        26.6850    5.8550    7.6570 S.3    75  MET75      -0.1393
     75  CE        26.5060    4.1100    8.0480 C.3    75  MET75       0.0692
     76  N         21.1090    4.9620    7.8930 N.am   76  VAL76      -0.1980
     77  CA        20.0160    4.4480    7.0780 C.3    76  VAL76       0.1595
     78  C         18.8010    5.3600    7.1420 C.2    76  VAL76       0.2287
     79  O         18.1570    5.6110    6.1220 O.2    76  VAL76      -0.2864
     80  CB        19.5800    3.0430    7.5270 C.3    76  VAL76       0.0276
     81  CG1       18.2780    2.6430    6.8540 C.3    76  VAL76       0.0022
     82  CG2       20.6550    2.0250    7.1980 C.3    76  VAL76       0.0022
     83  N         19.5120    8.7270    5.4390 N.3    79  MET79      -0.1245
     84  CA        19.6970    8.4670    4.0120 C.3    79  MET79       0.1570
     85  C         18.3420    8.3260    3.3120 C.2    79  MET79       0.2261
     86  O         18.1670    8.8340    2.2070 O.2    79  MET79      -0.2867
     87  CB        20.5880    7.2390    3.7830 C.3    79  MET79       0.0387
     88  CG        20.9750    7.0240    2.3250 C.3    79  MET79       0.0595
     89  SD        19.8240    6.0090    1.3500 S.3    79  MET79      -0.1393
     90  CE        19.9000    4.4240    2.1880 C.3    79  MET79       0.0692
     91  N         16.7810   11.8700    2.8450 N.3    82  ARG82      -0.1245
     92  CA        17.4010   12.4770    1.6670 C.3    82  ARG82       0.1563
     93  C         16.8050   11.9030    0.3830 C.2    82  ARG82       0.2260
     94  O         16.5100   12.6410   -0.5450 O.2    82  ARG82      -0.2867
     95  CB        18.8970   12.1960    1.6350 C.3    82  ARG82       0.0307
     96  CG        19.7210   12.8800    2.7010 C.3    82  ARG82       0.0489
     97  CD        21.2030   12.8410    2.3250 C.3    82  ARG82       0.2205
     98  NE        21.7850   11.5000    2.3850 N.pl3  82  ARG82      -0.0865
     99  CZ        22.1970   10.9050    3.5010 C.cat  82  ARG82       0.5346
    100  NH1       22.0730   11.5040    4.6810 N.pl3  82  ARG82       0.1354
    101  NH2       22.7270    9.6860    3.4510 N.pl3  82  ARG82       0.1354
    102  N         22.5030    8.3140   -1.2210 N.3    94  PHE94      -0.1241
    103  CA        23.5400    8.1970   -0.2100 C.3    94  PHE94       0.1605
    104  C         24.2610    9.5320   -0.0750 C.2    94  PHE94       0.2264
    105  O         24.4760   10.0130    1.0330 O.2    94  PHE94      -0.2867
    106  CB        24.5280    7.0920   -0.5690 C.3    94  PHE94       0.0534
    107  CG        23.9540    5.7120   -0.4780 C.ar   94  PHE94      -0.0203
    108  CD1       23.6660    5.1560    0.7530 C.ar   94  PHE94      -0.0042
    109  CD2       23.7300    4.9570   -1.6100 C.ar   94  PHE94      -0.0042
    110  CE1       23.1540    3.8800    0.8570 C.ar   94  PHE94      -0.0003
    111  CE2       23.2240    3.6700   -1.5100 C.ar   94  PHE94      -0.0003
    112  CZ        22.9320    3.1330   -0.2740 C.ar   94  PHE94      -0.0000
    113  N         24.1140   -5.5340   -2.9990 N.3   110  MET110     -0.1245
    114  CA        23.3180   -5.1980   -1.8180 C.3   110  MET110      0.1570
    115  C         21.8470   -5.0360   -2.1750 C.2   110  MET110      0.2261
    116  O         21.1130   -4.3340   -1.4680 O.2   110  MET110     -0.2867
    117  CB        23.8070   -3.8890   -1.1980 C.3   110  MET110      0.0387
    118  CG        25.0130   -4.0080   -0.2820 C.3   110  MET110      0.0595
    119  SD        25.6630   -2.3840    0.2030 S.3   110  MET110     -0.1393
    120  CE        24.1620   -1.4760    0.5820 C.3   110  MET110      0.0692
    121  N         15.8200   -0.6540    2.2860 N.3   117  MET117     -0.1245
    122  CA        16.1050    0.7690    2.5100 C.3   117  MET117      0.1570
    123  C         15.1860    1.6850    1.6990 C.2   117  MET117      0.2261
    124  O         14.7130    2.6880    2.2200 O.2   117  MET117     -0.2867
    125  CB        17.5720    1.0980    2.2050 C.3   117  MET117      0.0387
    126  CG        18.5620    0.5760    3.2430 C.3   117  MET117      0.0595
    127  SD        20.2620    1.1600    3.0050 S.3   117  MET117     -0.1393
    128  CE        20.7840    0.1560    1.6190 C.3   117  MET117      0.0692
    129  N         22.3350   -4.8380    7.2310 N.3   203  LEU203     -0.1245
    130  CA        23.4960   -4.0800    6.7870 C.3   203  LEU203      0.1561
    131  C         24.6830   -4.3960    7.6540 C.2   203  LEU203      0.2260
    132  O         25.8120   -4.5100    7.1770 O.2   203  LEU203     -0.2867
    133  CB        23.2140   -2.5840    6.8700 C.3   203  LEU203      0.0270
    134  CG        22.3780   -2.0440    5.7130 C.3   203  LEU203      0.0019
    135  CD1       21.6970   -0.7420    6.1050 C.3   203  LEU203      0.0001
    136  CD2       23.2480   -1.8580    4.4770 C.3   203  LEU203      0.0001
    137  N         26.0710   -7.6300    6.4430 N.3   206  PHE206     -0.1227
    138  CA        26.6840   -7.5480    5.1280 C.3   206  PHE206      0.1736
    139  C         28.0840   -6.9550    5.2090 C.2   206  PHE206      0.2596
    140  O         29.0360   -7.4800    4.6130 O.2   206  PHE206     -0.2718
    141  CB        25.8120   -6.6910    4.1980 C.3   206  PHE206      0.0547
    142  CG        26.3980   -6.5040    2.8350 C.ar  206  PHE206     -0.0202
    143  CD1       27.2590   -5.4400    2.5750 C.ar  206  PHE206     -0.0042
    144  CD2       26.1100   -7.4060    1.8100 C.ar  206  PHE206     -0.0042
    145  CE1       27.8220   -5.2730    1.3200 C.ar  206  PHE206     -0.0003
    146  CE2       26.6690   -7.2470    0.5490 C.ar  206  PHE206     -0.0003
    147  CZ        27.5310   -6.1770    0.3030 C.ar  206  PHE206     -0.0000
    148  N         28.1840   -5.8430    5.9300 N.am  207  THR207     -0.1953
    149  CA        29.4440   -5.1290    6.1110 C.3   207  THR207      0.1897
    150  C         30.4450   -5.9580    6.9050 C.2   207  THR207      0.2313
    151  O         31.6500   -5.9000    6.6460 O.2   207  THR207     -0.2863
    152  CB        29.2130   -3.7900    6.8390 C.3   207  THR207      0.1794
    153  OG1       28.1720   -3.0570    6.1720 O.3   207  THR207     -0.2208
    154  CG2       30.4900   -2.9530    6.8550 C.3   207  THR207      0.0378
    155  N         31.6230   -8.6320    4.6560 N.3   210  LEU210     -0.1245
    156  CA        32.4400   -7.9550    3.6670 C.3   210  LEU210      0.1561
    157  C         33.8220   -7.6150    4.2100 C.2   210  LEU210      0.2260
    158  O         34.8230   -7.7740    3.5180 O.2   210  LEU210     -0.2867
    159  CB        31.7360   -6.6770    3.2110 C.3   210  LEU210      0.0270
    160  CG        32.4290   -5.8630    2.1220 C.3   210  LEU210      0.0019
    161  CD1       32.7110   -6.7250    0.9010 C.3   210  LEU210      0.0001
    162  CD2       31.5650   -4.6670    1.7710 C.3   210  LEU210      0.0001
    163  N         35.8870    3.2170   10.8620 N.3   225  MET225     -0.1245
    164  CA        35.0220    2.2420   10.2180 C.3   225  MET225      0.1570
    165  C         35.3040    0.8130   10.6890 C.2   225  MET225      0.2261
    166  O         34.4460    0.1580   11.2920 O.2   225  MET225     -0.2867
    167  CB        35.2640    2.3410    8.6960 C.3   225  MET225      0.0387
    168  CG        34.6030    1.2870    7.8240 C.3   225  MET225      0.0595
    169  SD        32.8900    1.6470    7.4420 S.3   225  MET225     -0.1393
    170  CE        32.5510    3.1110    8.4360 C.3   225  MET225      0.0692
@<TRIPOS>BOND
     1     1     2    1
     2   113   114    1
     3     8     6    1
     4   115   114    1
     5   115   116    2
     6   114   117    1
     7     2     5    1
     8     2     3    1
     9   109   111   ar
    10   109   107   ar
    11   111   112   ar
    12     5     6    1
    13     6     7    1
    14   102   103    1
    15   117   118    1
    16     3     4    2
    17    15    14    1
    18   106   107    1
    19   106   103    1
    20    94    93    2
    21     9    10    1
    22   107   108   ar
    23    14    16    1
    24    14    13    1
    25   118   119    1
    26   112   110   ar
    27   103   104    1
    28   104   105    2
    29   119   120    1
    30   147   146   ar
    31   147   145   ar
    32    93    92    1
    33    13    10    1
    34   146   144   ar
    35    10    11    1
    36   108   110   ar
    37   161   160    1
    38   145   143   ar
    39    89    90    1
    40    89    88    1
    41    32    30    1
    42   128   127    1
    43    95    92    1
    44    95    96    1
    45    92    91    1
    46   123   124    2
    47   123   122    1
    48   162   160    1
    49   144   142   ar
    50    11    17   am
    51    11    12    2
    52    17    18    1
    53   160   159    1
    54    29    30    1
    55    29    26    1
    56   125   122    1
    57   125   126    1
    58    86    85    2
    59   121   122    1
    60    97    98    1
    61    97    96    1
    62    88    87    1
    63    98    99    2
    64    30    31    1
    65   143   142   ar
    66    25    26    1
    67   142   141    1
    68    24    22   am
    69   127   126    1
    70    26    27    1
    71    21    22    1
    72    21    18    1
    73   159   156    1
    74    22    23    2
    75    18    19    1
    76    85    84    1
    77   101    99    1
    78    99   100    1
    79   158   157    2
    80    19    20    2
    81   156   157    1
    82   156   155    1
    83    87    84    1
    84    84    83    1
    85   141   138    1
    86   136   134    1
    87    27    33   am
    88    27    28    2
    89   140   139    2
    90    33    34    1
    91    45    43   am
    92   138   139    1
    93   138   137    1
    94   139   148   am
    95   134   135    1
    96   134   133    1
    97   148   149    1
    98   149   152    1
    99   149   150    1
   100    79    78    2
   101    43    42    1
   102    43    44    2
   103   153   152    1
   104    42    41    1
   105    34    35    1
   106   151   150    2
   107   130   133    1
   108   130   129    1
   109   130   131    1
   110   152   154    1
   111    81    80    1
   112    71    70    2
   113    77    78    1
   114    77    80    1
   115    77    76    1
   116   132   131    2
   117    82    80    1
   118    35    36    2
   119    37    38    1
   120   169   168    1
   121   169   170    1
   122    41    38    1
   123    74    75    1
   124    74    73    1
   125    70    76   am
   126    70    69    1
   127   168   167    1
   128    38    39    1
   129    66    67    1
   130    66    65    1
   131    72    73    1
   132    72    69    1
   133    69    68    1
   134   167   164    1
   135    57    59   ar
   136    57    55   ar
   137    59    58   ar
   138    65    64    1
   139    39    40    2
   140    63    62    2
   141   164   165    1
   142   164   163    1
   143    55    54   ar
   144    55    53   ar
   145    54    52   ar
   146    58    56   ar
   147   165   166    2
   148    62    61    1
   149    64    61    1
   150    61    60    1
   151    49    48    2
   152    53    56   ar
   153    53    51   ar
   154    52    51   ar
   155    60    48   am
   156    48    47    1
   157    51    50    1
   158    50    47    1
   159    47    46    1
