@<TRIPOS>MOLECULE
tmp/5t8fA00.pdb
 211 200 0 0 0
SMALL
GASTEIGER

@<TRIPOS>ATOM
      1  N         43.8610    9.1770   28.0180 N.3   666  MET666     -0.1245
      2  CA        43.4790    8.8990   29.4080 C.3   666  MET666      0.1570
      3  C         43.6160    7.5170   30.0400 C.2   666  MET666      0.2261
      4  O         43.0650    7.3020   31.1250 O.2   666  MET666     -0.2867
      5  CB        42.0500    9.3900   29.6040 C.3   666  MET666      0.0387
      6  CG        41.9240   10.8660   29.3550 C.3   666  MET666      0.0595
      7  SD        40.3430   11.4850   29.9090 S.3   666  MET666     -0.1393
      8  CE        40.9170   13.0240   30.6000 C.3   666  MET666      0.0692
      9  N         42.1410    5.1300   30.2290 N.3   668  SER668     -0.1217
     10  CA        40.8450    4.5180   30.3930 C.3   668  SER668      0.1889
     11  C         40.6410    3.4080   29.3730 C.2   668  SER668      0.2288
     12  O         41.4870    3.1610   28.5050 O.2   668  SER668     -0.2866
     13  CB        39.7500    5.5760   30.2540 C.3   668  SER668      0.2089
     14  OG        38.4800    4.9750   30.1250 O.3   668  SER668     -0.2183
     15  N         40.2660    7.5830   25.6080 N.3   672  PRO672     -0.2116
     16  CA        39.6860    8.8030   25.0220 C.3   672  PRO672      0.1372
     17  C         40.6750    9.9540   24.9570 C.2   672  PRO672      0.2244
     18  O         41.4370   10.1540   25.9010 O.2   672  PRO672     -0.2868
     19  CB        38.5400    9.1750   25.9720 C.3   672  PRO672      0.0268
     20  CG        38.5070    8.1440   27.0380 C.3   672  PRO672      0.0207
     21  CD        39.7190    7.2830   26.9410 C.3   672  PRO672      0.0892
     22  N         42.0320   13.7720   25.0160 N.3   674  TRP674     -0.1241
     23  CA        41.8270   14.9720   25.8060 C.3   674  TRP674      0.1605
     24  C         42.3870   16.1070   24.9740 C.2   674  TRP674      0.2264
     25  O         43.5990   16.1980   24.8050 O.2   674  TRP674     -0.2867
     26  CB        42.5690   14.8230   27.1390 C.3   674  TRP674      0.0550
     27  CG        42.7330   16.0660   27.9810 C.ar  674  TRP674      0.0003
     28  CD1       43.7280   17.0050   27.8820 C.ar  674  TRP674      0.0946
     29  CD2       41.9170   16.4730   29.0950 C.ar  674  TRP674      0.0152
     30  NE1       43.5660   17.9810   28.8320 N.ar  674  TRP674     -0.2442
     31  CE2       42.4750   17.6920   29.5960 C.ar  674  TRP674      0.0810
     32  CE3       40.7720   15.9540   29.7050 C.ar  674  TRP674      0.0012
     33  CZ2       41.9230   18.3800   30.6830 C.ar  674  TRP674      0.0191
     34  CZ3       40.2170   16.6410   30.7870 C.ar  674  TRP674      0.0001
     35  CH2       40.7970   17.8420   31.2670 C.ar  674  TRP674      0.0015
     36  N         36.5930   16.0100   25.4070 N.3   688  ILE688     -0.1245
     37  CA        37.0300   14.6240   25.4510 C.3   688  ILE688      0.1561
     38  C         36.3920   13.9390   24.2550 C.2   688  ILE688      0.2260
     39  O         35.1790   13.8370   24.1920 O.2   688  ILE688     -0.2867
     40  CB        36.5950   13.9410   26.7630 C.3   688  ILE688      0.0252
     41  CG1       37.4620   14.4390   27.9130 C.3   688  ILE688      0.0019
     42  CG2       36.6840   12.4230   26.6560 C.3   688  ILE688      0.0019
     43  CD1       36.8860   14.1510   29.2810 C.3   688  ILE688      0.0001
     44  N         35.7140   10.5490   22.7870 N.3   690  LYS690     -0.1245
     45  CA        35.6900    9.1490   23.1970 C.3   690  LYS690      0.1561
     46  C         35.1840    8.3140   22.0420 C.2   690  LYS690      0.2260
     47  O         34.0740    8.5550   21.5650 O.2   690  LYS690     -0.2867
     48  CB        34.7840    8.9580   24.4130 C.3   690  LYS690      0.0271
     49  CG        34.8780    7.5730   25.0550 C.3   690  LYS690      0.0035
     50  CD        34.2540    7.5250   26.4450 C.3   690  LYS690      0.0206
     51  CE        34.4530    6.1710   27.1090 C.3   690  LYS690      0.1093
     52  NZ        34.2650    6.2300   28.5870 N.3   690  LYS690     -0.1314
     53  N         33.1940    3.2530   22.5210 N.3   693  ASP693     -0.1239
     54  CA        32.1930    3.0680   23.5490 C.3   693  ASP693      0.1674
     55  C         30.9860    3.9490   23.2290 C.2   693  ASP693      0.2266
     56  O         31.1070    5.0160   22.6090 O.2   693  ASP693     -0.2867
     57  CB        32.8000    3.4880   24.8850 C.3   693  ASP693      0.1410
     58  CG        32.0460    2.9550   26.0560 C.2   693  ASP693      0.3668
     59  OD1       32.2780    1.7810   26.4080 O.co2 693  ASP693     -0.2456
     60  OD2       31.2290    3.7220   26.6240 O.co2 693  ASP693     -0.2456
     61  N         27.9260    6.4620   24.0510 N.3   695  LEU695     -0.1245
     62  CA        27.6820    7.6260   24.9490 C.3   695  LEU695      0.1561
     63  C         26.2100    8.0610   25.0250 C.2   695  LEU695      0.2260
     64  O         25.8790    9.0880   25.6220 O.2   695  LEU695     -0.2867
     65  CB        28.5300    8.8110   24.4870 C.3   695  LEU695      0.0270
     66  CG        29.9390    8.8480   25.0680 C.3   695  LEU695      0.0019
     67  CD1       30.8880    9.5740   24.1260 C.3   695  LEU695      0.0001
     68  CD2       29.9310    9.5090   26.4310 C.3   695  LEU695      0.0001
     69  N         24.7430    8.0400   28.7480 N.3   698  ASP698     -0.1239
     70  CA        25.1340    9.2440   29.4710 C.3   698  ASP698      0.1674
     71  C         24.3130   10.4640   29.0500 C.2   698  ASP698      0.2266
     72  O         23.7890   11.1780   29.9040 O.2   698  ASP698     -0.2867
     73  CB        26.6120    9.5500   29.2620 C.3   698  ASP698      0.1410
     74  CG        27.5050    8.5570   29.9420 C.2   698  ASP698      0.3668
     75  OD1       27.5430    7.3840   29.5070 O.co2 698  ASP698     -0.2456
     76  OD2       28.1720    8.9580   30.9140 O.co2 698  ASP698     -0.2456
     77  N         26.7970   18.7840   32.2900 N.3   724  TYR724     -0.1241
     78  CA        27.8040   18.9950   31.2570 C.3   724  TYR724      0.1605
     79  C         27.3580   18.4220   29.9250 C.2   724  TYR724      0.2264
     80  O         26.4980   17.5460   29.8760 O.2   724  TYR724     -0.2867
     81  CB        29.1590   18.4040   31.6750 C.3   724  TYR724      0.0534
     82  CG        29.1780   16.9060   31.9440 C.ar  724  TYR724     -0.0201
     83  CD1       29.4120   15.9950   30.9130 C.ar  724  TYR724     -0.0009
     84  CD2       28.9950   16.3990   33.2330 C.ar  724  TYR724     -0.0009
     85  CE1       29.4450   14.6240   31.1530 C.ar  724  TYR724      0.0417
     86  CE2       29.0180   15.0310   33.4780 C.ar  724  TYR724      0.0417
     87  CZ        29.2470   14.1430   32.4380 C.ar  724  TYR724      0.1957
     88  OH        29.2730   12.7790   32.6470 O.3   724  TYR724     -0.2866
     89  N         32.5850   14.6930   24.9740 N.3   736  ILE736     -0.1231
     90  CA        32.1680   15.0080   26.3410 C.3   736  ILE736      0.1692
     91  C         32.8100   16.3310   26.7160 C.2   736  ILE736      0.2592
     92  O         33.9890   16.5570   26.4250 O.2   736  ILE736     -0.2718
     93  CB        32.6310   13.9600   27.3720 C.3   736  ILE736      0.0266
     94  CG1       32.1640   12.5520   26.9920 C.3   736  ILE736      0.0019
     95  CG2       32.0940   14.3230   28.7470 C.3   736  ILE736      0.0020
     96  CD1       32.7550   11.4660   27.8650 C.3   736  ILE736      0.0001
     97  N         32.0320   17.1900   27.3680 N.am  737  GLU737     -0.1966
     98  CA        32.5180   18.4950   27.7970 C.3   737  GLU737      0.1733
     99  C         33.4610   18.2800   28.9630 C.2   737  GLU737      0.2616
    100  O         33.2050   17.4510   29.8190 O.2   737  GLU737     -0.2715
    101  CB        31.3570   19.3980   28.2160 C.3   737  GLU737      0.0429
    102  CG        31.7640   20.7400   28.8250 C.3   737  GLU737      0.1163
    103  CD        30.5830   21.6410   29.1590 C.2   737  GLU737      0.3649
    104  OE1       29.4360   21.3050   28.8130 O.co2 737  GLU737     -0.2457
    105  OE2       30.8000   22.7090   29.7640 O.co2 737  GLU737     -0.2457
    106  N         34.5660   19.0050   28.9750 N.am  738  VAL738     -0.1963
    107  CA        35.4520   19.0180   30.1160 C.3   738  VAL738      0.1727
    108  C         35.0070   20.2060   30.9390 C.2   738  VAL738      0.2616
    109  O         34.9040   21.3100   30.4110 O.2   738  VAL738     -0.2715
    110  CB        36.9170   19.1800   29.6930 C.3   738  VAL738      0.0290
    111  CG1       37.8200   19.3750   30.9010 C.3   738  VAL738      0.0023
    112  CG2       37.3650   17.9690   28.8910 C.3   738  VAL738      0.0023
    113  N         34.7210   19.9620   32.2160 N.am  739  VAL739     -0.1963
    114  CA        34.3660   21.0120   33.1570 C.3   739  VAL739      0.1727
    115  C         35.6670   21.4610   33.7930 C.2   739  VAL739      0.2616
    116  O         36.3050   20.6860   34.5130 O.2   739  VAL739     -0.2715
    117  CB        33.3960   20.4920   34.2260 C.3   739  VAL739      0.0290
    118  CG1       33.1310   21.5420   35.2950 C.3   739  VAL739      0.0023
    119  CG2       32.0900   20.0720   33.5790 C.3   739  VAL739      0.0023
    120  N         36.0650   22.7030   33.5280 N.am  740  LEU740     -0.1963
    121  CA        37.3460   23.2070   34.0290 C.3   740  LEU740      0.1728
    122  C         37.3570   23.2920   35.5430 C.2   740  LEU740      0.2616
    123  O         36.3070   23.4490   36.1780 O.2   740  LEU740     -0.2715
    124  CB        37.6540   24.5920   33.4650 C.3   740  LEU740      0.0311
    125  CG        37.7780   24.7420   31.9460 C.3   740  LEU740      0.0022
    126  CD1       37.9170   26.2280   31.6220 C.3   740  LEU740      0.0001
    127  CD2       38.9350   23.9160   31.3840 C.3   740  LEU740      0.0001
    128  N         38.5590   23.1940   36.1030 N.am  741  ARG741     -0.1963
    129  CA        38.7830   23.3160   37.5390 C.3   741  ARG741      0.1729
    130  C         37.8990   22.3150   38.2630 C.2   741  ARG741      0.2617
    131  O         36.9310   22.6790   38.9310 O.2   741  ARG741     -0.2715
    132  CB        38.5180   24.7520   38.0150 C.3   741  ARG741      0.0348
    133  CG        39.3700   25.8270   37.3790 C.3   741  ARG741      0.0492
    134  CD        38.8670   27.2020   37.5970 C.3   741  ARG741      0.2205
    135  NE        39.7370   28.1800   36.9420 N.pl3 741  ARG741     -0.0865
    136  CZ        39.5700   28.5000   35.6540 C.cat 741  ARG741      0.5346
    137  NH1       38.6470   28.0050   34.8500 N.pl3 741  ARG741      0.1354
    138  NH2       40.4470   29.4280   35.2200 N.pl3 741  ARG741      0.1354
    139  N         38.2030   21.0420   38.0580 N.am  742  SER742     -0.1936
    140  CA        37.4950   19.9600   38.7380 C.3   742  SER742      0.2055
    141  C         38.3150   18.6770   38.7090 C.2   742  SER742      0.2643
    142  O         39.0720   18.4420   37.7570 O.2   742  SER742     -0.2714
    143  CB        36.1340   19.7060   38.0940 C.3   742  SER742      0.2130
    144  OG        36.2840   18.9480   36.9130 O.3   742  SER742     -0.2179
    145  N         38.1550   17.8640   39.7550 N.am  743  ASP743     -0.1957
    146  CA        38.8090   16.5580   39.8620 C.3   743  ASP743      0.1840
    147  C         37.8870   15.5700   40.5740 C.2   743  ASP743      0.2622
    148  O         36.9120   15.9600   41.2290 O.2   743  ASP743     -0.2715
    149  CB        40.1550   16.6810   40.5930 C.3   743  ASP743      0.1450
    150  CG        41.1680   15.6110   40.1760 C.2   743  ASP743      0.3671
    151  OD1       40.7750   14.4710   39.8620 O.co2 743  ASP743     -0.2456
    152  OD2       42.3770   15.9020   40.1700 O.co2 743  ASP743     -0.2456
    153  N         38.2060   14.2880   40.4160 N.am  744  THR744     -0.1951
    154  CA        37.4600   13.1990   41.0470 C.3   744  THR744      0.1897
    155  C         37.8100   13.1450   42.5210 C.2   744  THR744      0.2313
    156  O         38.9070   13.5320   42.9270 O.2   744  THR744     -0.2863
    157  CB        37.7700   11.8190   40.4270 C.3   744  THR744      0.1794
    158  OG1       39.1040   11.4210   40.7580 O.3   744  THR744     -0.2208
    159  CG2       37.6030   11.8310   38.9100 C.3   744  THR744      0.0378
    160  N         41.0680   11.1410   43.5740 N.3   747  ASN747     -0.1240
    161  CA        42.3350   11.8610   43.3780 C.3   747  ASN747      0.1653
    162  C         42.6000   12.8910   44.4720 C.2   747  ASN747      0.2266
    163  O         43.7300   12.9990   44.9590 O.2   747  ASN747     -0.2867
    164  CB        42.3780   12.5640   42.0130 C.3   747  ASN747      0.1155
    165  CG        42.5050   11.6010   40.8380 C.2   747  ASN747      0.2627
    166  OD1       42.8020   10.4140   40.9980 O.2   747  ASN747     -0.2716
    167  ND2       42.2880   12.1220   39.6380 N.am  747  ASN747     -0.0877
    168  N         32.7840   13.8040   40.9980 N.3   799  MET799     -0.1245
    169  CA        33.7690   14.8640   40.8860 C.3   799  MET799      0.1570
    170  C         33.2730   16.0780   41.6230 C.2   799  MET799      0.2261
    171  O         32.0720   16.2170   41.8940 O.2   799  MET799     -0.2867
    172  CB        33.9970   15.2440   39.4260 C.3   799  MET799      0.0387
    173  CG        34.3570   14.0840   38.5170 C.3   799  MET799      0.0595
    174  SD        34.9520   14.6350   36.9180 S.3   799  MET799     -0.1393
    175  CE        36.6330   15.1050   37.3170 C.3   799  MET799      0.0692
    176  N         36.2260   23.3240   41.9500 N.3   802  GLU802     -0.1245
    177  CA        36.9010   24.2670   42.8490 C.3   802  GLU802      0.1567
    178  C         35.9400   25.2900   43.4510 C.2   802  GLU802      0.2260
    179  O         36.2040   25.8300   44.5090 O.2   802  GLU802     -0.2867
    180  CB        38.0260   25.0070   42.1260 C.3   802  GLU802      0.0388
    181  CG        39.1700   24.1140   41.6780 C.3   802  GLU802      0.1160
    182  CD        40.3630   24.8930   41.1630 C.2   802  GLU802      0.3649
    183  OE1       40.3220   26.1420   41.1450 O.co2 802  GLU802     -0.2457
    184  OE2       41.3540   24.2490   40.7750 O.co2 802  GLU802     -0.2457
    185  N         29.4520   16.8110   41.4870 N.3   807  PHE807     -0.1241
    186  CA        28.6520   16.2700   40.3720 C.3   807  PHE807      0.1605
    187  C         29.1360   14.8900   39.9430 C.2   807  PHE807      0.2264
    188  O         30.3020   14.5270   40.1260 O.2   807  PHE807     -0.2867
    189  CB        28.6070   17.2260   39.1570 C.3   807  PHE807      0.0534
    190  CG        29.9380   17.4230   38.4810 C.ar  807  PHE807     -0.0203
    191  CD1       30.8440   18.3600   38.9610 C.ar  807  PHE807     -0.0042
    192  CD2       30.2880   16.6650   37.3780 C.ar  807  PHE807     -0.0042
    193  CE1       32.0770   18.5380   38.3540 C.ar  807  PHE807     -0.0003
    194  CE2       31.5170   16.8380   36.7640 C.ar  807  PHE807     -0.0003
    195  CZ        32.4150   17.7800   37.2510 C.ar  807  PHE807     -0.0000
    196  N         29.4680   11.5880   37.0750 N.3   809  ILE809     -0.1231
    197  CA        29.8310   11.2620   35.6870 C.3   809  ILE809      0.1692
    198  C         29.6720    9.7750   35.3700 C.2   809  ILE809      0.2592
    199  O         29.4670    8.9620   36.2770 O.2   809  ILE809     -0.2718
    200  CB        31.2800   11.6790   35.3660 C.3   809  ILE809      0.0266
    201  CG1       32.2970   10.9180   36.2230 C.3   809  ILE809      0.0019
    202  CG2       31.4550   13.1690   35.5940 C.3   809  ILE809      0.0020
    203  CD1       33.7310   11.0820   35.7530 C.3   809  ILE809      0.0001
    204  N         29.7540    9.4430   34.0840 N.am  810  ASP810     -0.1974
    205  CA        29.8130    8.0580   33.6510 C.3   810  ASP810      0.1709
    206  C         28.5800    7.2740   34.0860 C.2   810  ASP810      0.2293
    207  O         28.6670    6.3520   34.8830 O.2   810  ASP810     -0.2864
    208  CB        31.0910    7.4240   34.1980 C.3   810  ASP810      0.1436
    209  CG        31.4790    6.1690   33.4740 C.2   810  ASP810      0.3671
    210  OD1       30.6260    5.5350   32.8100 O.co2 810  ASP810     -0.2456
    211  OD2       32.6620    5.8080   33.5760 O.co2 810  ASP810     -0.2456
@<TRIPOS>BOND
     1    47    46    2
     2    46    45    1
     3    53    54    1
     4    56    55    2
     5    44    45    1
     6    45    48    1
     7    55    54    1
     8    54    57    1
     9    61    62    1
    10    67    66    1
    11    39    38    2
    12    38    37    1
    13    48    49    1
    14    65    62    1
    15    65    66    1
    16    25    24    2
    17    57    58    1
    18    62    63    1
    19    17    16    1
    20    17    18    2
    21    24    23    1
    22    89    90    1
    23    22    23    1
    24    16    15    1
    25    16    19    1
    26    63    64    2
    27    49    50    1
    28    66    68    1
    29    36    37    1
    30    37    40    1
    31    15    21    1
    32    23    26    1
    33    19    20    1
    34    58    59   ar
    35    58    60   ar
    36    90    91    1
    37    90    93    1
    38    92    91    2
    39    50    51    1
    40    42    40    1
    41    91    97   am
    42    40    41    1
    43    21    20    1
    44    94    93    1
    45    94    96    1
    46    51    52    1
    47    26    27    1
    48    97    98    1
    49    93    95    1
    50    98   101    1
    51    98    99    1
    52    28    27   ar
    53    28    30   ar
    54    41    43    1
    55    27    29   ar
    56     1     2    1
    57   101   102    1
    58    12    11    2
    59    69    70    1
    60   104   103   ar
    61   102   103    1
    62    30    31   ar
    63   112   110    1
    64    99   106   am
    65    99   100    2
    66   106   107    1
    67    71    70    1
    68    71    72    2
    69    29    31   ar
    70    29    32   ar
    71   103   105   ar
    72    73    70    1
    73    73    74    1
    74     6     5    1
    75     6     7    1
    76    11    10    1
    77     2     5    1
    78     2     3    1
    79    75    74   ar
    80    31    33   ar
    81   110   107    1
    82   110   111    1
    83    32    34   ar
    84    80    79    2
    85     7     8    1
    86    79    78    1
    87    74    76   ar
    88     3     4    2
    89   107   108    1
    90    14    13    1
    91     9    10    1
    92    13    10    1
    93   109   108    2
    94    33    35   ar
    95    34    35   ar
    96    83    85   ar
    97    83    82   ar
    98   108   113   am
    99    85    87   ar
   100    78    81    1
   101    78    77    1
   102   127   125    1
   103   126   125    1
   104    81    82    1
   105    82    84   ar
   106   125   124    1
   107   113   114    1
   108    87    88    1
   109    87    86   ar
   110   210   209   ar
   111   114   115    1
   112   114   117    1
   113    84    86   ar
   114   124   121    1
   115   209   211   ar
   116   209   208    1
   117   120   115   am
   118   120   121    1
   119   119   117    1
   120   205   204    1
   121   205   206    1
   122   205   208    1
   123   115   116    2
   124   121   122    1
   125   204   198   am
   126   206   207    2
   127   117   118    1
   128   137   136    1
   129   138   136    1
   130   200   202    1
   131   200   197    1
   132   200   201    1
   133   198   197    1
   134   198   199    2
   135   122   128   am
   136   122   123    2
   137   136   135    2
   138   197   196    1
   139   203   201    1
   140   128   129    1
   141   194   195   ar
   142   194   192   ar
   143   144   143    1
   144   174   175    1
   145   174   173    1
   146   135   134    1
   147   195   193   ar
   148   192   190   ar
   149   133   134    1
   150   133   132    1
   151   129   132    1
   152   129   130    1
   153   142   141    2
   154   139   130   am
   155   139   140    1
   156   143   140    1
   157   130   131    2
   158   193   191   ar
   159   190   191   ar
   160   190   189    1
   161   173   172    1
   162   141   140    1
   163   141   145   am
   164   159   157    1
   165   189   186    1
   166   172   169    1
   167   167   165   am
   168   145   146    1
   169   151   150   ar
   170   146   147    1
   171   146   149    1
   172   187   188    2
   173   187   186    1
   174   152   150   ar
   175   150   149    1
   176   186   185    1
   177   153   147   am
   178   153   154    1
   179   157   158    1
   180   157   154    1
   181   147   148    2
   182   184   182   ar
   183   165   166    2
   184   165   164    1
   185   169   168    1
   186   169   170    1
   187   154   155    1
   188   183   182   ar
   189   182   181    1
   190   170   171    2
   191   181   180    1
   192   176   177    1
   193   164   161    1
   194   180   177    1
   195   155   156    2
   196   177   178    1
   197   161   160    1
   198   161   162    1
   199   178   179    2
   200   162   163    2
