@<TRIPOS>MOLECULE
tmp/5t8gA00.pdb
 186 177 0 0 0
SMALL
GASTEIGER

@<TRIPOS>ATOM
      1  N         26.6380   80.6220   61.1800 N.3   117  VAL117     -0.1231
      2  CA        27.5820   80.4480   60.0830 C.3   117  VAL117      0.1692
      3  C         27.3500   79.0970   59.4390 C.2   117  VAL117      0.2592
      4  O         27.3230   78.0770   60.1350 O.2   117  VAL117     -0.2718
      5  CB        29.0430   80.5090   60.5760 C.3   117  VAL117      0.0266
      6  CG1       30.0020   80.5310   59.3810 C.3   117  VAL117      0.0020
      7  CG2       29.2600   81.7390   61.4640 C.3   117  VAL117      0.0020
      8  N         27.1770   79.0820   58.1180 N.am  118  VAL118     -0.1966
      9  CA        26.9290   77.8250   57.4010 C.3   118  VAL118      0.1712
     10  C         27.7140   77.7460   56.1040 C.2   118  VAL118      0.2458
     11  O         28.0130   78.7800   55.4940 O.2   118  VAL118     -0.2730
     12  CB        25.4310   77.6380   57.0640 C.3   118  VAL118      0.0289
     13  CG1       24.6140   77.4580   58.3570 C.3   118  VAL118      0.0023
     14  CG2       24.9240   78.8290   56.2530 C.3   118  VAL118      0.0023
     15  N         28.0450   76.5160   55.6760 N.am  119  PRO119     -0.2727
     16  CA        28.7330   76.3010   54.3930 C.3   119  PRO119      0.1402
     17  C         27.8740   76.6990   53.1860 C.2   119  PRO119      0.2269
     18  O         26.7500   76.1910   53.0090 O.2   119  PRO119     -0.2865
     19  CB        29.0080   74.7860   54.3830 C.3   119  PRO119      0.0296
     20  CG        28.1160   74.1950   55.4520 C.3   119  PRO119      0.0237
     21  CD        27.9880   75.2840   56.4900 C.3   119  PRO119      0.0939
     22  N         34.9140   79.7930   53.0660 N.3   272  GLU272     -0.1231
     23  CA        36.2400   79.4630   53.5850 C.3   272  GLU272      0.1699
     24  C         36.2550   78.1400   54.3640 C.2   272  GLU272      0.2592
     25  O         35.9690   77.0780   53.8110 O.2   272  GLU272     -0.2718
     26  CB        36.7940   80.6150   54.4450 C.3   272  GLU272      0.0402
     27  CG        38.3360   80.5700   54.6560 C.3   272  GLU272      0.1161
     28  CD        38.7360   80.8550   56.0960 C.2   272  GLU272      0.3649
     29  OE1       37.8500   80.8150   56.9940 O.co2 272  GLU272     -0.2457
     30  OE2       39.9380   81.1130   56.3510 O.co2 272  GLU272     -0.2457
     31  N         36.5650   78.2030   55.6520 N.am  273  ASP273     -0.1960
     32  CA        36.9290   76.9910   56.3800 C.3   273  ASP273      0.1840
     33  C         35.8330   75.9390   56.5920 C.2   273  ASP273      0.2622
     34  O         36.1510   74.8050   56.9390 O.2   273  ASP273     -0.2715
     35  CB        37.6260   77.3480   57.7080 C.3   273  ASP273      0.1450
     36  CG        39.1230   77.5750   57.5340 C.2   273  ASP273      0.3671
     37  OD1       39.5810   77.6740   56.3610 O.co2 273  ASP273     -0.2456
     38  OD2       39.8430   77.6490   58.5560 O.co2 273  ASP273     -0.2456
     39  N         34.5570   76.2730   56.3810 N.am  274  SER274     -0.1950
     40  CA        33.5340   75.2350   56.5200 C.3   274  SER274      0.1924
     41  C         33.1630   74.5480   55.2010 C.2   274  SER274      0.2314
     42  O         32.2700   73.6960   55.1810 O.2   274  SER274     -0.2863
     43  CB        32.2730   75.7640   57.2140 C.3   274  SER274      0.2116
     44  OG        31.5360   76.6070   56.3480 O.3   274  SER274     -0.2180
     45  N         31.5460   85.0270   53.8990 N.3   328  ARG328     -0.1245
     46  CA        32.9530   84.9420   54.2930 C.3   328  ARG328      0.1563
     47  C         33.7740   84.4750   53.1010 C.2   328  ARG328      0.2260
     48  O         33.6400   83.3110   52.6770 O.2   328  ARG328     -0.2867
     49  CB        33.1690   84.0000   55.5050 C.3   328  ARG328      0.0307
     50  CG        34.6380   83.9660   55.9890 C.3   328  ARG328      0.0489
     51  CD        34.7940   83.4710   57.4480 C.3   328  ARG328      0.2205
     52  NE        34.6160   82.0230   57.5840 N.pl3 328  ARG328     -0.0865
     53  CZ        35.0490   81.3100   58.6280 C.cat 328  ARG328      0.5346
     54  NH1       35.6860   81.9050   59.6310 N.pl3 328  ARG328      0.1354
     55  NH2       34.8470   80.0040   58.6690 N.pl3 328  ARG328      0.1354
     56  N         38.0660   89.0750   61.0880 N.3   419  MET419     -0.1245
     57  CA        38.4000   87.9830   62.0030 C.3   419  MET419      0.1570
     58  C         39.7020   88.3300   62.7240 C.2   419  MET419      0.2261
     59  O         40.7200   88.6300   62.0760 O.2   419  MET419     -0.2867
     60  CB        38.5760   86.6440   61.2670 C.3   419  MET419      0.0387
     61  CG        37.3690   86.1680   60.4750 C.3   419  MET419      0.0595
     62  SD        35.8650   85.9130   61.4450 S.3   419  MET419     -0.1393
     63  CE        36.4510   84.7300   62.6820 C.3   419  MET419      0.0692
     64  N         41.9250   86.2910   64.3810 N.3   421  GLU421     -0.1245
     65  CA        42.1800   84.8620   64.5170 C.3   421  GLU421      0.1567
     66  C         43.6260   84.4960   64.2040 C.2   421  GLU421      0.2260
     67  O         43.9370   83.3240   63.9850 O.2   421  GLU421     -0.2867
     68  CB        41.1870   84.0360   63.6740 C.3   421  GLU421      0.0388
     69  CG        41.2640   84.2390   62.1690 C.3   421  GLU421      0.1160
     70  CD        40.2210   83.4070   61.4260 C.2   421  GLU421      0.3649
     71  OE1       39.9660   83.6680   60.2220 O.co2 421  GLU421     -0.2457
     72  OE2       39.6440   82.4790   62.0400 O.co2 421  GLU421     -0.2457
     73  N         35.8070   89.7720   65.3950 N.3   444  ASN444     -0.1240
     74  CA        35.3450   88.5070   65.9640 C.3   444  ASN444      0.1653
     75  C         36.5360   87.6350   66.3360 C.2   444  ASN444      0.2266
     76  O         37.4570   87.4560   65.5240 O.2   444  ASN444     -0.2867
     77  CB        34.4710   87.7650   64.9520 C.3   444  ASN444      0.1155
     78  CG        33.8050   86.5390   65.5490 C.2   444  ASN444      0.2627
     79  OD1       34.4530   85.5060   65.7770 O.2   444  ASN444     -0.2716
     80  ND2       32.5040   86.6460   65.8160 N.am  444  ASN444     -0.0877
     81  N         38.0560   84.5110   66.3070 N.3   446  GLY446     -0.1210
     82  CA        38.0430   83.1620   65.7630 C.3   446  GLY446      0.1956
     83  C         39.0430   82.3300   66.5440 C.2   446  GLY446      0.2612
     84  O         40.1880   82.1790   66.1030 O.2   446  GLY446     -0.2717
     85  N         38.6120   81.7850   67.6860 N.am  447  PHE447     -0.1962
     86  CA        39.5520   81.2160   68.6600 C.3   447  PHE447      0.1771
     87  C         40.2190   79.9300   68.1890 C.2   447  PHE447      0.2619
     88  O         41.3020   79.5900   68.6570 O.2   447  PHE447     -0.2715
     89  CB        38.8710   80.9910   70.0250 C.3   447  PHE447      0.0574
     90  CG        37.9380   79.8200   70.0380 C.ar  447  PHE447     -0.0200
     91  CD1       36.6890   79.9020   69.4270 C.ar  447  PHE447     -0.0042
     92  CD2       38.3090   78.6280   70.6420 C.ar  447  PHE447     -0.0042
     93  CE1       35.8280   78.8190   69.4220 C.ar  447  PHE447     -0.0003
     94  CE2       37.4460   77.5350   70.6480 C.ar  447  PHE447     -0.0003
     95  CZ        36.2060   77.6330   70.0330 C.ar  447  PHE447     -0.0000
     96  N         39.5930   79.2150   67.2580 N.am  448  LEU448     -0.1963
     97  CA        40.2130   77.9980   66.7440 C.3   448  LEU448      0.1728
     98  C         41.4460   78.3210   65.8970 C.2   448  LEU448      0.2616
     99  O         42.5410   77.8340   66.1860 O.2   448  LEU448     -0.2715
    100  CB        39.2060   77.1430   65.9710 C.3   448  LEU448      0.0311
    101  CG        38.1100   76.5050   66.8350 C.3   448  LEU448      0.0022
    102  CD1       37.1330   75.7210   65.9630 C.3   448  LEU448      0.0001
    103  CD2       38.6980   75.6070   67.9080 C.3   448  LEU448      0.0001
    104  N         41.2910   79.1440   64.8600 N.am  449  ASP449     -0.1971
    105  CA        42.4660   79.5410   64.0780 C.3   449  ASP449      0.1709
    106  C         43.5160   80.1720   64.9770 C.2   449  ASP449      0.2293
    107  O         44.7260   79.9350   64.8110 O.2   449  ASP449     -0.2864
    108  CB        42.1030   80.5140   62.9580 C.3   449  ASP449      0.1436
    109  CG        41.9220   79.8170   61.6250 C.2   449  ASP449      0.3671
    110  OD1       42.7860   78.9790   61.2750 O.co2 449  ASP449     -0.2456
    111  OD2       40.9150   80.0930   60.9360 O.co2 449  ASP449     -0.2456
    112  N         33.2990   83.4960   69.4720 N.3   501  GLY501     -0.1210
    113  CA        33.4450   82.3330   68.6040 C.3   501  GLY501      0.1956
    114  C         32.3630   81.2680   68.6370 C.2   501  GLY501      0.2611
    115  O         31.3250   81.4360   69.2750 O.2   501  GLY501     -0.2717
    116  N         32.6360   80.1590   67.9530 N.am  502  MET502     -0.1979
    117  CA        31.6420   79.1320   67.6940 C.3   502  MET502      0.1605
    118  C         31.4790   78.1410   68.8440 C.2   502  MET502      0.2287
    119  O         32.4740   77.6780   69.4360 O.2   502  MET502     -0.2864
    120  CB        32.0260   78.3790   66.4160 C.3   502  MET502      0.0413
    121  CG        31.0970   77.2330   66.0620 C.3   502  MET502      0.0598
    122  SD        29.4570   77.8040   65.5460 S.3   502  MET502     -0.1393
    123  CE        29.7540   78.4230   63.8780 C.3   502  MET502      0.0692
    124  N         30.7600   74.4790   69.3280 N.3   504  THR504     -0.1218
    125  CA        30.9600   73.3820   68.3810 C.3   504  THR504      0.1862
    126  C         30.2330   72.0840   68.7290 C.2   504  THR504      0.2287
    127  O         30.1100   71.2030   67.8810 O.2   504  THR504     -0.2866
    128  CB        32.4500   73.0680   68.2440 C.3   504  THR504      0.1770
    129  OG1       32.9870   72.8170   69.5440 O.3   504  THR504     -0.2211
    130  CG2       33.1820   74.2570   67.6360 C.3   504  THR504      0.0375
    131  N         28.9230   83.1070   67.6090 N.3   528  TRP528     -0.1241
    132  CA        28.5910   82.1810   66.5330 C.3   528  TRP528      0.1605
    133  C         27.8990   80.9120   67.0060 C.2   528  TRP528      0.2264
    134  O         28.2190   80.3640   68.0710 O.2   528  TRP528     -0.2867
    135  CB        29.8480   81.8370   65.7100 C.3   528  TRP528      0.0550
    136  CG        30.3170   82.9730   64.8640 C.ar  528  TRP528      0.0003
    137  CD1       29.8710   84.2580   64.9050 C.ar  528  TRP528      0.0946
    138  CD2       31.3280   82.9200   63.8430 C.ar  528  TRP528      0.0152
    139  NE1       30.5340   85.0160   63.9620 N.ar  528  TRP528     -0.2442
    140  CE2       31.4260   84.2210   63.2940 C.ar  528  TRP528      0.0810
    141  CE3       32.1420   81.9080   63.3250 C.ar  528  TRP528      0.0012
    142  CZ2       32.3270   84.5300   62.2580 C.ar  528  TRP528      0.0191
    143  CZ3       33.0200   82.2100   62.2780 C.ar  528  TRP528      0.0001
    144  CH2       33.1090   83.5160   61.7650 C.ar  528  TRP528      0.0015
    145  N         26.1240   77.0940   65.2350 N.3   530  PRO530     -0.2116
    146  CA        26.2960   76.2570   64.0400 C.3   530  PRO530      0.1372
    147  C         24.9860   75.8170   63.3840 C.2   530  PRO530      0.2244
    148  O         25.0350   75.2450   62.2920 O.2   530  PRO530     -0.2868
    149  CB        27.0300   75.0330   64.6030 C.3   530  PRO530      0.0268
    150  CG        26.4430   74.8740   65.9580 C.3   530  PRO530      0.0207
    151  CD        26.1460   76.2870   66.4700 C.3   530  PRO530      0.0892
    152  N         32.4120   70.9030   56.7760 N.3   606  ALA606     -0.1245
    153  CA        31.8480   71.0190   58.1190 C.3   606  ALA606      0.1562
    154  C         30.6790   70.0630   58.2080 C.2   606  ALA606      0.2260
    155  O         29.8740   69.9870   57.2840 O.2   606  ALA606     -0.2867
    156  CB        31.3840   72.4490   58.4100 C.3   606  ALA606      0.0290
    157  N         30.8780   70.0190   65.5070 N.3   618  MET618     -0.1230
    158  CA        30.8790   70.6370   64.1860 C.3   618  MET618      0.1702
    159  C         31.8600   71.7980   64.1850 C.2   618  MET618      0.2592
    160  O         31.5610   72.8760   64.7110 O.2   618  MET618     -0.2718
    161  CB        29.4830   71.1090   63.7800 C.3   618  MET618      0.0401
    162  CG        29.4750   71.7550   62.3960 C.3   618  MET618      0.0596
    163  SD        27.9540   71.4070   61.5050 S.3   618  MET618     -0.1393
    164  CE        26.8450   72.6280   62.1720 C.3   618  MET618      0.0692
    165  N         33.0460   71.5610   63.6310 N.am  619  GLU619     -0.1966
    166  CA        34.1130   72.5560   63.6440 C.3   619  GLU619      0.1733
    167  C         34.5140   72.7910   62.2020 C.2   619  GLU619      0.2616
    168  O         34.3870   71.8790   61.3830 O.2   619  GLU619     -0.2715
    169  CB        35.3330   72.0340   64.4330 C.3   619  GLU619      0.0429
    170  CG        35.0000   71.3450   65.7420 C.3   619  GLU619      0.1163
    171  CD        36.2350   70.7590   66.4390 C.2   619  GLU619      0.3649
    172  OE1       36.6900   71.3550   67.4420 O.co2 619  GLU619     -0.2457
    173  OE2       36.7400   69.6980   65.9910 O.co2 619  GLU619     -0.2457
    174  N         34.9730   73.9990   61.8690 N.am  620  ASP620     -0.1971
    175  CA        35.5630   74.1910   60.5460 C.3   620  ASP620      0.1709
    176  C         37.0170   73.7190   60.5200 C.2   620  ASP620      0.2293
    177  O         37.5030   73.1130   61.4890 O.2   620  ASP620     -0.2864
    178  CB        35.3700   75.6220   59.9720 C.3   620  ASP620      0.1436
    179  CG        36.1650   76.7180   60.7190 C.2   620  ASP620      0.3671
    180  OD1       37.1890   76.4390   61.3910 O.co2 620  ASP620     -0.2456
    181  OD2       35.7710   77.9110   60.5900 O.co2 620  ASP620     -0.2456
    182  N         39.7920   74.9150   60.9610 N.3   622  ALA622     -0.1245
    183  CA        40.7440   75.3450   61.9880 C.3   622  ALA622      0.1562
    184  C         41.0260   74.2600   63.0280 C.2   622  ALA622      0.2260
    185  O         42.1110   74.2270   63.6120 O.2   622  ALA622     -0.2867
    186  CB        40.2850   76.6180   62.6690 C.3   622  ALA622      0.0290
@<TRIPOS>BOND
     1    48    47    2
     2    18    17    2
     3    22    23    1
     4    47    46    1
     5    17    16    1
     6    23    24    1
     7    23    26    1
     8    25    24    2
     9    45    46    1
    10    46    49    1
    11    24    31   am
    12    19    16    1
    13    19    20    1
    14    16    15    1
    15    26    27    1
    16    27    28    1
    17    42    41    2
    18    41    40    1
    19    20    21    1
    20    11    10    2
    21    49    50    1
    22    31    32    1
    23    15    10   am
    24    15    21    1
    25    50    51    1
    26    28    30   ar
    27    28    29   ar
    28    10     9    1
    29    14    12    1
    30    44    43    1
    31    37    36   ar
    32    32    33    1
    33    32    35    1
    34    39    40    1
    35    39    33   am
    36    40    43    1
    37    33    34    2
    38   152   153    1
    39    12     9    1
    40    12    13    1
    41   155   154    2
    42     9     8    1
    43    51    52    1
    44    36    35    1
    45    36    38   ar
    46    52    53    2
    47     8     3   am
    48   153   154    1
    49   153   156    1
    50    53    55    1
    51    53    54    1
    52     6     5    1
    53     3     2    1
    54     3     4    2
    55   178   175    1
    56   178   179    1
    57     2     5    1
    58     2     1    1
    59    71    70   ar
    60    61    60    1
    61    61    62    1
    62   176   175    1
    63   176   177    2
    64   175   174    1
    65     5     7    1
    66   181   179   ar
    67   179   180   ar
    68   111   109   ar
    69   182   183    1
    70    56    57    1
    71    60    57    1
    72   110   109   ar
    73   168   167    2
    74    70    72   ar
    75    70    69    1
    76    62    63    1
    77   163   164    1
    78   163   162    1
    79   109   108    1
    80   144   142   ar
    81   144   143   ar
    82   174   167   am
    83   183   186    1
    84   183   184    1
    85    57    58    1
    86    59    58    2
    87    69    68    1
    88   167   166    1
    89   142   140   ar
    90   143   141   ar
    91   148   147    2
    92   162   161    1
    93   108   105    1
    94   184   185    2
    95   140   138   ar
    96   140   139   ar
    97   141   138   ar
    98   147   146    1
    99   165   166    1
   100   165   159   am
   101   166   169    1
   102    68    65    1
   103   161   158    1
   104   138   136   ar
   105   123   122    1
   106   139   137   ar
   107    67    66    2
   108   146   149    1
   109   146   145    1
   110   105   104    1
   111   105   106    1
   112   159   158    1
   113   159   160    2
   114   158   157    1
   115    66    65    1
   116    64    65    1
   117   169   170    1
   118   149   150    1
   119   107   106    2
   120   104    98   am
   121   136   137   ar
   122   136   135    1
   123    77    78    1
   124    77    74    1
   125   145   151    1
   126    73    74    1
   127    76    75    2
   128   122   121    1
   129    78    79    2
   130    78    80   am
   131   135   132    1
   132   170   171    1
   133    82    81    1
   134    82    83    1
   135    98    99    2
   136    98    97    1
   137   150   151    1
   138   102   101    1
   139    74    75    1
   140   100    97    1
   141   100   101    1
   142   173   171   ar
   143   121   120    1
   144    84    83    2
   145   120   117    1
   146   171   172   ar
   147   132   133    1
   148   132   131    1
   149    83    85   am
   150    97    96    1
   151   101   103    1
   152   133   134    2
   153    96    87   am
   154   130   128    1
   155    85    86    1
   156   117   116    1
   157   117   118    1
   158   127   126    2
   159   116   114   am
   160    87    88    2
   161    87    86    1
   162   128   125    1
   163   128   129    1
   164   125   126    1
   165   125   124    1
   166   113   114    1
   167   113   112    1
   168   114   115    2
   169    86    89    1
   170   118   119    2
   171    93    91   ar
   172    93    95   ar
   173    91    90   ar
   174    89    90    1
   175    95    94   ar
   176    90    92   ar
   177    92    94   ar
