@<TRIPOS>MOLECULE
tmp/5t8iA00.pdb
 176 170 0 0 0
SMALL
GASTEIGER

@<TRIPOS>ATOM
      1  N         40.6330   70.5720   96.7460 N.3   550  THR550     -0.1203
      2  CA        41.8460   71.1910   97.2650 C.3   550  THR550      0.1994
      3  C         41.7480   72.7130   97.1890 C.2   550  THR550      0.2618
      4  O         40.6690   73.2670   96.9820 O.2   550  THR550     -0.2717
      5  CB        43.0990   70.7170   96.4920 C.3   550  THR550      0.1784
      6  OG1       44.2600   71.3940   96.9910 O.3   550  THR550     -0.2211
      7  CG2       42.9570   70.9910   94.9990 C.3   550  THR550      0.0376
      8  N         42.8840   73.3810   97.3610 N.am  551  PHE551     -0.1961
      9  CA        42.9470   74.8330   97.2850 C.3   551  PHE551      0.1771
     10  C         44.2810   75.2580   96.6890 C.2   551  PHE551      0.2619
     11  O         45.2450   74.4950   96.7100 O.2   551  PHE551     -0.2715
     12  CB        42.7690   75.4540   98.6690 C.3   551  PHE551      0.0574
     13  CG        43.9040   75.1670   99.6060 C.ar  551  PHE551     -0.0200
     14  CD1       43.9740   73.9590  100.2780 C.ar  551  PHE551     -0.0042
     15  CD2       44.9060   76.1000   99.8080 C.ar  551  PHE551     -0.0042
     16  CE1       45.0190   73.6900  101.1360 C.ar  551  PHE551     -0.0003
     17  CE2       45.9540   75.8360  100.6660 C.ar  551  PHE551     -0.0003
     18  CZ        46.0110   74.6310  101.3300 C.ar  551  PHE551     -0.0000
     19  N         44.3290   76.4740   96.1560 N.am  552  MET552     -0.1977
     20  CA        45.5640   77.0260   95.6140 C.3   552  MET552      0.1605
     21  C         46.2840   77.8180   96.6950 C.2   552  MET552      0.2287
     22  O         45.6490   78.3610   97.5970 O.2   552  MET552     -0.2864
     23  CB        45.2710   77.9130   94.4040 C.3   552  MET552      0.0413
     24  CG        46.5060   78.4820   93.7370 C.3   552  MET552      0.0598
     25  SD        46.2130   78.9000   92.0080 S.3   552  MET552     -0.1393
     26  CE        44.7120   79.8730   92.1360 C.3   552  MET552      0.0692
     27  N         42.0010   80.2850   97.0910 N.3   558  PRO558     -0.2102
     28  CA        40.7630   79.8870   96.4140 C.3   558  PRO558      0.1504
     29  C         40.5840   78.3690   96.3960 C.2   558  PRO558      0.2576
     30  O         41.5550   77.6400   96.1920 O.2   558  PRO558     -0.2718
     31  CB        40.9440   80.4430   95.0010 C.3   558  PRO558      0.0282
     32  CG        42.4120   80.4910   94.8010 C.3   558  PRO558      0.0208
     33  CD        43.0020   80.8090   96.1450 C.3   558  PRO558      0.0893
     34  N         39.3570   77.9060   96.6090 N.am  559  LEU559     -0.1966
     35  CA        39.0890   76.4760   96.7140 C.3   559  LEU559      0.1728
     36  C         38.8780   75.8260   95.3500 C.2   559  LEU559      0.2616
     37  O         38.4860   76.4810   94.3860 O.2   559  LEU559     -0.2715
     38  CB        37.8630   76.2270   97.5950 C.3   559  LEU559      0.0311
     39  CG        37.9110   76.8090   99.0090 C.3   559  LEU559      0.0022
     40  CD1       36.6190   76.5060   99.7460 C.3   559  LEU559      0.0001
     41  CD2       39.1080   76.2740   99.7830 C.3   559  LEU559      0.0001
     42  N         39.1500   74.5260   95.2940 N.am  560  TRP560     -0.1974
     43  CA        38.9660   73.7210   94.0940 C.3   560  TRP560      0.1640
     44  C         38.0510   72.5550   94.4410 C.2   560  TRP560      0.2290
     45  O         38.4660   71.6210   95.1230 O.2   560  TRP560     -0.2864
     46  CB        40.3200   73.2310   93.5680 C.3   560  TRP560      0.0576
     47  CG        40.2510   72.2430   92.4350 C.ar  560  TRP560      0.0006
     48  CD1       39.9580   70.9120   92.5220 C.ar  560  TRP560      0.0946
     49  CD2       40.5070   72.5040   91.0480 C.ar  560  TRP560      0.0152
     50  NE1       40.0050   70.3340   91.2790 N.ar  560  TRP560     -0.2442
     51  CE2       40.3400   71.2890   90.3570 C.ar  560  TRP560      0.0810
     52  CE3       40.8570   73.6490   90.3250 C.ar  560  TRP560      0.0012
     53  CZ2       40.5100   71.1840   88.9770 C.ar  560  TRP560      0.0191
     54  CZ3       41.0250   73.5440   88.9570 C.ar  560  TRP560      0.0001
     55  CH2       40.8520   72.3200   88.2970 C.ar  560  TRP560      0.0015
     56  N         35.3880   76.6220   91.1240 N.3   577  ILE577     -0.1245
     57  CA        36.4010   77.3260   91.8990 C.3   577  ILE577      0.1561
     58  C         35.7410   78.3820   92.7730 C.2   577  ILE577      0.2260
     59  O         35.1160   79.3090   92.2650 O.2   577  ILE577     -0.2867
     60  CB        37.4490   77.9820   90.9710 C.3   577  ILE577      0.0252
     61  CG1       38.3570   76.9070   90.3730 C.3   577  ILE577      0.0019
     62  CG2       38.2920   79.0180   91.7190 C.3   577  ILE577      0.0019
     63  CD1       39.1260   77.3610   89.1500 C.3   577  ILE577      0.0001
     64  N         36.1770   81.5040   95.1940 N.3   579  LYS579     -0.1245
     65  CA        37.1320   82.5720   95.4540 C.3   579  LYS579      0.1561
     66  C         36.4860   83.6210   96.3470 C.2   579  LYS579      0.2260
     67  O         35.3760   84.0790   96.0780 O.2   579  LYS579     -0.2867
     68  CB        37.6060   83.1980   94.1410 C.3   579  LYS579      0.0271
     69  CG        38.9700   83.8630   94.2190 C.3   579  LYS579      0.0035
     70  CD        39.4420   84.3060   92.8430 C.3   579  LYS579      0.0206
     71  CE        40.8810   84.7930   92.8690 C.3   579  LYS579      0.1093
     72  NZ        41.1010   85.9260   91.9220 N.3   579  LYS579     -0.1314
     73  N         34.5570   80.4100   79.7870 N.3   613  TYR613     -0.1241
     74  CA        34.1400   79.6760   80.9760 C.3   613  TYR613      0.1605
     75  C         33.2920   80.5500   81.8960 C.2   613  TYR613      0.2264
     76  O         33.3420   81.7790   81.8280 O.2   613  TYR613     -0.2867
     77  CB        35.3600   79.1390   81.7330 C.3   613  TYR613      0.0534
     78  CG        36.3430   80.2040   82.1720 C.ar  613  TYR613     -0.0201
     79  CD1       36.1510   80.9100   83.3510 C.ar  613  TYR613     -0.0009
     80  CD2       37.4670   80.4940   81.4120 C.ar  613  TYR613     -0.0009
     81  CE1       37.0470   81.8810   83.7560 C.ar  613  TYR613      0.0417
     82  CE2       38.3690   81.4620   81.8100 C.ar  613  TYR613      0.0417
     83  CZ        38.1530   82.1520   82.9820 C.ar  613  TYR613      0.1957
     84  OH        39.0440   83.1170   83.3860 O.3   613  TYR613     -0.2866
     85  N         33.9100   80.2560   89.6650 N.3   625  ILE625     -0.1231
     86  CA        34.5050   80.1350   88.3390 C.3   625  ILE625      0.1692
     87  C         34.4350   78.6790   87.8910 C.2   625  ILE625      0.2592
     88  O         34.8120   77.7740   88.6360 O.2   625  ILE625     -0.2718
     89  CB        35.9700   80.6240   88.3260 C.3   625  ILE625      0.0266
     90  CG1       36.0280   82.1190   88.6480 C.3   625  ILE625      0.0019
     91  CG2       36.6250   80.3500   86.9740 C.3   625  ILE625      0.0020
     92  CD1       37.4250   82.6450   88.9140 C.3   625  ILE625      0.0001
     93  N         33.9450   78.4570   86.6760 N.am  626  GLU626     -0.1966
     94  CA        33.8440   77.1100   86.1270 C.3   626  GLU626      0.1733
     95  C         35.2260   76.5340   85.8390 C.2   626  GLU626      0.2616
     96  O         36.0590   77.1830   85.2090 O.2   626  GLU626     -0.2715
     97  CB        33.0010   77.1080   84.8480 C.3   626  GLU626      0.0429
     98  CG        32.9120   75.7480   84.1660 C.3   626  GLU626      0.1163
     99  CD        32.0710   75.7740   82.9050 C.2   626  GLU626      0.3649
    100  OE1       31.9660   76.8490   82.2770 O.co2 626  GLU626     -0.2457
    101  OE2       31.5140   74.7170   82.5390 O.co2 626  GLU626     -0.2457
    102  N         35.4600   75.3090   86.2990 N.am  627  VAL627     -0.1963
    103  CA        36.7180   74.6220   86.0320 C.3   627  VAL627      0.1727
    104  C         36.7630   74.1450   84.5870 C.2   627  VAL627      0.2616
    105  O         35.9060   73.3770   84.1490 O.2   627  VAL627     -0.2715
    106  CB        36.9220   73.4160   86.9810 C.3   627  VAL627      0.0290
    107  CG1       38.0970   72.5450   86.5310 C.3   627  VAL627      0.0023
    108  CG2       37.1420   73.8960   88.4030 C.3   627  VAL627      0.0023
    109  N         37.7640   74.6140   83.8510 N.am  628  VAL628     -0.1977
    110  CA        38.0500   74.0850   82.5270 C.3   628  VAL628      0.1596
    111  C         38.9070   72.8350   82.6940 C.2   628  VAL628      0.2287
    112  O         40.1130   72.9200   82.9310 O.2   628  VAL628     -0.2864
    113  CB        38.7730   75.1130   81.6370 C.3   628  VAL628      0.0276
    114  CG1       38.9690   74.5590   80.2350 C.3   628  VAL628      0.0022
    115  CG2       37.9880   76.4150   81.5850 C.3   628  VAL628      0.0022
    116  N         43.2110   70.7810   81.3450 N.3   631  SER631     -0.1202
    117  CA        44.0180   71.9100   80.9000 C.3   631  SER631      0.2020
    118  C         45.1420   72.1760   81.8890 C.2   631  SER631      0.2619
    119  O         45.1550   71.6310   82.9920 O.2   631  SER631     -0.2717
    120  CB        43.1560   73.1630   80.7340 C.3   631  SER631      0.2103
    121  OG        42.6760   73.6250   81.9850 O.3   631  SER631     -0.2182
    122  N         46.0820   73.0220   81.4860 N.am  632  ASP632     -0.1959
    123  CA        47.2200   73.3530   82.3290 C.3   632  ASP632      0.1840
    124  C         47.8150   74.6880   81.9020 C.2   632  ASP632      0.2622
    125  O         47.7460   75.0640   80.7310 O.2   632  ASP632     -0.2715
    126  CB        48.2780   72.2490   82.2590 C.3   632  ASP632      0.1450
    127  CG        49.2540   72.2990   83.4180 C.2   632  ASP632      0.3671
    128  OD1       49.3430   73.3550   84.0770 O.co2 632  ASP632     -0.2456
    129  OD2       49.9320   71.2820   83.6710 O.co2 632  ASP632     -0.2456
    130  N         48.3910   75.4050   82.8600 N.am  633  THR633     -0.1951
    131  CA        49.0410   76.6760   82.5760 C.3   633  THR633      0.1897
    132  C         50.2410   76.4690   81.6620 C.2   633  THR633      0.2313
    133  O         50.8750   75.4140   81.6850 O.2   633  THR633     -0.2863
    134  CB        49.5090   77.3720   83.8660 C.3   633  THR633      0.1794
    135  OG1       50.3420   76.4800   84.6160 O.3   633  THR633     -0.2208
    136  CG2       48.3180   77.7840   84.7170 C.3   633  THR633      0.0378
    137  N         53.4300   75.8390   83.7890 N.3   636  ASN636     -0.1240
    138  CA        53.7330   74.4620   84.1670 C.3   636  ASN636      0.1653
    139  C         54.2950   73.6500   83.0040 C.2   636  ASN636      0.2266
    140  O         55.0920   72.7340   83.2050 O.2   636  ASN636     -0.2867
    141  CB        52.4810   73.7730   84.7090 C.3   636  ASN636      0.1155
    142  CG        52.0620   74.3030   86.0660 C.2   636  ASN636      0.2627
    143  OD1       52.5680   75.3240   86.5320 O.2   636  ASN636     -0.2716
    144  ND2       51.1270   73.6100   86.7060 N.am  636  ASN636     -0.0877
    145  N         51.4170   82.3280   83.2320 N.3   697  ASP697     -0.1239
    146  CA        50.6350   81.6840   84.2920 C.3   697  ASP697      0.1674
    147  C         49.1720   82.1460   84.3490 C.2   697  ASP697      0.2266
    148  O         48.4170   81.6980   85.2150 O.2   697  ASP697     -0.2867
    149  CB        51.3040   81.9090   85.6570 C.3   697  ASP697      0.1410
    150  CG        51.9840   83.2600   85.7650 C.2   697  ASP697      0.3668
    151  OD1       52.5950   83.7020   84.7680 O.co2 697  ASP697     -0.2456
    152  OD2       51.9100   83.8830   86.8470 O.co2 697  ASP697     -0.2456
    153  N         46.2440   79.6300   79.6450 N.3   700  MET700     -0.1245
    154  CA        46.1410   78.1830   79.7950 C.3   700  MET700      0.1570
    155  C         45.8710   77.5250   78.4510 C.2   700  MET700      0.2261
    156  O         45.4770   78.1890   77.4910 O.2   700  MET700     -0.2867
    157  CB        45.0380   77.8260   80.7890 C.3   700  MET700      0.0387
    158  CG        45.2810   78.3510   82.1940 C.3   700  MET700      0.0595
    159  SD        44.0170   77.8150   83.3600 S.3   700  MET700     -0.1393
    160  CE        44.3690   76.0600   83.4650 C.3   700  MET700      0.0692
    161  N         42.8480   83.5920   81.3400 N.3   710  ILE710     -0.1231
    162  CA        42.2120   83.6450   82.6490 C.3   710  ILE710      0.1692
    163  C         42.7030   84.8810   83.3950 C.2   710  ILE710      0.2592
    164  O         43.5400   85.6280   82.8830 O.2   710  ILE710     -0.2718
    165  CB        42.5040   82.3780   83.4830 C.3   710  ILE710      0.0266
    166  CG1       44.0060   82.2360   83.7620 C.3   710  ILE710      0.0019
    167  CG2       41.9960   81.1420   82.7580 C.3   710  ILE710      0.0020
    168  CD1       44.3380   81.2310   84.8420 C.3   710  ILE710      0.0001
    169  N         42.1800   85.0890   84.6000 N.am  711  ASP711     -0.1974
    170  CA        42.6320   86.1730   85.4690 C.3   711  ASP711      0.1709
    171  C         42.5670   87.5280   84.7670 C.2   711  ASP711      0.2293
    172  O         43.5920   88.0820   84.3670 O.2   711  ASP711     -0.2864
    173  CB        44.0600   85.8970   85.9500 C.3   711  ASP711      0.1436
    174  CG        44.6090   87.0080   86.8220 C.2   711  ASP711      0.3671
    175  OD1       43.8300   87.5930   87.6050 O.co2 711  ASP711     -0.2456
    176  OD2       45.8200   87.2990   86.7180 O.co2 711  ASP711     -0.2456
@<TRIPOS>BOND
     1   156   155    2
     2   155   154    1
     3   153   154    1
     4    73    74    1
     5   154   157    1
     6   114   113    1
     7   125   124    2
     8   120   117    1
     9   120   121    1
    10   157   158    1
    11   117   116    1
    12   117   118    1
    13    74    77    1
    14    74    75    1
    15   161   162    1
    16    80    82   ar
    17    80    78   ar
    18   122   118   am
    19   122   123    1
    20   115   113    1
    21   113   110    1
    22   132   133    2
    23   132   131    1
    24    77    78    1
    25    82    83   ar
    26    76    75    2
    27   118   119    2
    28   124   123    1
    29   124   130   am
    30    78    79   ar
    31   158   159    1
    32   126   123    1
    33   126   127    1
    34   100    99   ar
    35   110   111    1
    36   110   109    1
    37   101    99   ar
    38   131   130    1
    39   131   134    1
    40   162   163    1
    41   162   165    1
    42   111   112    2
    43   167   165    1
    44   164   163    2
    45    99    98    1
    46    83    84    1
    47    83    81   ar
    48   139   140    2
    49   139   138    1
    50   145   146    1
    51    79    81   ar
    52   159   160    1
    53   163   169   am
    54   127   129   ar
    55   127   128   ar
    56   165   166    1
    57   166   168    1
    58   137   138    1
    59   109   104   am
    60   134   135    1
    61   134   136    1
    62   105   104    2
    63    98    97    1
    64   138   141    1
    65   146   147    1
    66   146   149    1
    67   147   148    2
    68   172   171    2
    69   104   103    1
    70   169   170    1
    71   141   142    1
    72   171   170    1
    73   151   150   ar
    74    97    94    1
    75    96    95    2
    76   170   173    1
    77   149   150    1
    78   150   152   ar
    79    95    94    1
    80    95   102   am
    81   173   174    1
    82   103   102    1
    83   103   106    1
    84   142   143    2
    85   142   144   am
    86    94    93    1
    87   107   106    1
    88    93    87   am
    89   176   174   ar
    90   174   175   ar
    91    91    89    1
    92   106   108    1
    93    87    86    1
    94    87    88    2
    95    55    54   ar
    96    55    53   ar
    97    89    86    1
    98    89    90    1
    99    86    85    1
   100    90    92    1
   101    54    52   ar
   102    53    51   ar
   103    63    61    1
   104    52    49   ar
   105    51    49   ar
   106    51    50   ar
   107    61    60    1
   108    60    62    1
   109    60    57    1
   110    49    47   ar
   111    56    57    1
   112    50    48   ar
   113    57    58    1
   114    72    71    1
   115    25    26    1
   116    25    24    1
   117    59    58    2
   118    47    48   ar
   119    47    46    1
   120    70    71    1
   121    70    69    1
   122    46    43    1
   123    24    23    1
   124    43    44    1
   125    43    42    1
   126    68    69    1
   127    68    65    1
   128    37    36    2
   129    23    20    1
   130    44    45    2
   131    32    31    1
   132    32    33    1
   133     7     5    1
   134    31    28    1
   135    64    65    1
   136    42    36   am
   137    36    35    1
   138    65    66    1
   139    20    19    1
   140    20    21    1
   141    67    66    2
   142    33    27    1
   143    19    10   am
   144    30    29    2
   145    29    28    1
   146    29    34   am
   147    28    27    1
   148     5     6    1
   149     5     2    1
   150    34    35    1
   151    10    11    2
   152    10     9    1
   153    21    22    2
   154    35    38    1
   155     1     2    1
   156     4     3    2
   157     3     2    1
   158     3     8   am
   159     9     8    1
   160     9    12    1
   161    38    39    1
   162    12    13    1
   163    39    40    1
   164    39    41    1
   165    13    15   ar
   166    13    14   ar
   167    15    17   ar
   168    14    16   ar
   169    17    18   ar
   170    16    18   ar
