@<TRIPOS>MOLECULE
tmp/5t8jA00.pdb
 178 166 0 0 0
SMALL
GASTEIGER

@<TRIPOS>ATOM
      1  N         31.1120   -0.0660   -3.1320 N.3    31  LEU31      -0.1245
      2  CA        31.2080   -0.3810   -1.7050 C.3    31  LEU31       0.1561
      3  C         32.4060    0.2550   -1.0200 C.2    31  LEU31       0.2260
      4  O         32.3750    0.4740    0.1880 O.2    31  LEU31      -0.2867
      5  CB        31.1990   -1.8940   -1.4670 C.3    31  LEU31       0.0270
      6  CG        29.7970   -2.5160   -1.3100 C.3    31  LEU31       0.0019
      7  CD1       29.1460   -2.0970    0.0070 C.3    31  LEU31       0.0001
      8  CD2       28.8890   -2.1890   -2.4970 C.3    31  LEU31       0.0001
      9  N         30.7560    3.6840   -0.3910 N.3    34  LEU34      -0.1231
     10  CA        29.8290    3.6730    0.7560 C.3    34  LEU34       0.1693
     11  C         30.5510    3.6410    2.1170 C.2    34  LEU34       0.2592
     12  O         30.1070    4.2750    3.0750 O.2    34  LEU34      -0.2718
     13  CB        28.8260    2.5100    0.6540 C.3    34  LEU34       0.0284
     14  CG        27.6470    2.6670   -0.3190 C.3    34  LEU34       0.0019
     15  CD1       26.9370    1.3280   -0.3920 C.3    34  LEU34       0.0001
     16  CD2       26.6500    3.7640    0.0580 C.3    34  LEU34       0.0001
     17  N         31.6600    2.9080    2.1960 N.am   35  ASN35      -0.1974
     18  CA        32.4710    2.8600    3.4270 C.3    35  ASN35       0.1688
     19  C         33.1610    4.1910    3.7700 C.2    35  ASN35       0.2292
     20  O         33.3490    4.5040    4.9440 O.2    35  ASN35      -0.2864
     21  CB        33.5050    1.7250    3.3630 C.3    35  ASN35       0.1181
     22  CG        32.8620    0.3430    3.3730 C.2    35  ASN35       0.2629
     23  OD1       31.7090    0.1630    3.7970 O.2    35  ASN35      -0.2716
     24  ND2       33.6130   -0.6490    2.9040 N.am   35  ASN35      -0.0877
     25  N         31.6350    6.9670    2.8010 N.3    37  LEU37      -0.1231
     26  CA        30.4380    7.7290    3.1630 C.3    37  LEU37       0.1693
     27  C         29.9830    7.3920    4.5730 C.2    37  LEU37       0.2592
     28  O         29.6120    8.2840    5.3380 O.2    37  LEU37      -0.2718
     29  CB        29.2970    7.4640    2.1800 C.3    37  LEU37       0.0284
     30  CG        27.9600    8.2130    2.3740 C.3    37  LEU37       0.0019
     31  CD1       28.1240    9.7320    2.3570 C.3    37  LEU37       0.0001
     32  CD2       26.9530    7.7780    1.3140 C.3    37  LEU37       0.0001
     33  N         29.9970    6.1110    4.9210 N.am   38  GLY38      -0.1957
     34  CA        29.6740    5.6980    6.2820 C.3    38  GLY38       0.1869
     35  C         30.6320    6.2990    7.3060 C.2    38  GLY38       0.2309
     36  O         30.2210    6.6600    8.4040 O.2    38  GLY38      -0.2863
     37  N         29.6730   10.0700    7.4330 N.3    41  GLN41      -0.1245
     38  CA        28.3770   10.1590    8.1010 C.3    41  GLN41       0.1566
     39  C         28.4920    9.9460    9.6020 C.2    41  GLN41       0.2260
     40  O         27.7880   10.6040   10.3810 O.2    41  GLN41      -0.2867
     41  CB        27.3780    9.1610    7.5150 C.3    41  GLN41       0.0367
     42  CG        26.6730    9.6310    6.2390 C.3    41  GLN41       0.0905
     43  CD        25.7640   10.8560    6.4240 C.2    41  GLN41       0.2608
     44  OE1       25.6290   11.4010    7.5270 O.2    41  GLN41      -0.2717
     45  NE2       25.1420   11.2950    5.3280 N.am   41  GLN41      -0.0878
     46  N         24.4690    3.9880   14.9960 N.3    71  TRP71      -0.1227
     47  CA        24.9810    4.6640   13.8070 C.3    71  TRP71       0.1737
     48  C         24.4190    4.1960   12.4490 C.2    71  TRP71       0.2595
     49  O         24.2290    4.9940   11.5410 O.2    71  TRP71      -0.2718
     50  CB        26.5200    4.5830   13.8440 C.3    71  TRP71       0.0564
     51  CG        27.2030    4.7920   12.5420 C.ar   71  TRP71       0.0003
     52  CD1       27.4160    5.9770   11.9030 C.ar   71  TRP71       0.0946
     53  CD2       27.7720    3.7780   11.7180 C.ar   71  TRP71       0.0152
     54  NE1       28.0820    5.7610   10.7210 N.ar   71  TRP71      -0.2442
     55  CE2       28.3150    4.4180   10.5830 C.ar   71  TRP71       0.0810
     56  CE3       27.8760    2.3860   11.8300 C.ar   71  TRP71       0.0012
     57  CZ2       28.9520    3.7150    9.5570 C.ar   71  TRP71       0.0191
     58  CZ3       28.5080    1.6840   10.8110 C.ar   71  TRP71       0.0001
     59  CH2       29.0360    2.3520    9.6870 C.ar   71  TRP71       0.0015
     60  N         24.1580    2.9080   12.3090 N.am   72  MET72      -0.1979
     61  CA        23.6680    2.3520   11.0310 C.3    72  MET72       0.1605
     62  C         22.1890    2.6660   10.7710 C.2    72  MET72       0.2287
     63  O         21.8000    2.9790    9.6410 O.2    72  MET72      -0.2864
     64  CB        23.8920    0.8330   10.9800 C.3    72  MET72       0.0413
     65  CG        23.4200    0.1440    9.7030 C.3    72  MET72       0.0598
     66  SD        24.3710    0.5860    8.2390 S.3    72  MET72      -0.1393
     67  CE        25.8430   -0.4150    8.4510 C.3    72  MET72       0.0692
     68  N         21.8140    6.4850   10.0270 N.3    75  MET75      -0.1230
     69  CA        22.2580    6.7770    8.6600 C.3    75  MET75       0.1702
     70  C         21.1590    6.3810    7.6890 C.2    75  MET75       0.2592
     71  O         20.7170    7.1760    6.8440 O.2    75  MET75      -0.2718
     72  CB        23.5190    5.9850    8.3240 C.3    75  MET75       0.0401
     73  CG        24.8090    6.6600    8.7550 C.3    75  MET75       0.0596
     74  SD        26.2420    5.8880    7.9790 S.3    75  MET75      -0.1393
     75  CE        25.8810    4.1460    8.2500 C.3    75  MET75       0.0692
     76  N         20.7220    5.1340    7.8450 N.am   76  VAL76      -0.1980
     77  CA        19.6550    4.5670    7.0470 C.3    76  VAL76       0.1595
     78  C         18.3970    5.3900    7.1360 C.2    76  VAL76       0.2287
     79  O         17.7010    5.5810    6.1400 O.2    76  VAL76      -0.2864
     80  CB        19.3230    3.1510    7.5100 C.3    76  VAL76       0.0276
     81  CG1       17.9890    2.6900    6.9260 C.3    76  VAL76       0.0022
     82  CG2       20.4510    2.1980    7.1150 C.3    76  VAL76       0.0022
     83  N         19.1190    8.7810    5.4710 N.3    79  MET79      -0.1245
     84  CA        19.2560    8.4330    4.0600 C.3    79  MET79       0.1570
     85  C         17.8770    8.3460    3.4280 C.2    79  MET79       0.2261
     86  O         17.6190    9.0270    2.4450 O.2    79  MET79      -0.2867
     87  CB        20.0240    7.1120    3.8910 C.3    79  MET79       0.0387
     88  CG        20.4930    6.8250    2.4660 C.3    79  MET79       0.0595
     89  SD        19.2970    6.0280    1.3590 S.3    79  MET79      -0.1393
     90  CE        18.8160    4.5600    2.2690 C.3    79  MET79       0.0692
     91  N         16.3230   11.6300    2.8780 N.3    82  ARG82      -0.1245
     92  CA        16.9300   12.3000    1.7230 C.3    82  ARG82       0.1563
     93  C         16.3420   11.7540    0.4200 C.2    82  ARG82       0.2260
     94  O         16.0000   12.5150   -0.4870 O.2    82  ARG82      -0.2867
     95  CB        18.4470   12.1110    1.7170 C.3    82  ARG82       0.0307
     96  CG        19.1930   12.8760    2.7930 C.3    82  ARG82       0.0489
     97  CD        20.6840   12.9110    2.4820 C.3    82  ARG82       0.2205
     98  NE        21.2930   11.5830    2.5630 N.pl3  82  ARG82      -0.0865
     99  CZ        21.6410   10.9820    3.6990 C.cat  82  ARG82       0.5346
    100  NH1       21.4310   11.5650    4.8790 N.pl3  82  ARG82       0.1354
    101  NH2       22.1960    9.7790    3.6640 N.pl3  82  ARG82       0.1354
    102  N         21.9990    8.2360   -0.9650 N.3    94  PHE94      -0.1241
    103  CA        23.0770    8.1320    0.0140 C.3    94  PHE94       0.1605
    104  C         23.7820    9.4790    0.1540 C.2    94  PHE94       0.2264
    105  O         24.0170    9.9690    1.2660 O.2    94  PHE94      -0.2867
    106  CB        24.0690    7.0660   -0.4240 C.3    94  PHE94       0.0534
    107  CG        23.4920    5.7060   -0.4180 C.ar   94  PHE94      -0.0203
    108  CD1       23.3430    5.0300    0.7680 C.ar   94  PHE94      -0.0042
    109  CD2       23.0550    5.1100   -1.5860 C.ar   94  PHE94      -0.0042
    110  CE1       22.7930    3.7650    0.8050 C.ar   94  PHE94      -0.0003
    111  CE2       22.5020    3.8400   -1.5550 C.ar   94  PHE94      -0.0003
    112  CZ        22.3770    3.1670   -0.3560 C.ar   94  PHE94      -0.0000
    113  N         23.5770   -5.3210   -2.9130 N.3   110  MET110     -0.1245
    114  CA        22.7730   -5.0350   -1.7510 C.3   110  MET110      0.1570
    115  C         21.3290   -4.8850   -2.1730 C.2   110  MET110      0.2261
    116  O         20.5650   -4.1410   -1.5300 O.2   110  MET110     -0.2867
    117  CB        23.2300   -3.7430   -1.0810 C.3   110  MET110      0.0387
    118  CG        24.5400   -3.8320   -0.3140 C.3   110  MET110      0.0595
    119  SD        25.0770   -2.2290    0.3460 S.3   110  MET110     -0.1393
    120  CE        23.5210   -1.5190    0.8770 C.3   110  MET110      0.0692
    121  N         15.3210   -0.5950    2.5110 N.3   117  MET117     -0.1245
    122  CA        15.6260    0.8020    2.7760 C.3   117  MET117      0.1570
    123  C         14.7900    1.7370    1.9300 C.2   117  MET117      0.2261
    124  O         14.4420    2.8320    2.3790 O.2   117  MET117     -0.2867
    125  CB        17.0950    1.0830    2.4940 C.3   117  MET117      0.0387
    126  CG        18.0470    0.4540    3.4920 C.3   117  MET117      0.0595
    127  SD        19.7200    1.0580    3.2210 S.3   117  MET117     -0.1393
    128  CE        20.2780   -0.0150    1.9000 C.3   117  MET117      0.0692
    129  N         21.9830   -4.7660    7.3680 N.3   203  LEU203     -0.1245
    130  CA        23.1340   -4.0070    6.9080 C.3   203  LEU203      0.1561
    131  C         24.3650   -4.3450    7.7100 C.2   203  LEU203      0.2260
    132  O         25.4840   -4.4460    7.1720 O.2   203  LEU203     -0.2867
    133  CB        22.8330   -2.5240    7.0150 C.3   203  LEU203      0.0270
    134  CG        21.8700   -2.1190    5.9020 C.3   203  LEU203      0.0019
    135  CD1       20.9730   -0.9640    6.3220 C.3   203  LEU203      0.0001
    136  CD2       22.6590   -1.7810    4.6370 C.3   203  LEU203      0.0001
    137  N         25.5650   -7.7500    6.5240 N.3   206  PHE206     -0.1227
    138  CA        26.2430   -7.5780    5.2410 C.3   206  PHE206      0.1736
    139  C         27.6100   -6.9230    5.3610 C.2   206  PHE206      0.2596
    140  O         28.5710   -7.3800    4.7430 O.2   206  PHE206     -0.2718
    141  CB        25.3660   -6.7120    4.3270 C.3   206  PHE206      0.0547
    142  CG        26.0200   -6.3220    3.0280 C.ar  206  PHE206     -0.0202
    143  CD1       25.8810   -7.1150    1.8920 C.ar  206  PHE206     -0.0042
    144  CD2       26.7490   -5.1470    2.9290 C.ar  206  PHE206     -0.0042
    145  CE1       26.4720   -6.7470    0.6910 C.ar  206  PHE206     -0.0003
    146  CE2       27.3440   -4.7790    1.7310 C.ar  206  PHE206     -0.0003
    147  CZ        27.2060   -5.5780    0.6120 C.ar  206  PHE206     -0.0000
    148  N         27.6850   -5.8320    6.1210 N.am  207  THR207     -0.1953
    149  CA        28.9420   -5.0890    6.2420 C.3   207  THR207      0.1897
    150  C         29.9750   -5.9070    6.9910 C.2   207  THR207      0.2313
    151  O         31.1690   -5.8330    6.7040 O.2   207  THR207     -0.2863
    152  CB        28.7510   -3.7280    6.9500 C.3   207  THR207      0.1794
    153  OG1       29.8830   -2.8830    6.6860 O.3   207  THR207     -0.2208
    154  CG2       28.5530   -3.8760    8.4630 C.3   207  THR207      0.0378
    155  N         30.9580   -8.6220    4.7800 N.3   210  LEU210     -0.1245
    156  CA        31.7620   -7.9230    3.7910 C.3   210  LEU210      0.1561
    157  C         33.1590   -7.5800    4.3060 C.2   210  LEU210      0.2260
    158  O         34.1540   -7.7490    3.5980 O.2   210  LEU210     -0.2867
    159  CB        31.0340   -6.6440    3.3600 C.3   210  LEU210      0.0270
    160  CG        31.7080   -5.7820    2.2940 C.3   210  LEU210      0.0019
    161  CD1       32.1770   -6.6150    1.1050 C.3   210  LEU210      0.0001
    162  CD2       30.7470   -4.6870    1.8560 C.3   210  LEU210      0.0001
    163  N         35.3670    2.5950   10.7560 N.3   225  MET225     -0.1245
    164  CA        34.4990    1.5390   10.2550 C.3   225  MET225      0.1570
    165  C         34.9350    0.2000   10.8410 C.2   225  MET225      0.2261
    166  O         34.2750   -0.3280   11.7390 O.2   225  MET225     -0.2867
    167  CB        34.5230    1.4950    8.7160 C.3   225  MET225      0.0387
    168  CG        33.7730    2.6250    8.0400 C.3   225  MET225      0.0595
    169  SD        32.0790    2.7560    8.6520 S.3   225  MET225     -0.1393
    170  CE        32.2590    3.8220   10.0890 C.3   225  MET225      0.0692
    171  N         32.7390   -2.1070   13.1020 N.3   229  ILE229     -0.1245
    172  CA        32.1540   -3.2800   12.4920 C.3   229  ILE229      0.1561
    173  C         32.6280   -4.5630   13.1390 C.2   229  ILE229      0.2260
    174  O         31.8340   -5.4700   13.3490 O.2   229  ILE229     -0.2867
    175  CB        32.4330   -3.2990   10.9850 C.3   229  ILE229      0.0252
    176  CG1       31.6460   -2.1660   10.3210 C.3   229  ILE229      0.0019
    177  CG2       32.0140   -4.6270   10.3690 C.3   229  ILE229      0.0019
    178  CD1       32.2280   -1.6910    9.0080 C.3   229  ILE229      0.0001
@<TRIPOS>BOND
     1     1     2    1
     2   113   114    1
     3     8     6    1
     4   115   114    1
     5   115   116    2
     6   114   117    1
     7     2     5    1
     8     2     3    1
     9   109   111   ar
    10   109   107   ar
    11   111   112   ar
    12     5     6    1
    13     6     7    1
    14   117   118    1
    15     3     4    2
    16   102   103    1
    17    94    93    2
    18   106   107    1
    19   106   103    1
    20   107   108   ar
    21    15    14    1
    22     9    10    1
    23   112   110   ar
    24    14    16    1
    25    14    13    1
    26   118   119    1
    27   103   104    1
    28   104   105    2
    29   119   120    1
    30    93    92    1
    31   147   145   ar
    32   147   146   ar
    33    13    10    1
    34   145   143   ar
    35    10    11    1
    36   108   110   ar
    37   161   160    1
    38    32    30    1
    39    89    90    1
    40    89    88    1
    41    95    92    1
    42    95    96    1
    43    92    91    1
    44   146   144   ar
    45   162   160    1
    46   143   142   ar
    47   128   127    1
    48   123   124    2
    49   123   122    1
    50    11    17   am
    51    11    12    2
    52    29    30    1
    53    29    26    1
    54    17    18    1
    55   160   159    1
    56    31    30    1
    57    86    85    2
    58    88    87    1
    59    97    98    1
    60    97    96    1
    61   125   122    1
    62   125   126    1
    63   121   122    1
    64    98    99    2
    65    25    26    1
    66    24    22   am
    67   144   142   ar
    68   142   141    1
    69    26    27    1
    70   127   126    1
    71   159   156    1
    72    21    22    1
    73    21    18    1
    74    22    23    2
    75    18    19    1
    76    85    84    1
    77   158   157    2
    78   101    99    1
    79    99   100    1
    80    19    20    2
    81   156   157    1
    82   156   155    1
    83    87    84    1
    84    84    83    1
    85   141   138    1
    86    27    33   am
    87    27    28    2
    88   136   134    1
    89   140   139    2
    90    33    34    1
    91   138   139    1
    92   138   137    1
    93    45    43   am
    94   139   148   am
    95   134   135    1
    96   134   133    1
    97   148   149    1
    98    79    78    2
    99    42    43    1
   100    42    41    1
   101   149   152    1
   102   149   150    1
   103    34    35    1
   104    43    44    2
   105   153   152    1
   106   151   150    2
   107    71    70    2
   108   130   133    1
   109   130   129    1
   110   130   131    1
   111    81    80    1
   112   152   154    1
   113    77    78    1
   114    77    80    1
   115    77    76    1
   116    82    80    1
   117   132   131    2
   118    35    36    2
   119    37    38    1
   120    41    38    1
   121    70    76   am
   122    70    69    1
   123    74    75    1
   124    74    73    1
   125   168   169    1
   126   168   167    1
   127    38    39    1
   128    66    67    1
   129    66    65    1
   130    72    69    1
   131    72    73    1
   132   169   170    1
   133    69    68    1
   134   167   164    1
   135   178   176    1
   136    57    59   ar
   137    57    55   ar
   138    39    40    2
   139    63    62    2
   140    59    58   ar
   141    65    64    1
   142   164   163    1
   143   164   165    1
   144   176   175    1
   145   177   175    1
   146    55    54   ar
   147    55    53   ar
   148    54    52   ar
   149    62    61    1
   150    58    56   ar
   151   165   166    2
   152    64    61    1
   153   175   172    1
   154    61    60    1
   155    49    48    2
   156    53    56   ar
   157    53    51   ar
   158    52    51   ar
   159    60    48   am
   160    48    47    1
   161   172   171    1
   162   172   173    1
   163    51    50    1
   164   173   174    2
   165    47    50    1
   166    47    46    1
