@<TRIPOS>MOLECULE
tmp/5t8kA01.pdb
 122 115 0 0 0
SMALL
GASTEIGER

@<TRIPOS>ATOM
      1  N         65.3860   35.3930  208.3460 N.3    50  LEU50      -0.1231
      2  CA        65.0080   34.9870  207.0040 C.3    50  LEU50       0.1693
      3  C         65.0620   33.4520  206.8800 C.2    50  LEU50       0.2592
      4  O         66.0440   32.8160  207.2860 O.2    50  LEU50      -0.2718
      5  CB        65.9580   35.6930  206.0050 C.3    50  LEU50       0.0284
      6  CG        65.6650   35.6840  204.5000 C.3    50  LEU50       0.0019
      7  CD1       66.3760   36.8220  203.7690 C.3    50  LEU50       0.0001
      8  CD2       66.0360   34.3520  203.8840 C.3    50  LEU50       0.0001
      9  N         63.9790   32.8760  206.3550 N.am   51  HIS51      -0.1976
     10  CA        63.8290   31.4230  206.1580 C.3    51  HIS51       0.1656
     11  C         65.1700   30.7630  205.9310 C.2    51  HIS51       0.2291
     12  O         65.8130   31.0060  204.8920 O.2    51  HIS51      -0.2864
     13  CB        62.9620   31.1300  204.9310 C.3    51  HIS51       0.0771
     14  CG        61.7290   31.9600  204.8380 C.ar   51  HIS51       0.0820
     15  ND1       60.6360   31.7650  205.6500 N.ar   51  HIS51      -0.2267
     16  CD2       61.4070   32.9830  204.0130 C.ar   51  HIS51       0.1154
     17  CE1       59.6920   32.6330  205.3320 C.ar   51  HIS51       0.1986
     18  NE2       60.1340   33.3850  204.3420 N.ar   51  HIS51      -0.2212
     19  N         67.0190   28.1580  204.6410 N.3    53  THR53      -0.1218
     20  CA        67.0620   27.0440  203.6980 C.3    53  THR53       0.1862
     21  C         68.5090   26.8830  203.2500 C.2    53  THR53       0.2287
     22  O         69.3780   27.6770  203.6080 O.2    53  THR53      -0.2866
     23  CB        66.1660   27.3120  202.4530 C.3    53  THR53       0.1770
     24  OG1       66.6870   28.4090  201.6920 O.3    53  THR53      -0.2211
     25  CG2       64.7350   27.6290  202.8750 C.3    53  THR53       0.0375
     26  N         69.7030   27.5680  200.4530 N.3    55  GLU55      -0.1231
     27  CA        70.0460   28.7900  199.7220 C.3    55  GLU55       0.1699
     28  C         70.4920   29.8970  200.6870 C.2    55  GLU55       0.2592
     29  O         71.4580   30.6200  200.4280 O.2    55  GLU55      -0.2718
     30  CB        68.8680   29.2690  198.8680 C.3    55  GLU55       0.0402
     31  CG        68.4310   28.3010  197.7710 C.3    55  GLU55       0.1161
     32  CD        67.7320   27.0560  198.2910 C.2    55  GLU55       0.3649
     33  OE1       67.0510   27.1320  199.3430 O.co2  55  GLU55      -0.2457
     34  OE2       67.8270   25.9970  197.6310 O.co2  55  GLU55      -0.2457
     35  N         69.7940   30.0050  201.8120 N.am   56  THR56      -0.1953
     36  CA        70.1340   30.9910  202.8370 C.3    56  THR56       0.1897
     37  C         71.4870   30.6910  203.4720 C.2    56  THR56       0.2313
     38  O         72.2310   31.6130  203.8380 O.2    56  THR56      -0.2863
     39  CB        69.0380   31.0290  203.9170 C.3    56  THR56       0.1794
     40  OG1       67.7810   31.2760  203.2780 O.3    56  THR56      -0.2208
     41  CG2       69.3120   32.0990  204.9530 C.3    56  THR56       0.0378
     42  N         63.2470   39.6410  206.5130 N.3   133  ASP133     -0.1239
     43  CA        62.2970   39.1130  205.5270 C.3   133  ASP133      0.1674
     44  C         60.9430   39.0380  206.2300 C.2   133  ASP133      0.2266
     45  O         60.6870   38.1310  207.0250 O.2   133  ASP133     -0.2867
     46  CB        62.7790   37.7460  205.0690 C.3   133  ASP133      0.1410
     47  CG        61.9300   37.1360  203.9690 C.2   133  ASP133      0.3668
     48  OD1       60.7600   37.5210  203.7710 O.co2 133  ASP133     -0.2456
     49  OD2       62.4590   36.2270  203.2980 O.co2 133  ASP133     -0.2456
     50  N         63.6640   41.9850  202.4460 N.3   207  GLU207     -0.1245
     51  CA        63.4550   41.0400  201.3490 C.3   207  GLU207      0.1567
     52  C         62.0970   40.9780  200.6560 C.2   207  GLU207      0.2260
     53  O         62.0550   40.7920  199.4450 O.2   207  GLU207     -0.2867
     54  CB        63.6980   39.6360  201.9320 C.3   207  GLU207      0.0388
     55  CG        63.7220   38.4690  200.9630 C.3   207  GLU207      0.1160
     56  CD        64.9760   38.3920  200.1110 C.2   207  GLU207      0.3649
     57  OE1       65.0380   37.4640  199.2810 O.co2 207  GLU207     -0.2457
     58  OE2       65.8860   39.2280  200.2700 O.co2 207  GLU207     -0.2457
     59  N         62.2710   36.1890  191.7590 N.3   241  ASP241     -0.1239
     60  CA        61.8610   35.5240  192.9940 C.3   241  ASP241      0.1674
     61  C         60.3320   35.4860  193.1330 C.2   241  ASP241      0.2266
     62  O         59.7280   34.4140  193.1540 O.2   241  ASP241     -0.2867
     63  CB        62.4910   36.3010  194.1550 C.3   241  ASP241      0.1410
     64  CG        62.1470   35.7590  195.5470 C.2   241  ASP241      0.3668
     65  OD1       60.9510   35.5740  195.8860 O.co2 241  ASP241     -0.2456
     66  OD2       63.1110   35.6030  196.3390 O.co2 241  ASP241     -0.2456
     67  N         54.8610   27.2450  200.1100 N.3   399  ASN399     -0.1225
     68  CA        56.0300   26.8130  199.3740 C.3   399  ASN399      0.1785
     69  C         57.1560   26.4680  200.3300 C.2   399  ASN399      0.2597
     70  O         57.9230   25.5600  200.0530 O.2   399  ASN399     -0.2718
     71  CB        56.4720   27.8230  198.3090 C.3   399  ASN399      0.1169
     72  CG        56.7960   29.2000  198.8780 C.2   399  ASN399      0.2627
     73  OD1       56.2160   29.6300  199.8790 O.2   399  ASN399     -0.2716
     74  ND2       57.7150   29.9110  198.2180 N.am  399  ASN399     -0.0877
     75  N         57.2430   27.1810  201.4530 N.am  400  LEU400     -0.1980
     76  CA        58.2740   26.9290  202.4640 C.3   400  LEU400      0.1596
     77  C         57.8030   25.9920  203.5820 C.2   400  LEU400      0.2287
     78  O         58.6200   25.3000  204.2030 O.2   400  LEU400     -0.2864
     79  CB        58.7570   28.2490  203.0540 C.3   400  LEU400      0.0297
     80  CG        59.6700   29.0130  202.0990 C.3   400  LEU400      0.0022
     81  CD1       59.5700   30.5100  202.3130 C.3   400  LEU400      0.0001
     82  CD2       61.1060   28.5150  202.2430 C.3   400  LEU400      0.0001
     83  N         60.3470   23.3450  200.0550 N.3   404  THR404     -0.1203
     84  CA        61.5960   23.9560  200.4870 C.3   404  THR404      0.1994
     85  C         61.8410   25.3630  199.9380 C.2   404  THR404      0.2618
     86  O         62.9900   25.8340  199.9320 O.2   404  THR404     -0.2717
     87  CB        62.7960   23.0470  200.1300 C.3   404  THR404      0.1784
     88  OG1       62.9430   22.9810  198.7020 O.3   404  THR404     -0.2211
     89  CG2       62.5970   21.6340  200.7010 C.3   404  THR404      0.0376
     90  N         60.7920   26.0340  199.4860 N.am  405  GLY405     -0.1942
     91  CA        60.9350   27.3900  198.9920 C.3   405  GLY405      0.2014
     92  C         61.4800   27.4120  197.5840 C.2   405  GLY405      0.2638
     93  O         61.5360   26.3660  196.9110 O.2   405  GLY405     -0.2714
     94  N         61.8990   28.5930  197.1450 N.am  406  HIS406     -0.1973
     95  CA        62.3920   28.7670  195.7920 C.3   406  HIS406      0.1656
     96  C         63.7180   28.0610  195.5650 C.2   406  HIS406      0.2291
     97  O         64.4780   27.8100  196.5150 O.2   406  HIS406     -0.2864
     98  CB        62.6240   30.2450  195.4430 C.3   406  HIS406      0.0771
     99  CG        61.4510   31.1520  195.6670 C.ar  406  HIS406      0.0820
    100  ND1       60.1430   30.7240  195.6490 N.ar  406  HIS406     -0.2267
    101  CD2       61.4010   32.4980  195.7860 C.ar  406  HIS406      0.1154
    102  CE1       59.3410   31.7580  195.8200 C.ar  406  HIS406      0.1986
    103  NE2       60.0830   32.8470  195.9050 N.ar  406  HIS406     -0.2212
    104  N         67.0620   32.4570  194.1510 N.3   411  MET411     -0.1245
    105  CA        67.4780   32.8910  195.4900 C.3   411  MET411      0.1570
    106  C         68.8470   33.5770  195.4150 C.2   411  MET411      0.2261
    107  O         69.0980   34.5350  196.1450 O.2   411  MET411     -0.2867
    108  CB        67.4600   31.7440  196.4960 C.3   411  MET411      0.0387
    109  CG        66.0610   31.2050  196.7650 C.3   411  MET411      0.0595
    110  SD        64.8320   32.4950  197.0670 S.3   411  MET411     -0.1393
    111  CE        65.5010   33.3190  198.5080 C.3   411  MET411      0.0692
    112  N         69.4850   37.1200  196.8160 N.3   415  PHE415     -0.1241
    113  CA        70.5460   37.2200  197.8110 C.3   415  PHE415      0.1605
    114  C         71.7900   37.9930  197.3930 C.2   415  PHE415      0.2264
    115  O         72.4910   38.5160  198.2540 O.2   415  PHE415     -0.2867
    116  CB        70.9080   35.8450  198.3820 C.3   415  PHE415      0.0534
    117  CG        69.7940   35.1820  199.1430 C.ar  415  PHE415     -0.0203
    118  CD1       68.7500   35.9160  199.7120 C.ar  415  PHE415     -0.0042
    119  CD2       69.8550   33.8210  199.4080 C.ar  415  PHE415     -0.0042
    120  CE1       67.7580   35.2820  200.4550 C.ar  415  PHE415     -0.0003
    121  CE2       68.8790   33.1960  200.1650 C.ar  415  PHE415     -0.0003
    122  CZ        67.8300   33.9180  200.6760 C.ar  415  PHE415     -0.0000
@<TRIPOS>BOND
     1    59    60    1
     2    60    61    1
     3    60    63    1
     4    61    62    2
     5   104   105    1
     6    63    64    1
     7   106   105    1
     8   106   107    2
     9    98    99    1
    10    98    95    1
    11   105   108    1
    12    64    65   ar
    13    64    66   ar
    14    96    95    1
    15    96    97    2
    16   100    99   ar
    17   100   102   ar
    18    99   101   ar
    19   101   103   ar
    20    95    94    1
    21   102   103   ar
    22   108   109    1
    23   109   110    1
    24   112   113    1
    25    93    92    2
    26   110   111    1
    27    94    92   am
    28   114   113    1
    29   114   115    2
    30    92    91    1
    31    34    32   ar
    32    31    32    1
    33    31    30    1
    34   113   116    1
    35    74    72   am
    36    32    33   ar
    37    71    72    1
    38    71    68    1
    39   116   117    1
    40    88    87    1
    41    30    27    1
    42    72    73    2
    43    91    90    1
    44   117   119   ar
    45   117   118   ar
    46    57    56   ar
    47    68    67    1
    48    68    69    1
    49   119   121   ar
    50    53    52    2
    51    90    85   am
    52   118   120   ar
    53    27    26    1
    54    27    28    1
    55    86    85    2
    56    85    84    1
    57    70    69    2
    58    83    84    1
    59    56    58   ar
    60    56    55    1
    61    87    84    1
    62    87    89    1
    63   121   122   ar
    64    69    75   am
    65    29    28    2
    66   120   122   ar
    67    52    51    1
    68    28    35   am
    69    55    54    1
    70    51    54    1
    71    51    50    1
    72    75    76    1
    73    24    23    1
    74    35    36    1
    75    80    82    1
    76    80    81    1
    77    80    79    1
    78    23    25    1
    79    23    20    1
    80    76    79    1
    81    76    77    1
    82    36    37    1
    83    36    39    1
    84    21    22    2
    85    21    20    1
    86    40    39    1
    87    49    47   ar
    88    37    38    2
    89    77    78    2
    90    20    19    1
    91     7     6    1
    92    48    47   ar
    93     8     6    1
    94    39    41    1
    95    47    46    1
    96    16    18   ar
    97    16    14   ar
    98    18    17   ar
    99     6     5    1
   100    14    13    1
   101    14    15   ar
   102    12    11    2
   103    13    10    1
   104    46    43    1
   105    17    15   ar
   106    43    44    1
   107    43    42    1
   108    11    10    1
   109     5     2    1
   110    10     9    1
   111    44    45    2
   112     9     3   am
   113     3     2    1
   114     3     4    2
   115     2     1    1
