@<TRIPOS>MOLECULE
tmp/5t8oA00.pdb
 198 184 0 0 0
SMALL
GASTEIGER

@<TRIPOS>ATOM
      1  N         39.2400   10.4370   -2.6250 N.3    63  ARG63      -0.1231
      2  CA        40.6400   10.7910   -2.3790 C.3    63  ARG63       0.1694
      3  C         40.8360   11.3700   -0.9830 C.2    63  ARG63       0.2593
      4  O         39.9000   11.7320   -0.3000 O.2    63  ARG63      -0.2718
      5  CB        41.1470   11.7640   -3.4490 C.3    63  ARG63       0.0321
      6  CG        41.6790   11.0890   -4.7050 C.3    63  ARG63       0.0489
      7  CD        41.3660   11.8690   -5.9830 C.3    63  ARG63       0.2205
      8  NE        41.9400   11.2000   -7.1650 N.pl3  63  ARG63      -0.0865
      9  CZ        41.5070   11.3120   -8.4310 C.cat  63  ARG63       0.5346
     10  NH1       42.1390   10.6340   -9.3900 N.pl3  63  ARG63       0.1354
     11  NH2       40.4550   12.0810   -8.7590 N.pl3  63  ARG63       0.1354
     12  N         42.0920   11.4340   -0.5790 N.am   64  GLY64      -0.1942
     13  CA        42.5010   11.8130    0.7700 C.3    64  GLY64       0.2014
     14  C         42.7350   10.5750    1.6110 C.2    64  GLY64       0.2639
     15  O         42.4930    9.4660    1.1620 O.2    64  GLY64      -0.2714
     16  N         43.2020   10.7790    2.8380 N.am   65  SER65      -0.1949
     17  CA        43.5120    9.6950    3.7690 C.3    65  SER65       0.1924
     18  C         42.2960    8.9040    4.2160 C.2    65  SER65       0.2314
     19  O         42.4180    7.7400    4.5360 O.2    65  SER65      -0.2863
     20  CB        44.1720   10.2520    5.0220 C.3    65  SER65       0.2116
     21  OG        45.2810   11.0270    4.6650 O.3    65  SER65      -0.2180
     22  N         37.8430   11.2860    1.7370 N.3    68  GLU68      -0.1231
     23  CA        36.9190   12.3340    2.1620 C.3    68  GLU68       0.1699
     24  C         36.9160   13.5280    1.2180 C.2    68  GLU68       0.2592
     25  O         36.2940   14.5450    1.4970 O.2    68  GLU68      -0.2718
     26  CB        37.2540   12.7910    3.6050 C.3    68  GLU68       0.0402
     27  CG        38.4180   13.7770    3.7810 C.3    68  GLU68       0.1161
     28  CD        39.8210   13.1550    3.8030 C.2    68  GLU68       0.3649
     29  OE1       40.0460   12.0360    3.2720 O.co2  68  GLU68      -0.2457
     30  OE2       40.7170   13.8180    4.3600 O.co2  68  GLU68      -0.2457
     31  N         37.6290   13.4180    0.1130 N.am   69  VAL69      -0.1980
     32  CA        37.7450   14.5060   -0.8420 C.3    69  VAL69       0.1595
     33  C         37.2380   13.9570   -2.1480 C.2    69  VAL69       0.2287
     34  O         37.6310   12.8700   -2.5570 O.2    69  VAL69      -0.2864
     35  CB        39.1980   14.9840   -0.9970 C.3    69  VAL69       0.0276
     36  CG1       39.3030   16.0240   -2.1170 C.3    69  VAL69       0.0022
     37  CG2       39.6850   15.5630    0.3220 C.3    69  VAL69       0.0022
     38  N         36.7700   20.7740   -5.9540 N.3    82  ALA82      -0.1245
     39  CA        36.9820   19.6760   -5.0240 C.3    82  ALA82       0.1562
     40  C         36.2660   19.9960   -3.7320 C.2    82  ALA82       0.2260
     41  O         36.1630   21.1670   -3.3440 O.2    82  ALA82      -0.2867
     42  CB        38.4760   19.4600   -4.7700 C.3    82  ALA82       0.0290
     43  N         36.0730   18.8000    0.4040 N.3    84  LYS84      -0.1245
     44  CA        36.5220   17.9990    1.5300 C.3    84  LYS84       0.1561
     45  C         35.3980   17.9430    2.5750 C.2    84  LYS84       0.2260
     46  O         34.8910   18.9990    3.0030 O.2    84  LYS84      -0.2867
     47  CB        37.8080   18.5810    2.1530 C.3    84  LYS84       0.0271
     48  CG        38.4930   17.6160    3.1090 C.3    84  LYS84       0.0035
     49  CD        39.2270   18.2660    4.2530 C.3    84  LYS84       0.0206
     50  CE        39.8260   17.1640    5.1110 C.3    84  LYS84       0.1093
     51  NZ        40.7230   17.6170    6.2020 N.3    84  LYS84      -0.1314
     52  N         41.5390   25.0280   10.4170 N.3    95  GLU95      -0.1231
     53  CA        41.6130   24.5040    9.0570 C.3    95  GLU95       0.1699
     54  C         41.2000   25.5640    8.0190 C.2    95  GLU95       0.2592
     55  O         41.8340   25.6780    6.9720 O.2    95  GLU95      -0.2718
     56  CB        40.8100   23.2140    8.9180 C.3    95  GLU95       0.0402
     57  CG        40.9000   22.5780    7.5370 C.3    95  GLU95       0.1161
     58  CD        40.5390   21.0900    7.4830 C.2    95  GLU95       0.3649
     59  OE1       40.0720   20.5180    8.4920 O.co2  95  GLU95      -0.2457
     60  OE2       40.7170   20.4870    6.4030 O.co2  95  GLU95      -0.2457
     61  N         40.1900   26.3650    8.3180 N.am   96  LEU96      -0.1980
     62  CA        39.7910   27.4280    7.3980 C.3    96  LEU96       0.1596
     63  C         40.6830   28.6500    7.5050 C.2    96  LEU96       0.2287
     64  O         41.0350   29.2450    6.4760 O.2    96  LEU96      -0.2864
     65  CB        38.3100   27.8020    7.5850 C.3    96  LEU96       0.0297
     66  CG        37.3530   26.6500    7.2240 C.3    96  LEU96       0.0022
     67  CD1       35.9020   27.0720    7.3150 C.3    96  LEU96       0.0001
     68  CD2       37.6460   26.0890    5.8310 C.3    96  LEU96       0.0001
     69  N         43.7330   28.7410    5.3240 N.3    99  CYS99      -0.1235
     70  CA        43.5680   28.9280    3.8750 C.3    99  CYS99       0.1677
     71  C         42.5290   29.9820    3.4420 C.2    99  CYS99       0.2270
     72  O         42.3250   30.1530    2.2410 O.2    99  CYS99      -0.2867
     73  CB        43.2630   27.5810    3.2160 C.3    99  CYS99       0.0956
     74  SG        41.6870   26.8650    3.7370 S.3    99  CYS99      -0.0801
     75  N         46.5230   26.0090   -1.3320 N.3   108  VAL108     -0.1245
     76  CA        45.3880   25.6270   -2.1760 C.3   108  VAL108      0.1561
     77  C         44.2950   26.6900   -2.0610 C.2   108  VAL108      0.2260
     78  O         43.9590   27.0970   -0.9570 O.2   108  VAL108     -0.2867
     79  CB        44.8350   24.2310   -1.8060 C.3   108  VAL108      0.0252
     80  CG1       44.2520   24.2040   -0.3960 C.3   108  VAL108      0.0019
     81  CG2       43.7950   23.7760   -2.8230 C.3   108  VAL108      0.0019
     82  N         40.8990   28.4440   -1.4860 N.3   110  LEU110     -0.1245
     83  CA        39.6370   28.1290   -0.8130 C.3   110  LEU110      0.1561
     84  C         38.4800   28.8260   -1.5050 C.2   110  LEU110      0.2260
     85  O         38.5040   30.0300   -1.6770 O.2   110  LEU110     -0.2867
     86  CB        39.6900   28.5910    0.6350 C.3   110  LEU110      0.0270
     87  CG        38.4440   28.3410    1.4780 C.3   110  LEU110      0.0019
     88  CD1       38.3150   26.8580    1.7800 C.3   110  LEU110      0.0001
     89  CD2       38.5190   29.1600    2.7580 C.3   110  LEU110      0.0001
     90  N         33.9930   21.6240    2.5790 N.3   122  ILE122     -0.1245
     91  CA        34.9640   22.6810    2.3360 C.3   122  ILE122      0.1561
     92  C         35.3370   22.6340    0.8540 C.2   122  ILE122      0.2260
     93  O         35.8490   21.6270    0.3870 O.2   122  ILE122     -0.2867
     94  CB        36.2070   22.4930    3.2220 C.3   122  ILE122      0.0252
     95  CG1       35.8130   22.5920    4.7020 C.3   122  ILE122      0.0019
     96  CG2       37.2700   23.5360    2.8940 C.3   122  ILE122      0.0019
     97  CD1       36.9310   22.2490    5.6700 C.3   122  ILE122      0.0001
     98  N         37.2160   23.8950   -2.6620 N.3   124  MET124     -0.1230
     99  CA        38.5040   24.4510   -3.0570 C.3   124  MET124      0.1702
    100  C         38.8080   24.1820   -4.5150 C.2   124  MET124      0.2592
    101  O         38.1700   23.3500   -5.1400 O.2   124  MET124     -0.2718
    102  CB        39.6140   23.9030   -2.1470 C.3   124  MET124      0.0401
    103  CG        39.8100   22.4140   -2.2190 C.3   124  MET124      0.0596
    104  SD        40.6460   21.7610   -0.7580 S.3   124  MET124     -0.1393
    105  CE        39.8600   20.1440   -0.8060 C.3   124  MET124      0.0692
    106  N         39.7910   24.9020   -5.0420 N.am  125  GLU125     -0.1966
    107  CA        40.1880   24.7450   -6.4260 C.3   125  GLU125      0.1733
    108  C         40.7360   23.3520   -6.6920 C.2   125  GLU125      0.2616
    109  O         41.4110   22.7590   -5.8630 O.2   125  GLU125     -0.2715
    110  CB        41.2230   25.7820   -6.8360 C.3   125  GLU125      0.0429
    111  CG        41.5170   25.8040   -8.3320 C.3   125  GLU125      0.1163
    112  CD        42.3960   26.9730   -8.7270 C.2   125  GLU125      0.3649
    113  OE1       43.6350   26.7690   -8.8220 O.co2 125  GLU125     -0.2457
    114  OE2       41.8510   28.0950   -8.9040 O.co2 125  GLU125     -0.2457
    115  N         40.4370   22.8670   -7.8830 N.am  126  LEU126     -0.1963
    116  CA        40.7940   21.5350   -8.3300 C.3   126  LEU126      0.1728
    117  C         42.1980   21.5700   -8.9380 C.2   126  LEU126      0.2616
    118  O         42.4010   22.1790   -9.9820 O.2   126  LEU126     -0.2715
    119  CB        39.7620   21.1240   -9.3730 C.3   126  LEU126      0.0311
    120  CG        39.3820   19.6860   -9.6500 C.3   126  LEU126      0.0022
    121  CD1       39.1410   18.8880   -8.3820 C.3   126  LEU126      0.0001
    122  CD2       38.1170   19.7570  -10.5060 C.3   126  LEU126      0.0001
    123  N         43.1640   20.9660   -8.2480 N.am  127  LEU127     -0.1977
    124  CA        44.5180   20.7440   -8.7760 C.3   127  LEU127      0.1596
    125  C         44.6350   19.3220   -9.3750 C.2   127  LEU127      0.2287
    126  O         44.4860   18.3230   -8.6650 O.2   127  LEU127     -0.2864
    127  CB        45.5520   20.9660   -7.6760 C.3   127  LEU127      0.0297
    128  CG        45.8890   22.4380   -7.3980 C.3   127  LEU127      0.0022
    129  CD1       44.8660   23.1010   -6.5020 C.3   127  LEU127      0.0001
    130  CD2       47.2410   22.5540   -6.7280 C.3   127  LEU127      0.0001
    131  N         47.4430   15.5960   -9.0380 N.3   130  GLY130     -0.1210
    132  CA        47.4770   14.6450   -7.9350 C.3   130  GLY130      0.1956
    133  C         48.3880   15.1740   -6.8500 C.2   130  GLY130      0.2612
    134  O         48.9190   16.2840   -6.9640 O.2   130  GLY130     -0.2717
    135  N         48.5540   14.3850   -5.7940 N.am  131  SER131     -0.1952
    136  CA        49.3720   14.7860   -4.6670 C.3   131  SER131      0.1924
    137  C         50.8320   14.4370   -4.9510 C.2   131  SER131      0.2314
    138  O         51.1410   13.6070   -5.8190 O.2   131  SER131     -0.2863
    139  CB        48.9030   14.1050   -3.3830 C.3   131  SER131      0.2116
    140  OG        49.2050   12.7230   -3.4140 O.3   131  SER131     -0.2180
    141  N         51.1680   10.6350   -4.1410 N.3   134  GLN134     -0.1245
    142  CA        50.8560    9.8260   -5.3260 C.3   134  GLN134      0.1566
    143  C         51.9690    9.8100   -6.3640 C.2   134  GLN134      0.2260
    144  O         52.2400    8.7550   -6.9440 O.2   134  GLN134     -0.2867
    145  CB        49.5270   10.2440   -5.9740 C.3   134  GLN134      0.0367
    146  CG        48.3750    9.2980   -5.6380 C.3   134  GLN134      0.0905
    147  CD        46.9870    9.9010   -5.8350 C.2   134  GLN134      0.2608
    148  OE1       45.9700    9.1720   -5.7790 O.2   134  GLN134     -0.2717
    149  NE2       46.9160   11.2310   -6.0470 N.am  134  GLN134     -0.0878
    150  N         51.6510   13.6630    0.9070 N.3   174  ASP174     -0.1225
    151  CA        50.1820   13.4850    0.7680 C.3   174  ASP174      0.1805
    152  C         49.3950   14.7850    0.8800 C.2   174  ASP174      0.2597
    153  O         48.2620   14.8440    0.4060 O.2   174  ASP174     -0.2718
    154  CB        49.6310   12.5010    1.8170 C.3   174  ASP174      0.1424
    155  CG        49.9800   11.0320    1.5260 C.2   174  ASP174      0.3668
    156  OD1       50.3000   10.6680    0.3610 O.co2 174  ASP174     -0.2456
    157  OD2       49.9100   10.2210    2.4800 O.co2 174  ASP174     -0.2456
    158  N         49.9720   15.8020    1.5190 N.am  175  ASN175     -0.1974
    159  CA        49.3290   17.1150    1.6870 C.3   175  ASN175      0.1688
    160  C         49.9780   18.2270    0.8530 C.2   175  ASN175      0.2292
    161  O         49.9360   19.4060    1.2300 O.2   175  ASN175     -0.2864
    162  CB        49.3670   17.5310    3.1690 C.3   175  ASN175      0.1181
    163  CG        48.6720   16.5460    4.0860 C.2   175  ASN175      0.2629
    164  OD1       47.9040   15.6810    3.6500 O.2   175  ASN175     -0.2716
    165  ND2       48.9350   16.6820    5.3840 N.am  175  ASN175     -0.0877
    166  N         49.7470   19.3580   -3.1490 N.3   177  LEU177     -0.1245
    167  CA        48.9890   19.1080   -4.3680 C.3   177  LEU177      0.1561
    168  C         49.7560   19.6890   -5.5440 C.2   177  LEU177      0.2260
    169  O         50.2640   20.7900   -5.4330 O.2   177  LEU177     -0.2867
    170  CB        47.6170   19.7960   -4.2870 C.3   177  LEU177      0.0270
    171  CG        46.6650   19.4470   -3.1390 C.3   177  LEU177      0.0019
    172  CD1       45.3620   20.2100   -3.3220 C.3   177  LEU177      0.0001
    173  CD2       46.3760   17.9510   -3.0560 C.3   177  LEU177      0.0001
    174  N         48.0160   21.6200    1.2020 N.3   188  CYS188     -0.1221
    175  CA        46.6390   21.3700    1.5960 C.3   188  CYS188      0.1808
    176  C         46.5590   20.6620    2.9630 C.2   188  CYS188      0.2601
    177  O         47.5650   20.5110    3.6690 O.2   188  CYS188     -0.2717
    178  CB        45.9090   20.5720    0.5030 C.3   188  CYS188      0.0970
    179  SG        46.3550   18.8220    0.3770 S.3   188  CYS188     -0.0800
    180  N         45.3290   20.3060    3.3300 N.am  189  ASP189     -0.1959
    181  CA        45.0050   19.4870    4.5030 C.3   189  ASP189      0.1840
    182  C         45.5080   20.1920    5.7760 C.2   189  ASP189      0.2622
    183  O         46.4720   19.7560    6.3980 O.2   189  ASP189     -0.2715
    184  CB        45.5870   18.0600    4.3310 C.3   189  ASP189      0.1450
    185  CG        44.7220   16.9480    4.9590 C.2   189  ASP189      0.3671
    186  OD1       43.6690   17.2300    5.5770 O.co2 189  ASP189     -0.2456
    187  OD2       45.1020   15.7640    4.7790 O.co2 189  ASP189     -0.2456
    188  N         44.8500   21.2940    6.1280 N.am  190  PHE190     -0.1974
    189  CA        45.2160   22.0980    7.2940 C.3   190  PHE190      0.1639
    190  C         44.4550   21.6950    8.5640 C.2   190  PHE190      0.2290
    191  O         44.2970   22.5120    9.4710 O.2   190  PHE190     -0.2864
    192  CB        45.0130   23.6010    7.0130 C.3   190  PHE190      0.0560
    193  CG        45.7370   24.0870    5.7890 C.ar  190  PHE190     -0.0200
    194  CD1       47.1020   24.3250    5.8220 C.ar  190  PHE190     -0.0042
    195  CD2       45.0550   24.2880    4.5890 C.ar  190  PHE190     -0.0042
    196  CE1       47.7730   24.7530    4.6920 C.ar  190  PHE190     -0.0003
    197  CE2       45.7240   24.7110    3.4600 C.ar  190  PHE190     -0.0003
    198  CZ        47.0850   24.9410    3.5090 C.ar  190  PHE190     -0.0000
@<TRIPOS>BOND
     1   122   120    1
     2   118   117    2
     3   120   119    1
     4   120   121    1
     5    10     9    1
     6   125   124    1
     7   125   126    2
     8   119   116    1
     9   131   132    1
    10   117   116    1
    11   117   123   am
    12   114   112   ar
    13   113   112   ar
    14   124   123    1
    15   124   127    1
    16    11     9    1
    17   112   111    1
    18     9     8    2
    19   111   110    1
    20   116   115    1
    21   132   133    1
    22   115   108   am
    23   127   128    1
    24   128   130    1
    25   128   129    1
    26     8     7    1
    27   134   133    2
    28   144   143    2
    29   133   135   am
    30   110   107    1
    31   108   107    1
    32   108   109    2
    33   107   106    1
    34   143   142    1
    35   149   147   am
    36     7     6    1
    37   145   146    1
    38   145   142    1
    39    38    39    1
    40   147   148    2
    41   147   146    1
    42   138   137    2
    43   135   136    1
    44   168   169    2
    45   168   167    1
    46   142   141    1
    47   101   100    2
    48   106   100   am
    49    39    42    1
    50    39    40    1
    51   137   136    1
    52     6     5    1
    53   136   139    1
    54   100    99    1
    55   167   170    1
    56   167   166    1
    57   170   171    1
    58    40    41    2
    59     5     2    1
    60   140   139    1
    61   172   171    1
    62   171   173    1
    63    99    98    1
    64    99   102    1
    65    81    79    1
    66     1     2    1
    67    34    33    2
    68     2     3    1
    69   103   102    1
    70   103   104    1
    71    76    77    1
    72    76    79    1
    73    76    75    1
    74    33    32    1
    75    36    35    1
    76    77    78    2
    77    79    80    1
    78    85    84    2
    79    84    83    1
    80    82    83    1
    81    35    32    1
    82    35    37    1
    83     3    12   am
    84     3     4    2
    85    32    31    1
    86    83    86    1
    87   105   104    1
    88    12    13    1
    89    31    24   am
    90   156   155   ar
    91   179   178    1
    92    93    92    2
    93    43    44    1
    94   153   152    2
    95   178   175    1
    96    86    87    1
    97   151   152    1
    98   151   150    1
    99   151   154    1
   100    13    14    1
   101   160   161    2
   102   160   159    1
   103    92    91    1
   104   152   158   am
   105    15    14    2
   106   174   175    1
   107    24    25    2
   108    24    23    1
   109    87    88    1
   110    87    89    1
   111   158   159    1
   112   155   154    1
   113   155   157   ar
   114    44    47    1
   115    44    45    1
   116   175   176    1
   117    14    16   am
   118   159   162    1
   119    22    23    1
   120    47    48    1
   121    23    26    1
   122    72    71    2
   123    91    90    1
   124    91    94    1
   125    45    46    2
   126    16    17    1
   127    96    94    1
   128   176   180   am
   129   176   177    2
   130    48    49    1
   131   162   163    1
   132    73    74    1
   133    73    70    1
   134    94    95    1
   135    29    28   ar
   136   180   181    1
   137    71    70    1
   138   197   198   ar
   139   197   195   ar
   140   198   196   ar
   141    26    27    1
   142   164   163    2
   143    17    18    1
   144    17    20    1
   145    27    28    1
   146    28    30   ar
   147    70    69    1
   148   163   165   am
   149    18    19    2
   150    49    50    1
   151   184   181    1
   152   184   185    1
   153   181   182    1
   154   195   193   ar
   155    21    20    1
   156   196   194   ar
   157    95    97    1
   158   187   185   ar
   159   185   186   ar
   160    50    51    1
   161   182   188   am
   162   182   183    2
   163   193   194   ar
   164   193   192    1
   165    68    66    1
   166   188   189    1
   167    60    58   ar
   168    64    63    2
   169    55    54    2
   170   192   189    1
   171    66    67    1
   172    66    65    1
   173   189   190    1
   174    62    63    1
   175    62    65    1
   176    62    61    1
   177    58    57    1
   178    58    59   ar
   179    57    56    1
   180    54    61   am
   181    54    53    1
   182   190   191    2
   183    56    53    1
   184    53    52    1
