@<TRIPOS>MOLECULE
tmp/5t8pB00.pdb
 135 125 0 0 0
SMALL
GASTEIGER

@<TRIPOS>ATOM
      1  N         52.0040   36.0630   -8.6220 N.3    63  ARG63      -0.1231
      2  CA        51.1130   34.9290   -8.3750 C.3    63  ARG63       0.1694
      3  C         51.3520   34.3810   -6.9760 C.2    63  ARG63       0.2592
      4  O         52.2380   34.8350   -6.2670 O.2    63  ARG63      -0.2718
      5  CB        51.2910   33.8560   -9.4420 C.3    63  ARG63       0.0321
      6  CG        50.4910   34.1430  -10.6980 C.3    63  ARG63       0.0489
      7  CD        50.7270   33.0890  -11.7720 C.3    63  ARG63       0.2205
      8  NE        52.1250   33.0530  -12.2270 N.pl3  63  ARG63      -0.0865
      9  CZ        52.5980   32.2620  -13.1950 C.cat  63  ARG63       0.5346
     10  NH1       53.8900   32.3280  -13.5010 N.pl3  63  ARG63       0.1354
     11  NH2       51.7990   31.4080  -13.8590 N.pl3  63  ARG63       0.1354
     12  N         50.5260   33.4260   -6.5710 N.am   64  GLY64      -0.1957
     13  CA        50.5460   32.8980   -5.1890 C.3    64  GLY64       0.1869
     14  C         49.6840   33.7800   -4.3020 C.2    64  GLY64       0.2309
     15  O         49.2490   34.8440   -4.7120 O.2    64  GLY64      -0.2863
     16  N         53.6860   36.7710   -4.2600 N.3    68  GLU68      -0.1231
     17  CA        55.1190   36.6560   -3.9750 C.3    68  GLU68       0.1699
     18  C         55.8860   35.8360   -5.0050 C.2    68  GLU68       0.2592
     19  O         57.1120   35.7410   -4.9170 O.2    68  GLU68      -0.2718
     20  CB        55.3640   36.0940   -2.5570 C.3    68  GLU68       0.0402
     21  CG        55.2760   34.5710   -2.3950 C.3    68  GLU68       0.1161
     22  CD        53.8640   34.0240   -2.2080 C.2    68  GLU68       0.3649
     23  OE1       52.8770   34.6610   -2.6420 O.co2  68  GLU68      -0.2457
     24  OE2       53.7360   32.9200   -1.6420 O.co2  68  GLU68      -0.2457
     25  N         55.1670   35.2460   -5.9610 N.am   69  VAL69      -0.1980
     26  CA        55.7630   34.4350   -7.0040 C.3    69  VAL69       0.1595
     27  C         55.8000   35.1920   -8.3270 C.2    69  VAL69       0.2287
     28  O         54.7820   35.7200   -8.7820 O.2    69  VAL69      -0.2864
     29  CB        54.9950   33.1200   -7.1850 C.3    69  VAL69       0.0276
     30  CG1       55.6600   32.2700   -8.2680 C.3    69  VAL69       0.0022
     31  CG2       54.9590   32.3700   -5.8540 C.3    69  VAL69       0.0022
     32  N         60.8710   30.7950  -12.2060 N.3    82  ALA82      -0.1245
     33  CA        60.0400   31.4050  -11.1900 C.3    82  ALA82       0.1562
     34  C         60.8700   31.6580   -9.9440 C.2    82  ALA82       0.2260
     35  O         61.7850   30.8990   -9.6380 O.2    82  ALA82      -0.2867
     36  CB        58.8750   30.4940  -10.8600 C.3    82  ALA82       0.0290
     37  N         60.0650   32.5530   -5.7810 N.3    84  LYS84      -0.1245
     38  CA        59.1370   32.7970   -4.6740 C.3    84  LYS84       0.1561
     39  C         59.8550   33.6150   -3.6220 C.2    84  LYS84       0.2260
     40  O         60.8660   33.1840   -3.1110 O.2    84  LYS84      -0.2867
     41  CB        58.6640   31.4700   -4.0830 C.3    84  LYS84       0.0271
     42  CG        57.7020   31.6370   -2.9200 C.3    84  LYS84       0.0035
     43  CD        57.3810   30.3380   -2.2060 C.3    84  LYS84       0.0206
     44  CE        56.4740   30.6550   -1.0040 C.3    84  LYS84       0.1093
     45  NZ        56.4800   29.5920    0.0490 N.3    84  LYS84      -0.1314
     46  N         62.7890   28.2650   -8.7880 N.3   124  MET124     -0.1230
     47  CA        62.3330   26.9640   -9.2700 C.3   124  MET124      0.1702
     48  C         61.9070   27.0320  -10.7290 C.2   124  MET124      0.2592
     49  O         61.8140   28.1140  -11.2850 O.2   124  MET124     -0.2718
     50  CB        61.1660   26.5130   -8.4330 C.3   124  MET124      0.0401
     51  CG        59.8750   27.2230   -8.7580 C.3   124  MET124      0.0596
     52  SD        58.7630   27.1340   -7.3460 S.3   124  MET124     -0.1393
     53  CE        59.4300   28.5610   -6.4850 C.3   124  MET124      0.0692
     54  N         61.6190   25.8720  -11.3190 N.am  125  GLU125     -0.1966
     55  CA        61.1750   25.7900  -12.7020 C.3   125  GLU125      0.1733
     56  C         59.8900   26.5760  -12.9070 C.2   125  GLU125      0.2616
     57  O         58.9530   26.4820  -12.1120 O.2   125  GLU125     -0.2715
     58  CB        60.9270   24.3450  -13.1300 C.3   125  GLU125      0.0429
     59  CG        60.6230   24.1870  -14.6340 C.3   125  GLU125      0.1163
     60  CD        60.4110   22.7380  -15.0750 C.2   125  GLU125      0.3649
     61  OE1       60.2570   22.4750  -16.3050 O.co2 125  GLU125     -0.2457
     62  OE2       60.3780   21.8440  -14.2030 O.co2 125  GLU125     -0.2457
     63  N         59.8650   27.3520  -13.9780 N.am  126  LEU126     -0.1963
     64  CA        58.6520   28.0200  -14.4070 C.3   126  LEU126      0.1728
     65  C         57.8540   27.0410  -15.2450 C.2   126  LEU126      0.2616
     66  O         58.3450   26.5300  -16.2430 O.2   126  LEU126     -0.2715
     67  CB        59.0050   29.2340  -15.2430 C.3   126  LEU126      0.0311
     68  CG        57.8790   30.0420  -15.8590 C.3   126  LEU126      0.0022
     69  CD1       57.1490   30.8420  -14.7970 C.3   126  LEU126      0.0001
     70  CD2       58.5170   30.9410  -16.8950 C.3   126  LEU126      0.0001
     71  N         56.6210   26.7790  -14.8430 N.am  127  LEU127     -0.1977
     72  CA        55.7680   25.8720  -15.5920 C.3   127  LEU127      0.1596
     73  C         54.7920   26.6610  -16.4060 C.2   127  LEU127      0.2287
     74  O         53.9300   27.3210  -15.8600 O.2   127  LEU127     -0.2864
     75  CB        55.0730   24.8910  -14.6390 C.3   127  LEU127      0.0297
     76  CG        56.0320   23.6970  -14.4600 C.3   127  LEU127      0.0022
     77  CD1       57.0650   23.9710  -13.3740 C.3   127  LEU127      0.0001
     78  CD2       55.2940   22.4100  -14.1950 C.3   127  LEU127      0.0001
     79  N         50.7880   27.1500  -16.0800 N.3   130  GLY130     -0.1210
     80  CA        50.1980   27.8240  -14.9300 C.3   130  GLY130      0.1956
     81  C         49.6830   26.8340  -13.8910 C.2   130  GLY130      0.2612
     82  O         49.8360   25.6180  -14.0350 O.2   130  GLY130     -0.2717
     83  N         49.0540   27.3530  -12.8440 N.am  131  SER131     -0.1952
     84  CA        48.6040   26.5170  -11.7510 C.3   131  SER131      0.1924
     85  C         47.2280   25.9410  -12.0650 C.2   131  SER131      0.2314
     86  O         46.4760   26.5180  -12.8440 O.2   131  SER131     -0.2863
     87  CB        48.5350   27.3150  -10.4590 C.3   131  SER131      0.2116
     88  OG        47.3170   28.0190  -10.4120 O.3   131  SER131     -0.2180
     89  N         44.5110   28.4080  -11.3320 N.3   134  GLN134     -0.1245
     90  CA        44.2410   29.3030  -12.4720 C.3   134  GLN134      0.1566
     91  C         43.3330   28.6500  -13.4990 C.2   134  GLN134      0.2260
     92  O         42.4760   29.3230  -14.0850 O.2   134  GLN134     -0.2867
     93  CB        45.5310   29.7880  -13.1710 C.3   134  GLN134      0.0367
     94  CG        46.4490   30.6720  -12.3350 C.3   134  GLN134      0.0905
     95  CD        47.8200   30.8880  -12.9970 C.2   134  GLN134      0.2608
     96  OE1       48.8280   30.2970  -12.6020 O.2   134  GLN134     -0.2717
     97  NE2       47.8520   31.7340  -14.0190 N.am  134  GLN134     -0.0878
     98  N         45.9130   25.7180   -6.3750 N.3   174  ASP174     -0.1225
     99  CA        46.9650   26.7480   -6.5700 C.3   174  ASP174      0.1805
    100  C         48.3860   26.2200   -6.4200 C.2   174  ASP174      0.2597
    101  O         49.2950   26.7910   -7.0020 O.2   174  ASP174     -0.2718
    102  CB        46.8350   27.9280   -5.5870 C.3   174  ASP174      0.1424
    103  CG        45.5440   28.7000   -5.7350 C.2   174  ASP174      0.3668
    104  OD1       44.9440   28.7230   -6.8430 O.co2 174  ASP174     -0.2456
    105  OD2       45.1320   29.3040   -4.7140 O.co2 174  ASP174     -0.2456
    106  N         48.5820   25.1680   -5.6270 N.am  175  ASN175     -0.1974
    107  CA        49.8930   24.5670   -5.4240 C.3   175  ASN175      0.1688
    108  C         50.1780   23.3850   -6.3280 C.2   175  ASN175      0.2292
    109  O         51.1570   22.6660   -6.0950 O.2   175  ASN175     -0.2864
    110  CB        50.0940   24.1830   -3.9290 C.3   175  ASN175      0.1181
    111  CG        50.2550   25.3920   -3.0290 C.2   175  ASN175      0.2629
    112  OD1       50.6930   26.4480   -3.4920 O.2   175  ASN175     -0.2716
    113  ND2       49.9090   25.2510   -1.7220 N.am  175  ASN175     -0.0877
    114  N         51.0510   22.6750  -10.3580 N.3   177  LEU177     -0.1245
    115  CA        51.4360   23.3480  -11.5910 C.3   177  LEU177      0.1561
    116  C         51.3810   22.4380  -12.8080 C.2   177  LEU177      0.2260
    117  O         51.6600   21.2590  -12.7170 O.2   177  LEU177     -0.2867
    118  CB        52.8450   23.9210  -11.4530 C.3   177  LEU177      0.0270
    119  CG        53.0270   24.8680  -10.2780 C.3   177  LEU177      0.0019
    120  CD1       54.3960   25.4820  -10.3290 C.3   177  LEU177      0.0001
    121  CD2       51.9550   25.9400  -10.2510 C.3   177  LEU177      0.0001
    122  N         54.0720   22.1050   -5.9880 N.3   188  CYS188     -0.1221
    123  CA        55.0170   23.1030   -5.5030 C.3   188  CYS188      0.1808
    124  C         54.5890   23.5830   -4.1080 C.2   188  CYS188      0.2601
    125  O         53.5480   23.1570   -3.5640 O.2   188  CYS188     -0.2717
    126  CB        55.1100   24.3020   -6.4480 C.3   188  CYS188      0.0970
    127  SG        53.5830   25.2190   -6.5760 S.3   188  CYS188     -0.0800
    128  N         55.4360   24.4590   -3.5780 N.am  189  ASP189     -0.1973
    129  CA        55.2070   25.2180   -2.3770 C.3   189  ASP189      0.1709
    130  C         55.3060   24.3350   -1.1280 C.2   189  ASP189      0.2293
    131  O         54.3060   23.7850   -0.6550 O.2   189  ASP189     -0.2864
    132  CB        53.8810   25.9750   -2.4310 C.3   189  ASP189      0.1436
    133  CG        53.7530   26.9860   -1.2990 C.2   189  ASP189      0.3671
    134  OD1       54.5750   26.9100   -0.3380 O.co2 189  ASP189     -0.2456
    135  OD2       52.8290   27.8350   -1.3850 O.co2 189  ASP189     -0.2456
@<TRIPOS>BOND
     1    70    68    1
     2    73    74    2
     3    73    72    1
     4    61    60   ar
     5    66    65    2
     6    79    80    1
     7    68    67    1
     8    68    69    1
     9    72    71    1
    10    72    75    1
    11    65    71   am
    12    65    64    1
    13    67    64    1
    14    60    59    1
    15    60    62   ar
    16    80    81    1
    17    75    76    1
    18    59    58    1
    19    76    78    1
    20    76    77    1
    21    64    63    1
    22    92    91    2
    23    82    81    2
    24    97    95   am
    25    63    56   am
    26    81    83   am
    27    11     9    1
    28    10     9    1
    29    91    90    1
    30     9     8    2
    31    93    90    1
    32    93    94    1
    33    58    55    1
    34    95    96    2
    35    95    94    1
    36    56    55    1
    37    56    57    2
    38    86    85    2
    39    83    84    1
    40   116   117    2
    41   116   115    1
    42    55    54    1
    43    90    89    1
    44     8     7    1
    45    32    33    1
    46    85    84    1
    47     7     6    1
    48    84    87    1
    49   115   118    1
    50   115   114    1
    51   118   119    1
    52    54    48   am
    53    49    48    2
    54    33    36    1
    55    33    34    1
    56    48    47    1
    57     6     5    1
    58    87    88    1
    59   120   119    1
    60   119   121    1
    61    34    35    2
    62     5     2    1
    63    47    46    1
    64    47    50    1
    65    28    27    2
    66    51    50    1
    67    51    52    1
    68     1     2    1
    69     2     3    1
    70    27    26    1
    71    30    29    1
    72    52    53    1
    73    29    26    1
    74    29    31    1
    75    26    25    1
    76   101   100    2
    77     3    12   am
    78     3     4    2
    79   104   103   ar
    80   127   126    1
    81    12    13    1
    82    99   100    1
    83    99    98    1
    84    99   102    1
    85   126   123    1
    86   100   106   am
    87   108   109    2
    88   108   107    1
    89   122   123    1
    90    25    18   am
    91    37    38    1
    92   103   102    1
    93   103   105   ar
    94   106   107    1
    95   123   124    1
    96   107   110    1
    97    13    14    1
    98    18    19    2
    99    18    17    1
   100    15    14    2
   101    38    41    1
   102    38    39    1
   103    16    17    1
   104   124   128   am
   105   124   125    2
   106    41    42    1
   107    17    20    1
   108   110   111    1
   109    39    40    2
   110   128   129    1
   111   112   111    2
   112   111   113   am
   113    42    43    1
   114    23    22   ar
   115    20    21    1
   116   132   129    1
   117   132   133    1
   118    21    22    1
   119   129   130    1
   120    22    24   ar
   121    43    44    1
   122   135   133   ar
   123   133   134   ar
   124   130   131    2
   125    44    45    1
