@<TRIPOS>MOLECULE
tmp/5t8qA00.pdb
 145 135 0 0 0
SMALL
GASTEIGER

@<TRIPOS>ATOM
      1  N          8.7660   34.0610    8.0810 N.3    61  VAL61      -0.1245
      2  CA         8.4050   35.4820    7.9960 C.3    61  VAL61       0.1561
      3  C          9.3920   36.1370    7.0320 C.2    61  VAL61       0.2260
      4  O         10.6130   35.9240    7.1230 O.2    61  VAL61      -0.2867
      5  CB         8.4110   36.1800    9.3720 C.3    61  VAL61       0.0252
      6  CG1        7.1490   35.8330   10.1430 C.3    61  VAL61       0.0019
      7  CG2        9.6360   35.7980   10.1920 C.3    61  VAL61       0.0019
      8  N         10.9310   39.2770    4.7600 N.3    63  ARG63      -0.1231
      9  CA        11.1920   40.6890    4.5510 C.3    63  ARG63       0.1694
     10  C         11.7380   40.8500    3.1710 C.2    63  ARG63       0.2592
     11  O         12.1490   39.8830    2.5390 O.2    63  ARG63      -0.2718
     12  CB        12.1920   41.2020    5.5600 C.3    63  ARG63       0.0321
     13  CG        11.6340   41.3430    6.9550 C.3    63  ARG63       0.0489
     14  CD        12.7590   41.7850    7.8560 C.3    63  ARG63       0.2205
     15  NE        12.3450   42.1570    9.2020 N.pl3  63  ARG63      -0.0865
     16  CZ        12.0520   41.2960   10.1710 C.cat  63  ARG63       0.5346
     17  NH1       12.0820   39.9770    9.9580 N.pl3  63  ARG63       0.1354
     18  NH2       11.7100   41.7610   11.3670 N.pl3  63  ARG63       0.1354
     19  N         11.7470   42.0880    2.7190 N.am   64  GLY64      -0.1957
     20  CA        12.1080   42.4210    1.3400 C.3    64  GLY64       0.1869
     21  C         10.9030   42.5010    0.4220 C.2    64  GLY64       0.2309
     22  O          9.8250   42.0410    0.7680 O.2    64  GLY64      -0.2863
     23  N         13.8350   37.4710    1.9960 N.3    69  VAL69      -0.1231
     24  CA        14.9150   37.5890    2.9790 C.3    69  VAL69       0.1692
     25  C         14.4360   37.0470    4.3290 C.2    69  VAL69       0.2592
     26  O         13.4180   37.4540    4.7980 O.2    69  VAL69      -0.2718
     27  CB        15.3110   39.0670    3.1760 C.3    69  VAL69       0.0266
     28  CG1       16.4440   39.1910    4.1550 C.3    69  VAL69       0.0020
     29  CG2       15.6790   39.7040    1.8450 C.3    69  VAL69       0.0020
     30  N         15.2080   36.1830    4.9600 N.am   70  HIS70      -0.1962
     31  CA        14.8300   35.5390    6.2040 C.3    70  HIS70       0.1787
     32  C         15.9800   35.5040    7.1950 C.2    70  HIS70       0.2620
     33  O         17.1320   35.4720    6.8040 O.2    70  HIS70      -0.2715
     34  CB        14.3850   34.0980    5.9080 C.3    70  HIS70       0.0785
     35  CG        13.2820   34.0190    4.9010 C.ar   70  HIS70       0.0821
     36  ND1       11.9540   34.1580    5.2450 N.ar   70  HIS70      -0.2267
     37  CD2       13.3150   33.9000    3.5510 C.ar   70  HIS70       0.1154
     38  CE1       11.2180   34.1230    4.1510 C.ar   70  HIS70       0.1986
     39  NE2       12.0170   33.9490    3.1130 N.ar   70  HIS70      -0.2212
     40  N         15.6420   35.5320    8.4780 N.am   71  ARG71      -0.1977
     41  CA        16.5470   35.1730    9.5560 C.3    71  ARG71       0.1597
     42  C         16.8110   33.6850    9.4340 C.2    71  ARG71       0.2287
     43  O         15.8940   32.9290    9.1980 O.2    71  ARG71      -0.2864
     44  CB        15.8820   35.4850   10.8970 C.3    71  ARG71       0.0334
     45  CG        16.6320   35.1100   12.1610 C.3    71  ARG71       0.0492
     46  CD        15.8870   35.6500   13.4040 C.3    71  ARG71       0.2205
     47  NE        16.5540   36.8080   14.0300 N.pl3  71  ARG71      -0.0865
     48  CZ        16.0980   38.0740   14.0860 C.cat  71  ARG71       0.5346
     49  NH1       14.9350   38.4630   13.5610 N.pl3  71  ARG71       0.1354
     50  NH2       16.8260   39.0010   14.6920 N.pl3  71  ARG71       0.1354
     51  N         21.3590   36.5920    7.9760 N.3    82  ALA82      -0.1245
     52  CA        20.2560   36.7140    7.0290 C.3    82  ALA82       0.1562
     53  C         20.5640   36.0060    5.7310 C.2    82  ALA82       0.2260
     54  O         21.6800   36.0100    5.2880 O.2    82  ALA82      -0.2867
     55  CB        19.9600   38.1780    6.7490 C.3    82  ALA82       0.0290
     56  N         26.6280   46.3080    3.7690 N.3   108  VAL108     -0.1245
     57  CA        26.2850   45.1570    4.5660 C.3   108  VAL108      0.1561
     58  C         27.2130   44.0380    4.1040 C.2   108  VAL108      0.2260
     59  O         27.3170   43.8110    2.9050 O.2   108  VAL108     -0.2867
     60  CB        24.8090   44.7480    4.3680 C.3   108  VAL108      0.0252
     61  CG1       24.4790   43.4550    5.1180 C.3   108  VAL108      0.0019
     62  CG2       23.8550   45.8690    4.7790 C.3   108  VAL108      0.0019
     63  N         24.3020   37.0470    4.4900 N.3   124  MET124     -0.1230
     64  CA        24.8420   38.3460    4.8550 C.3   124  MET124      0.1702
     65  C         24.5990   38.6410    6.3220 C.2   124  MET124      0.2592
     66  O         23.8180   37.9470    6.9760 O.2   124  MET124     -0.2718
     67  CB        24.1590   39.4040    4.0400 C.3   124  MET124      0.0401
     68  CG        22.6790   39.1950    4.0040 C.3   124  MET124      0.0596
     69  SD        21.8390   40.5630    3.2420 S.3   124  MET124     -0.1393
     70  CE        21.3910   39.8890    1.6560 C.3   124  MET124      0.0692
     71  N         25.2450   39.6870    6.8390 N.am  125  GLU125     -0.1966
     72  CA        25.0440   40.0840    8.2420 C.3   125  GLU125      0.1733
     73  C         23.5820   40.4310    8.4210 C.2   125  GLU125      0.2616
     74  O         22.9580   40.9270    7.4750 O.2   125  GLU125     -0.2715
     75  CB        25.9220   41.2800    8.6430 C.3   125  GLU125      0.0429
     76  CG        25.9660   41.5630   10.1340 C.3   125  GLU125      0.1163
     77  CD        26.5900   42.9060   10.5170 C.2   125  GLU125      0.3649
     78  OE1       26.3400   43.3020   11.6630 O.co2 125  GLU125     -0.2457
     79  OE2       27.3110   43.5750    9.7340 O.co2 125  GLU125     -0.2457
     80  N         23.0490   40.1160    9.6110 N.am  126  LEU126     -0.1963
     81  CA        21.6500   40.3630    9.9660 C.3   126  LEU126      0.1728
     82  C         21.6140   41.6090   10.7920 C.2   126  LEU126      0.2616
     83  O         22.1910   41.6130   11.8790 O.2   126  LEU126     -0.2715
     84  CB        21.0850   39.2040   10.7820 C.3   126  LEU126      0.0311
     85  CG        19.6970   39.3910   11.4180 C.3   126  LEU126      0.0022
     86  CD1       18.6960   39.8930   10.4030 C.3   126  LEU126      0.0001
     87  CD2       19.1890   38.0920   12.0170 C.3   126  LEU126      0.0001
     88  N         20.9480   42.6530   10.2890 N.am  127  LEU127     -0.1963
     89  CA        20.9290   43.9740   10.9470 C.3   127  LEU127      0.1728
     90  C         19.5690   44.2410   11.5510 C.2   127  LEU127      0.2616
     91  O         18.6280   44.5020   10.8190 O.2   127  LEU127     -0.2715
     92  CB        21.2790   45.0920    9.9620 C.3   127  LEU127      0.0311
     93  CG        22.7740   45.3280    9.7170 C.3   127  LEU127      0.0022
     94  CD1       23.1260   44.9660    8.2990 C.3   127  LEU127      0.0001
     95  CD2       23.1550   46.7590    9.9210 C.3   127  LEU127      0.0001
     96  N         19.4880   44.2340   12.8850 N.am  128  GLU128     -0.1977
     97  CA        18.1940   44.1060   13.6430 C.3   128  GLU128      0.1602
     98  C         17.3110   45.3540   13.6710 C.2   128  GLU128      0.2287
     99  O         16.1120   45.2600   13.8840 O.2   128  GLU128     -0.2864
    100  CB        18.4630   43.7180   15.0950 C.3   128  GLU128      0.0415
    101  CG        19.3930   42.5240   15.2890 C.3   128  GLU128      0.1163
    102  CD        18.6810   41.2550   15.6670 C.2   128  GLU128      0.3649
    103  OE1       17.5180   41.3210   16.1140 O.co2 128  GLU128     -0.2457
    104  OE2       19.2890   40.1720   15.5100 O.co2 128  GLU128     -0.2457
    105  N         16.4010   46.7920   11.0490 N.3   130  GLY130     -0.1210
    106  CA        15.5450   46.6710    9.8680 C.3   130  GLY130      0.1956
    107  C         15.8720   47.7340    8.8310 C.2   130  GLY130      0.2612
    108  O         16.7760   48.5590    9.0310 O.2   130  GLY130     -0.2717
    109  N         15.1420   47.7210    7.7200 N.am  131  SER131     -0.1952
    110  CA        15.3740   48.7180    6.6680 C.3   131  SER131      0.1924
    111  C         14.7970   50.0840    7.0250 C.2   131  SER131      0.2314
    112  O         13.6670   50.1790    7.5460 O.2   131  SER131     -0.2863
    113  CB        14.7880   48.2960    5.3400 C.3   131  SER131      0.2116
    114  OG        13.3870   48.2640    5.4190 O.3   131  SER131     -0.2180
    115  N         11.2550   50.5020    6.3980 N.3   134  GLN134     -0.1245
    116  CA        10.3430   50.1290    7.4780 C.3   134  GLN134      0.1566
    117  C         10.3970   51.1000    8.6520 C.2   134  GLN134      0.2260
    118  O          9.4300   51.2010    9.4000 O.2   134  GLN134     -0.2867
    119  CB        10.5980   48.6970    7.9650 C.3   134  GLN134      0.0367
    120  CG        10.1000   47.5750    7.0530 C.3   134  GLN134      0.0905
    121  CD        10.5900   46.1890    7.5270 C.2   134  GLN134      0.2608
    122  OE1       11.7450   45.7690    7.2510 O.2   134  GLN134     -0.2717
    123  NE2        9.7170   45.4680    8.2440 N.am  134  GLN134     -0.0878
    124  N         14.3780   51.0230    1.3740 N.3   174  ASP174     -0.1239
    125  CA        14.2930   49.5430    1.5280 C.3   174  ASP174      0.1674
    126  C         15.6800   48.8340    1.4850 C.2   174  ASP174      0.2266
    127  O         15.8100   47.7650    2.0360 O.2   174  ASP174     -0.2867
    128  CB        13.3820   48.9280    0.4480 C.3   174  ASP174      0.1410
    129  CG        11.8800   49.0890    0.7220 C.2   174  ASP174      0.3668
    130  OD1       11.4260   49.3770    1.8570 O.co2 174  ASP174     -0.2456
    131  OD2       11.1160   48.8910   -0.2390 O.co2 174  ASP174     -0.2456
    132  N         20.0300   49.5160    5.4850 N.3   177  LEU177     -0.1245
    133  CA        19.6650   48.7980    6.6780 C.3   177  LEU177      0.1561
    134  C         20.3630   49.3700    7.8720 C.2   177  LEU177      0.2260
    135  O         21.5210   49.8360    7.7920 O.2   177  LEU177     -0.2867
    136  CB        20.0820   47.3610    6.5480 C.3   177  LEU177      0.0270
    137  CG        19.2490   46.4920    5.6210 C.3   177  LEU177      0.0019
    138  CD1       20.1000   45.2910    5.3630 C.3   177  LEU177      0.0001
    139  CD2       17.9520   46.0130    6.2440 C.3   177  LEU177      0.0001
    140  N         22.5210   47.6560    1.0710 N.3   188  CYS188     -0.1235
    141  CA        22.2550   46.2410    0.9680 C.3   188  CYS188      0.1677
    142  C         21.7530   46.0070   -0.4270 C.2   188  CYS188      0.2270
    143  O         21.3610   46.9450   -1.0930 O.2   188  CYS188     -0.2867
    144  CB        21.1960   45.8700    1.9690 C.3   188  CYS188      0.0956
    145  SG        21.3410   44.1790    2.5040 S.3   188  CYS188     -0.0801
@<TRIPOS>BOND
     1   143   142    2
     2   142   141    1
     3   131   129   ar
     4    21    22    2
     5    21    20    1
     6   128   129    1
     7   128   125    1
     8   129   130   ar
     9   141   140    1
    10   141   144    1
    11    20    19    1
    12   124   125    1
    13   126   125    1
    14   126   127    2
    15    70    69    1
    16    29    27    1
    17   144   145    1
    18    23    24    1
    19    11    10    2
    20    19    10   am
    21    59    58    2
    22    24    27    1
    23    24    25    1
    24    39    37   ar
    25    39    38   ar
    26    10     9    1
    27    27    28    1
    28    69    68    1
    29    37    35   ar
    30    56    57    1
    31    68    67    1
    32    67    64    1
    33    58    57    1
    34    38    36   ar
    35    25    26    2
    36    25    30   am
    37    60    57    1
    38    60    62    1
    39    60    61    1
    40    63    64    1
    41     9     8    1
    42     9    12    1
    43    64    65    1
    44    35    36   ar
    45    35    34    1
    46    30    31    1
    47    54    53    2
    48   113   114    1
    49   113   110    1
    50   138   137    1
    51   132   133    1
    52    12    13    1
    53   137   139    1
    54   137   136    1
    55    53    52    1
    56    34    31    1
    57    31    32    1
    58    65    71   am
    59    65    66    2
    60   115   116    1
    61   136   133    1
    62   110   111    1
    63   110   109    1
    64   133   134    1
    65    55    52    1
    66    33    32    2
    67    71    72    1
    68    13    14    1
    69   111   112    2
    70    52    51    1
    71     3     4    2
    72     3     2    1
    73   120   121    1
    74   120   119    1
    75    32    40   am
    76   122   121    2
    77    74    73    2
    78   116   119    1
    79   116   117    1
    80   121   123   am
    81   109   107   am
    82   135   134    2
    83    14    15    1
    84     2     1    1
    85     2     5    1
    86    72    73    1
    87    72    75    1
    88    94    93    1
    89    73    80   am
    90    40    41    1
    91    75    76    1
    92   117   118    2
    93   107   108    2
    94   107   106    1
    95    43    42    2
    96    15    16    2
    97     5     6    1
    98     5     7    1
    99    42    41    1
   100    41    44    1
   101    80    81    1
   102    93    95    1
   103    93    92    1
   104    79    77   ar
   105   106   105    1
   106    17    16    1
   107    92    89    1
   108    81    84    1
   109    81    82    1
   110    76    77    1
   111    16    18    1
   112    88    82   am
   113    88    89    1
   114    86    85    1
   115    77    78   ar
   116    84    85    1
   117    82    83    2
   118    91    90    2
   119    44    45    1
   120    89    90    1
   121    85    87    1
   122    90    96   am
   123    45    46    1
   124    96    97    1
   125    46    47    1
   126    49    48    1
   127    97    98    1
   128    97   100    1
   129    98    99    2
   130    47    48    2
   131    48    50    1
   132   100   101    1
   133   101   102    1
   134   104   102   ar
   135   102   103   ar
