@<TRIPOS>MOLECULE
tmp/5t8sA02.pdb
 74 67 0 0 0
SMALL
GASTEIGER

@<TRIPOS>ATOM
      1  N         23.3470   91.0090   76.9830 N.3    40  ALA40      -0.1245
      2  CA        24.2120   89.9850   76.4230 C.3    40  ALA40       0.1562
      3  C         24.5630   89.0410   77.5740 C.2    40  ALA40       0.2260
      4  O         25.6940   89.0230   78.0600 O.2    40  ALA40      -0.2867
      5  CB        25.4750   90.5830   75.7930 C.3    40  ALA40       0.0290
      6  N         27.3310   91.3220   79.3770 N.3    55  GLU55      -0.1245
      7  CA        27.2150   92.7780   79.3840 C.3    55  GLU55       0.1567
      8  C         25.7540   93.1960   79.3330 C.2    55  GLU55       0.2260
      9  O         25.0240   92.7950   78.4200 O.2    55  GLU55      -0.2867
     10  CB        27.9800   93.3900   78.1880 C.3    55  GLU55       0.0388
     11  CG        29.4690   92.9940   78.1280 C.3    55  GLU55       0.1160
     12  CD        29.6900   91.5590   77.6360 C.2    55  GLU55       0.3649
     13  OE1       30.5680   90.8550   78.1950 O.co2  55  GLU55      -0.2457
     14  OE2       28.9770   91.1320   76.6980 O.co2  55  GLU55      -0.2457
     15  N         27.4660   97.3470   78.8270 N.3    98  GLN98      -0.1231
     16  CA        27.8180   97.2490   77.4120 C.3    98  GLN98       0.1698
     17  C         28.9570   98.2110   77.0970 C.2    98  GLN98       0.2592
     18  O         28.9690   99.3610   77.5550 O.2    98  GLN98      -0.2718
     19  CB        26.6180   97.5560   76.5090 C.3    98  GLN98       0.0381
     20  CG        26.9690   97.4750   75.0100 C.3    98  GLN98       0.0905
     21  CD        25.7830   97.6910   74.0910 C.2    98  GLN98       0.2608
     22  OE1       25.1060   98.7270   74.1540 O.2    98  GLN98      -0.2717
     23  NE2       25.5370   96.7220   73.2020 N.am   98  GLN98      -0.0878
     24  N         29.9150   97.7370   76.3060 N.am   99  SER99      -0.1952
     25  CA        31.0150   98.5960   75.8720 C.3    99  SER99       0.1924
     26  C         30.4900   99.8260   75.1350 C.2    99  SER99       0.2314
     27  O         29.6740   99.6880   74.2140 O.2    99  SER99      -0.2863
     28  CB        31.9660   97.8260   74.9550 C.3    99  SER99       0.2116
     29  OG        32.8180   98.7370   74.2760 O.3    99  SER99      -0.2180
     30  N         32.1260  101.5230   73.0250 N.3   101  ASP101     -0.1225
     31  CA        32.6320  101.4740   71.6570 C.3   101  ASP101      0.1805
     32  C         31.6880  100.6870   70.7600 C.2   101  ASP101      0.2597
     33  O         31.6000  100.9600   69.5580 O.2   101  ASP101     -0.2718
     34  CB        34.0340  100.8530   71.6250 C.3   101  ASP101      0.1424
     35  CG        35.0770  101.6700   72.3970 C.2   101  ASP101      0.3668
     36  OD1       34.7680  102.7790   72.8860 O.co2 101  ASP101     -0.2456
     37  OD2       36.2180  101.1830   72.5220 O.co2 101  ASP101     -0.2456
     38  N         30.9900   99.6980   71.3290 N.am  102  ILE102     -0.1980
     39  CA        29.9430   98.9850   70.6020 C.3   102  ILE102      0.1595
     40  C         28.6780   99.8300   70.5220 C.2   102  ILE102      0.2287
     41  O         28.0720   99.9720   69.4520 O.2   102  ILE102     -0.2864
     42  CB        29.6530   97.6280   71.2760 C.3   102  ILE102      0.0276
     43  CG1       30.8690   96.6990   71.1990 C.3   102  ILE102      0.0022
     44  CG2       28.4160   96.9650   70.6410 C.3   102  ILE102      0.0022
     45  CD1       30.6920   95.3890   72.0170 C.3   102  ILE102      0.0001
     46  N         24.2590   94.8630   65.8480 N.3   119  GLY119     -0.1210
     47  CA        25.0190   94.6870   67.0840 C.3   119  GLY119      0.1956
     48  C         26.3740   94.0110   66.9230 C.2   119  GLY119      0.2611
     49  O         27.1730   94.0250   67.8680 O.2   119  GLY119     -0.2717
     50  N         26.6550   93.4390   65.7570 N.am  120  ASP120     -0.1973
     51  CA        27.8800   92.6820   65.5270 C.3   120  ASP120      0.1709
     52  C         27.9400   92.4130   64.0310 C.2   120  ASP120      0.2293
     53  O         26.9500   92.6140   63.3200 O.2   120  ASP120     -0.2864
     54  CB        27.8690   91.3750   66.3350 C.3   120  ASP120      0.1436
     55  CG        29.2530   90.7840   66.5540 C.2   120  ASP120      0.3671
     56  OD1       30.2400   91.3290   66.0250 O.co2 120  ASP120     -0.2456
     57  OD2       29.3260   89.7510   67.2620 O.co2 120  ASP120     -0.2456
     58  N         20.9450   92.4660   68.7810 N.3   273  LYS273     -0.1245
     59  CA        21.9090   91.4730   68.3260 C.3   273  LYS273      0.1561
     60  C         21.3190   90.7760   67.1060 C.2   273  LYS273      0.2260
     61  O         20.3280   90.0450   67.2220 O.2   273  LYS273     -0.2867
     62  CB        22.2210   90.4680   69.4340 C.3   273  LYS273      0.0271
     63  CG        23.2840   90.9540   70.4500 C.3   273  LYS273      0.0035
     64  CD        22.7450   92.0790   71.3290 C.3   273  LYS273      0.0206
     65  CE        23.6890   92.3340   72.5250 C.3   273  LYS273      0.1093
     66  NZ        23.3620   93.6390   73.2250 N.3   273  LYS273     -0.1314
     67  N         29.1690   95.1260   62.0430 N.3   306  ILE306     -0.1245
     68  CA        28.8580   95.8310   63.2850 C.3   306  ILE306      0.1561
     69  C         28.7250   97.3250   63.0060 C.2   306  ILE306      0.2260
     70  O         29.5190   97.9140   62.2660 O.2   306  ILE306     -0.2867
     71  CB        29.9230   95.5500   64.3620 C.3   306  ILE306      0.0252
     72  CG1       29.4530   96.0890   65.7210 C.3   306  ILE306      0.0019
     73  CG2       31.2900   96.1240   63.9750 C.3   306  ILE306      0.0019
     74  CD1       30.3890   95.7690   66.8860 C.3   306  ILE306      0.0001
@<TRIPOS>BOND
     1    67    68    1
     2    70    69    2
     3    69    68    1
     4    68    71    1
     5    53    52    2
     6    73    71    1
     7    52    51    1
     8    71    72    1
     9    51    50    1
    10    51    54    1
    11    72    74    1
    12    50    48   am
    13    46    47    1
    14    56    55   ar
    15    54    55    1
    16    55    57   ar
    17    48    47    1
    18    48    49    2
    19    60    61    2
    20    60    59    1
    21    59    58    1
    22    59    62    1
    23    62    63    1
    24    41    40    2
    25    33    32    2
    26    63    64    1
    27    40    39    1
    28    39    42    1
    29    39    38    1
    30    44    42    1
    31    32    38   am
    32    32    31    1
    33    43    42    1
    34    43    45    1
    35    64    65    1
    36    34    31    1
    37    34    35    1
    38    31    30    1
    39    35    37   ar
    40    35    36   ar
    41    65    66    1
    42    23    21   am
    43    21    22    2
    44    21    20    1
    45    27    26    2
    46    29    28    1
    47    28    25    1
    48    20    19    1
    49    26    25    1
    50     5     2    1
    51    25    24    1
    52    24    17   am
    53     2     1    1
    54     2     3    1
    55    19    16    1
    56    14    12   ar
    57    17    16    1
    58    17    18    2
    59    16    15    1
    60     3     4    2
    61    12    11    1
    62    12    13   ar
    63    11    10    1
    64    10     7    1
    65     9     8    2
    66     8     7    1
    67     6     7    1
