@<TRIPOS>MOLECULE
tmp/5t8sA00.pdb
 112 109 0 0 0
SMALL
GASTEIGER

@<TRIPOS>ATOM
      1  N         18.2200   69.4560   80.2760 N.3    14  HIS14      -0.1227
      2  CA        19.5890   69.2820   79.8220 C.3    14  HIS14       0.1737
      3  C         20.4280   70.4800   80.2710 C.2    14  HIS14       0.2438
      4  O         19.9700   71.6220   80.1780 O.2    14  HIS14      -0.2733
      5  CB        19.6110   69.1470   78.2920 C.3    14  HIS14       0.0758
      6  CG        20.9710   68.8880   77.7340 C.ar   14  HIS14       0.0818
      7  ND1       21.9300   69.8750   77.6260 N.ar   14  HIS14      -0.2268
      8  CD2       21.5490   67.7480   77.2850 C.ar   14  HIS14       0.1154
      9  CE1       23.0410   69.3510   77.1430 C.ar   14  HIS14       0.1986
     10  NE2       22.8370   68.0620   76.9270 N.ar   14  HIS14      -0.2212
     11  N         21.6540   70.2610   80.7530 N.am   15  PRO15      -0.2729
     12  CA        22.3940   71.3860   81.3600 C.3    15  PRO15       0.1401
     13  C         22.6410   72.5600   80.4250 C.2    15  PRO15       0.2269
     14  O         22.5930   73.7090   80.8790 O.2    15  PRO15      -0.2865
     15  CB        23.7080   70.7420   81.8070 C.3    15  PRO15       0.0296
     16  CG        23.8140   69.4590   81.0570 C.3    15  PRO15       0.0237
     17  CD        22.3910   68.9900   80.8620 C.3    15  PRO15       0.0939
     18  N         16.2420   65.7400   82.9470 N.3   165  ASP165     -0.1239
     19  CA        17.2080   65.6620   81.8500 C.3   165  ASP165      0.1674
     20  C         16.7960   64.5660   80.8650 C.2   165  ASP165      0.2266
     21  O         16.4260   63.4720   81.2840 O.2   165  ASP165     -0.2867
     22  CB        18.5870   65.3840   82.4570 C.3   165  ASP165      0.1410
     23  CG        19.7460   65.6690   81.5150 C.2   165  ASP165      0.3668
     24  OD1       19.5350   65.9060   80.3160 O.co2 165  ASP165     -0.2456
     25  OD2       20.8860   65.6310   82.0180 O.co2 165  ASP165     -0.2456
     26  N         17.1750   63.3510   76.2790 N.3   167  LYS167     -0.1245
     27  CA        17.6070   63.6130   74.9050 C.3   167  LYS167      0.1561
     28  C         16.8550   62.6970   73.9540 C.2   167  LYS167      0.2260
     29  O         16.4100   61.6120   74.3330 O.2   167  LYS167     -0.2867
     30  CB        19.1210   63.4050   74.7200 C.3   167  LYS167      0.0271
     31  CG        19.9820   64.3680   75.5740 C.3   167  LYS167      0.0035
     32  CD        21.4920   64.1410   75.3770 C.3   167  LYS167      0.0206
     33  CE        22.0080   64.7350   74.0570 C.3   167  LYS167      0.1093
     34  NZ        23.5170   64.6820   74.0210 N.3   167  LYS167     -0.1314
     35  N         16.5690   58.9080   75.5370 N.3   190  SER190     -0.1217
     36  CA        17.1830   58.7110   76.8450 C.3   190  SER190      0.1889
     37  C         16.5190   59.6580   77.8300 C.2   190  SER190      0.2288
     38  O         16.4260   60.8570   77.5570 O.2   190  SER190     -0.2866
     39  CB        18.6870   58.9900   76.7900 C.3   190  SER190      0.2089
     40  OG        19.3680   58.0120   76.0180 O.3   190  SER190     -0.2183
     41  N         17.1090   54.4900   76.5970 N.3   229  ASN229     -0.1226
     42  CA        18.1760   54.4660   77.5960 C.3   229  ASN229      0.1770
     43  C         19.2280   53.4090   77.2300 C.2   229  ASN229      0.2439
     44  O         19.4250   52.4420   77.9690 O.2   229  ASN229     -0.2733
     45  CB        17.6190   54.2250   78.9940 C.3   229  ASN229      0.1168
     46  CG        17.0100   55.4680   79.5860 C.2   229  ASN229      0.2627
     47  OD1       16.6130   56.3740   78.8600 O.2   229  ASN229     -0.2716
     48  ND2       16.9330   55.5250   80.9030 N.am  229  ASN229     -0.0877
     49  N         19.9100   53.5710   76.0920 N.am  230  PRO230     -0.2718
     50  CA        20.7350   52.4680   75.5750 C.3   230  PRO230      0.1535
     51  C         21.9780   52.1630   76.3970 C.2   230  PRO230      0.2599
     52  O         22.5920   51.1160   76.1630 O.2   230  PRO230     -0.2715
     53  CB        21.0930   52.9200   74.1470 C.3   230  PRO230      0.0310
     54  CG        20.7720   54.3680   74.0730 C.3   230  PRO230      0.0237
     55  CD        19.7460   54.6640   75.1130 C.3   230  PRO230      0.0939
     56  N         22.3660   53.0000   77.3590 N.am  231  THR231     -0.1937
     57  CA        23.4200   52.6030   78.2880 C.3   231  THR231      0.2028
     58  C         22.8780   52.2720   79.6710 C.2   231  THR231      0.2643
     59  O         23.6400   52.2590   80.6450 O.2   231  THR231     -0.2714
     60  CB        24.5070   53.6710   78.3970 C.3   231  THR231      0.1808
     61  OG1       23.9410   54.9100   78.8350 O.3   231  THR231     -0.2208
     62  CG2       25.1650   53.8650   77.0780 C.3   231  THR231      0.0379
     63  N         21.5840   51.9900   79.7770 N.am  232  GLY232     -0.1939
     64  CA        21.0020   51.6160   81.0490 C.3   232  GLY232      0.2014
     65  C         20.5690   52.8040   81.8830 C.2   232  GLY232      0.2639
     66  O         20.1790   53.8430   81.3460 O.2   232  GLY232     -0.2714
     67  N         20.6510   52.6320   83.2030 N.am  233  ARG233     -0.1963
     68  CA        20.2000   53.6150   84.1840 C.3   233  ARG233      0.1729
     69  C         20.6680   55.0250   83.8590 C.2   233  ARG233      0.2616
     70  O         21.8050   55.2430   83.4310 O.2   233  ARG233     -0.2715
     71  CB        20.7330   53.2330   85.5700 C.3   233  ARG233      0.0348
     72  CG        19.7530   52.4740   86.4200 C.3   233  ARG233      0.0492
     73  CD        20.4660   51.7560   87.5620 C.3   233  ARG233      0.2205
     74  NE        21.4260   52.5850   88.2950 N.pl3 233  ARG233     -0.0865
     75  CZ        21.2000   53.1070   89.4990 C.cat 233  ARG233      0.5346
     76  NH1       20.0310   52.9070   90.1020 N.pl3 233  ARG233      0.1354
     77  NH2       22.1370   53.8310   90.1010 N.pl3 233  ARG233      0.1354
     78  N         19.7880   55.9900   84.1270 N.am  234  PHE234     -0.1974
     79  CA        20.0420   57.4130   83.9070 C.3   234  PHE234      0.1639
     80  C         19.3990   58.0970   85.1180 C.2   234  PHE234      0.2290
     81  O         18.2820   58.6170   85.0390 O.2   234  PHE234     -0.2864
     82  CB        19.4350   57.8370   82.5580 C.3   234  PHE234      0.0560
     83  CG        19.6660   59.2890   82.1420 C.ar  234  PHE234     -0.0200
     84  CD1       20.2810   60.2250   82.9600 C.ar  234  PHE234     -0.0042
     85  CD2       19.2190   59.6960   80.8910 C.ar  234  PHE234     -0.0042
     86  CE1       20.4470   61.5490   82.5130 C.ar  234  PHE234     -0.0003
     87  CE2       19.3700   60.9990   80.4460 C.ar  234  PHE234     -0.0003
     88  CZ        19.9790   61.9280   81.2650 C.ar  234  PHE234     -0.0000
     89  N         21.2360   60.2710   87.6620 N.3   236  ILE236     -0.1231
     90  CA        21.7450   61.6230   87.8720 C.3   236  ILE236      0.1692
     91  C         21.8590   62.3190   86.5260 C.2   236  ILE236      0.2592
     92  O         22.2040   61.6930   85.5170 O.2   236  ILE236     -0.2718
     93  CB        23.0940   61.6000   88.6110 C.3   236  ILE236      0.0266
     94  CG1       22.9110   60.9250   89.9710 C.3   236  ILE236      0.0019
     95  CG2       23.6350   63.0170   88.7880 C.3   236  ILE236      0.0020
     96  CD1       21.6870   61.4460   90.7500 C.3   236  ILE236      0.0001
     97  N         21.5310   63.5980   86.4990 N.am  237  GLY237     -0.1957
     98  CA        21.6000   64.3480   85.2700 C.3   237  GLY237      0.1869
     99  C         21.6450   65.8260   85.5600 C.2   237  GLY237      0.2309
    100  O         21.9020   66.2460   86.6890 O.2   237  GLY237     -0.2863
    101  N         25.4430   66.3090   86.6250 N.3   241  GLY241     -0.1210
    102  CA        26.1020   65.3830   85.7250 C.3   241  GLY241      0.1956
    103  C         27.1250   65.9920   84.7870 C.2   241  GLY241      0.2611
    104  O         28.2290   65.4570   84.6710 O.2   241  GLY241     -0.2717
    105  N         26.7880   67.0790   84.0900 N.am  242  ASP242     -0.1973
    106  CA        27.8010   67.7620   83.2960 C.3   242  ASP242      0.1709
    107  C         27.4720   69.2400   83.1280 C.2   242  ASP242      0.2293
    108  O         26.3390   69.6860   83.3290 O.2   242  ASP242     -0.2864
    109  CB        28.0070   67.1250   81.9170 C.3   242  ASP242      0.1436
    110  CG        26.8490   66.2780   81.4840 C.2   242  ASP242      0.3671
    111  OD1       26.8740   65.0480   81.7150 O.co2 242  ASP242     -0.2456
    112  OD2       25.9100   66.8460   80.8980 O.co2 242  ASP242     -0.2456
@<TRIPOS>BOND
     1    28    29    2
     2    28    27    1
     3    34    33    1
     4    33    32    1
     5    54    53    1
     6    54    55    1
     7    53    50    1
     8    30    27    1
     9    30    31    1
    10    27    26    1
    11    55    49    1
    12    32    31    1
    13    35    36    1
    14    50    49    1
    15    50    51    1
    16    40    39    1
    17    49    43   am
    18    52    51    2
    19    51    56   am
    20    41    42    1
    21    39    36    1
    22    36    37    1
    23    10     9   ar
    24    10     8   ar
    25    62    60    1
    26     9     7   ar
    27    43    42    1
    28    43    44    2
    29     8     6   ar
    30    56    57    1
    31    38    37    2
    32    42    45    1
    33     7     6   ar
    34     6     5    1
    35    57    60    1
    36    57    58    1
    37     5     2    1
    38    60    61    1
    39    47    46    2
    40    45    46    1
    41    46    48   am
    42    58    63   am
    43    58    59    2
    44    63    64    1
    45     2     3    1
    46     2     1    1
    47     4     3    2
    48     3    11   am
    49    24    23   ar
    50    13    14    2
    51    13    12    1
    52    87    85   ar
    53    87    88   ar
    54    11    17    1
    55    11    12    1
    56    17    16    1
    57    20    21    2
    58    20    19    1
    59    85    83   ar
    60   112   110   ar
    61    64    65    1
    62    16    15    1
    63    88    86   ar
    64    66    65    2
    65    12    15    1
    66   110   111   ar
    67   110   109    1
    68    23    25   ar
    69    23    22    1
    70    19    22    1
    71    19    18    1
    72    65    67   am
    73   109   106    1
    74    83    82    1
    75    83    84   ar
    76    86    84   ar
    77    82    79    1
    78   107   106    1
    79   107   108    2
    80    67    68    1
    81   106   105    1
    82    70    69    2
    83    69    78   am
    84    69    68    1
    85    79    78    1
    86    79    80    1
    87   105   103   am
    88    68    71    1
    89   104   103    2
    90   103   102    1
    91    81    80    2
    92    98    99    1
    93    98    97    1
    94    92    91    2
    95    99   100    2
    96    71    72    1
    97   102   101    1
    98    72    73    1
    99    97    91   am
   100    91    90    1
   101    73    74    1
   102    89    90    1
   103    90    93    1
   104    74    75    2
   105    93    95    1
   106    93    94    1
   107    75    77    1
   108    75    76    1
   109    94    96    1
