@<TRIPOS>MOLECULE
tmp/5t8sB01.pdb
 119 116 0 0 0
SMALL
GASTEIGER

@<TRIPOS>ATOM
      1  N         40.0630   86.8870   70.2630 N.3    14  HIS14      -0.1227
      2  CA        38.6230   86.9700   70.4530 C.3    14  HIS14       0.1737
      3  C         38.2440   86.1870   71.7070 C.2    14  HIS14       0.2438
      4  O         38.7380   85.0720   71.9080 O.2    14  HIS14      -0.2733
      5  CB        37.8860   86.4040   69.2300 C.3    14  HIS14       0.0758
      6  CG        36.3910   86.4710   69.3440 C.ar   14  HIS14       0.0818
      7  ND1       35.6620   85.5900   70.1130 N.ar   14  HIS14      -0.2268
      8  CD2       35.4930   87.3250   68.7960 C.ar   14  HIS14       0.1154
      9  CE1       34.3810   85.9070   70.0500 C.ar   14  HIS14       0.1986
     10  NE2       34.2480   86.9510   69.2490 N.ar   14  HIS14      -0.2212
     11  N         37.3650   86.7290   72.5580 N.am   15  PRO15      -0.2729
     12  CA        37.1240   86.0940   73.8690 C.3    15  PRO15       0.1401
     13  C         36.6140   84.6620   73.7940 C.2    15  PRO15       0.2269
     14  O         36.9980   83.8460   74.6430 O.2    15  PRO15      -0.2865
     15  CB        36.0970   87.0270   74.5320 C.3    15  PRO15       0.0296
     16  CG        35.5850   87.9440   73.4190 C.3    15  PRO15       0.0237
     17  CD        36.6700   88.0190   72.4010 C.3    15  PRO15       0.0939
     18  N         42.1780   91.4140   70.1890 N.3   153  ASP153     -0.1225
     19  CA        40.8240   91.0460   69.7790 C.3   153  ASP153      0.1805
     20  C         40.5370   91.5600   68.3630 C.2   153  ASP153      0.2598
     21  O         40.7550   92.7400   68.0810 O.2   153  ASP153     -0.2718
     22  CB        39.8630   91.6470   70.8110 C.3   153  ASP153      0.1424
     23  CG        38.4380   91.1300   70.7120 C.2   153  ASP153      0.3668
     24  OD1       38.1310   90.2930   69.8390 O.co2 153  ASP153     -0.2456
     25  OD2       37.6220   91.6030   71.5400 O.co2 153  ASP153     -0.2456
     26  N         40.0520   90.6800   67.4760 N.am  154  ALA154     -0.1966
     27  CA        39.7590   91.0680   66.0980 C.3   154  ALA154      0.1728
     28  C         38.8170   90.0540   65.4470 C.2   154  ALA154      0.2616
     29  O         38.7320   88.8930   65.8640 O.2   154  ALA154     -0.2715
     30  CB        41.0440   91.2040   65.2660 C.3   154  ALA154      0.0334
     31  N         38.1240   90.5170   64.3960 N.am  155  LYS155     -0.1977
     32  CA        37.2010   89.7070   63.6020 C.3   155  LYS155      0.1596
     33  C         37.3090   90.1140   62.1370 C.2   155  LYS155      0.2287
     34  O         37.6860   91.2460   61.8190 O.2   155  LYS155     -0.2864
     35  CB        35.7360   89.8660   64.0620 C.3   155  LYS155      0.0298
     36  CG        35.5110   89.5670   65.5430 C.3   155  LYS155      0.0038
     37  CD        34.0310   89.7420   65.9630 C.3   155  LYS155      0.0206
     38  CE        33.1280   88.6360   65.4070 C.3   155  LYS155      0.1093
     39  NZ        31.7450   88.7920   65.9660 N.3   155  LYS155     -0.1314
     40  N         37.3370   94.2170   61.8640 N.3   178  SER178     -0.1217
     41  CA        37.3810   95.0110   63.0780 C.3   178  SER178      0.1889
     42  C         38.5570   94.5340   63.9150 C.2   178  SER178      0.2288
     43  O         38.6710   93.3350   64.1880 O.2   178  SER178     -0.2866
     44  CB        36.0740   94.8810   63.8680 C.3   178  SER178      0.2089
     45  OG        35.0030   95.4990   63.1740 O.3   178  SER178     -0.2183
     46  N         36.5430   98.7280   61.3110 N.3   217  ASN217     -0.1226
     47  CA        36.1110   99.2570   62.6040 C.3   217  ASN217      0.1770
     48  C         34.8790  100.1600   62.4440 C.2   217  ASN217      0.2439
     49  O         34.9380  101.3540   62.7550 O.2   217  ASN217     -0.2733
     50  CB        37.2450  100.0110   63.2940 C.3   217  ASN217      0.1168
     51  CG        38.3060   99.0870   63.8470 C.2   217  ASN217      0.2627
     52  OD1       38.3060   97.8920   63.5640 O.2   217  ASN217     -0.2716
     53  ND2       39.2100   99.6320   64.6490 N.am  217  ASN217     -0.0877
     54  N         33.7580   99.6220   61.9490 N.am  218  PRO218     -0.2718
     55  CA        32.6680  100.4970   61.4920 C.3   218  PRO218      0.1535
     56  C         31.9110  101.2180   62.6050 C.2   218  PRO218      0.2599
     57  O         31.0950  102.0910   62.2810 O.2   218  PRO218     -0.2715
     58  CB        31.7440   99.5430   60.7160 C.3   218  PRO218      0.0310
     59  CG        32.5570   98.2920   60.4780 C.3   218  PRO218      0.0237
     60  CD        33.4780   98.2040   61.6650 C.3   218  PRO218      0.0939
     61  N         32.1340  100.9090   63.8880 N.am  219  THR219     -0.1951
     62  CA        31.5460  101.7550   64.9240 C.3   219  THR219      0.1897
     63  C         32.3390  103.0340   65.1300 C.2   219  THR219      0.2313
     64  O         31.8170  103.9790   65.7330 O.2   219  THR219     -0.2863
     65  CB        31.4500  101.0530   66.2850 C.3   219  THR219      0.1794
     66  OG1       32.7200  101.1260   66.9530 O.3   219  THR219     -0.2208
     67  CG2       30.9810   99.6000   66.1560 C.3   219  THR219      0.0378
     68  N         35.3710  103.1420   66.7520 N.3   221  ARG221     -0.1231
     69  CA        36.3030  102.9890   67.8610 C.3   221  ARG221      0.1694
     70  C         36.2490  101.5430   68.3200 C.2   221  ARG221      0.2592
     71  O         35.1690  100.9530   68.3820 O.2   221  ARG221     -0.2718
     72  CB        35.9630  103.9310   69.0280 C.3   221  ARG221      0.0321
     73  CG        37.0350  103.9990   70.1210 C.3   221  ARG221      0.0489
     74  CD        36.6190  104.9320   71.2610 C.3   221  ARG221      0.2205
     75  NE        37.7250  105.2590   72.1650 N.pl3 221  ARG221     -0.0865
     76  CZ        37.8650  104.7850   73.4030 C.cat 221  ARG221      0.5346
     77  NH1       36.9730  103.9430   73.9210 N.pl3 221  ARG221      0.1354
     78  NH2       38.9070  105.1560   74.1310 N.pl3 221  ARG221      0.1354
     79  N         37.4220  100.9720   68.6260 N.am  222  PHE222     -0.1976
     80  CA        37.5270   99.5850   69.1130 C.3   222  PHE222      0.1639
     81  C         38.7360   99.5540   70.0560 C.2   222  PHE222      0.2290
     82  O         39.7590   98.9250   69.8090 O.2   222  PHE222     -0.2864
     83  CB        37.6450   98.6000   67.9450 C.3   222  PHE222      0.0560
     84  CG        37.5310   97.1210   68.3190 C.ar  222  PHE222     -0.0200
     85  CD1       37.4750   96.6800   69.6410 C.ar  222  PHE222     -0.0042
     86  CD2       37.4890   96.1700   67.2980 C.ar  222  PHE222     -0.0042
     87  CE1       37.3880   95.3190   69.9280 C.ar  222  PHE222     -0.0003
     88  CE2       37.4170   94.8270   67.5650 C.ar  222  PHE222     -0.0003
     89  CZ        37.3530   94.3860   68.8860 C.ar  222  PHE222     -0.0000
     90  N         38.1130   99.3260   73.8510 N.3   224  ILE224     -0.1231
     91  CA        37.6540   98.2910   74.7760 C.3   224  ILE224      0.1692
     92  C         37.4800   96.9930   74.0010 C.2   224  ILE224      0.2592
     93  O         36.9200   96.9860   72.8990 O.2   224  ILE224     -0.2718
     94  CB        36.3460   98.7280   75.4500 C.3   224  ILE224      0.0266
     95  CG1       36.6070   99.9140   76.3790 C.3   224  ILE224      0.0019
     96  CG2       35.7110   97.5620   76.2300 C.3   224  ILE224      0.0020
     97  CD1       35.3770  100.7300   76.6560 C.3   224  ILE224      0.0001
     98  N         37.9780   95.8900   74.5540 N.am  225  GLY225     -0.1957
     99  CA        37.8770   94.6310   73.8450 C.3   225  GLY225      0.1869
    100  C         38.1510   93.4680   74.7700 C.2   225  GLY225      0.2309
    101  O         38.1720   93.6180   75.9930 O.2   225  GLY225     -0.2863
    102  N         34.9390   93.5310   77.1040 N.3   229  GLY229     -0.1210
    103  CA        33.9330   93.9800   76.1530 C.3   229  GLY229      0.1956
    104  C         32.9080   92.9210   75.7810 C.2   229  GLY229      0.2612
    105  O         31.8010   93.2720   75.3610 O.2   229  GLY229     -0.2717
    106  N         33.2390   91.6360   75.9390 N.am  230  ASP230     -0.1959
    107  CA        32.3840   90.5780   75.3990 C.3   230  ASP230      0.1840
    108  C         32.7800   89.2600   76.0550 C.2   230  ASP230      0.2622
    109  O         33.8780   88.7550   75.8010 O.2   230  ASP230     -0.2715
    110  CB        32.5470   90.5130   73.8800 C.3   230  ASP230      0.1450
    111  CG        31.6540   89.4720   73.2230 C.2   230  ASP230      0.3671
    112  OD1       30.4550   89.4330   73.5450 O.co2 230  ASP230     -0.2456
    113  OD2       32.1590   88.7100   72.3600 O.co2 230  ASP230     -0.2456
    114  N         31.8940   88.7130   76.8810 N.am  231  CYS231     -0.1968
    115  CA        32.1660   87.4540   77.5630 C.3   231  CYS231      0.1712
    116  C         32.4620   86.3450   76.5460 C.2   231  CYS231      0.2296
    117  O         31.8440   86.2770   75.4740 O.2   231  CYS231     -0.2864
    118  CB        30.9620   87.0960   78.4480 C.3   231  CYS231      0.0983
    119  SG        31.0020   85.4660   79.2020 S.3   231  CYS231     -0.0798
@<TRIPOS>BOND
     1    59    58    1
     2    59    60    1
     3    58    55    1
     4    46    47    1
     5    55    54    1
     6    55    56    1
     7    60    54    1
     8    34    33    2
     9    40    41    1
    10    54    48   am
    11    33    32    1
    12    57    56    2
    13    48    47    1
    14    48    49    2
    15    47    50    1
    16    56    61   am
    17    41    44    1
    18    41    42    1
    19    45    44    1
    20    50    51    1
    21    52    51    2
    22    32    35    1
    23    32    31    1
    24    51    53   am
    25    61    62    1
    26    42    43    2
    27    35    36    1
    28    31    28   am
    29    62    63    1
    30    62    65    1
    31    63    64    2
    32    30    27    1
    33    38    37    1
    34    38    39    1
    35    28    29    2
    36    28    27    1
    37    36    37    1
    38    27    26    1
    39    67    65    1
    40    65    66    1
    41    68    69    1
    42    86    88   ar
    43    86    84   ar
    44    26    20   am
    45    88    89   ar
    46    69    70    1
    47    69    72    1
    48    83    84    1
    49    83    80    1
    50    21    20    2
    51    84    85   ar
    52    70    71    2
    53    70    79   am
    54    20    19    1
    55    79    80    1
    56     8    10   ar
    57     8     6   ar
    58    89    87   ar
    59    72    73    1
    60    80    81    1
    61     5     6    1
    62     5     2    1
    63    10     9   ar
    64     6     7   ar
    65    85    87   ar
    66    19    18    1
    67    19    22    1
    68    82    81    2
    69    24    23   ar
    70     9     7   ar
    71    73    74    1
    72     1     2    1
    73     2     3    1
    74    23    22    1
    75    23    25   ar
    76    74    75    1
    77     3     4    2
    78     3    11   am
    79    75    76    2
    80   113   111   ar
    81    17    11    1
    82    17    16    1
    83    11    12    1
    84    93    92    2
    85   111   112   ar
    86   111   110    1
    87    76    77    1
    88    76    78    1
    89    16    15    1
    90    13    12    1
    91    13    14    2
    92    99    98    1
    93    99   100    1
    94    90    91    1
    95    12    15    1
    96   110   107    1
    97    92    98   am
    98    92    91    1
    99   100   101    2
   100    91    94    1
   101   105   104    2
   102   107   106    1
   103   107   108    1
   104    94    96    1
   105    94    95    1
   106   117   116    2
   107   104   106   am
   108   104   103    1
   109   109   108    2
   110   108   114   am
   111   103   102    1
   112    95    97    1
   113   116   115    1
   114   114   115    1
   115   115   118    1
   116   118   119    1
