@<TRIPOS>MOLECULE
tmp/5t8uB00.pdb
 141 132 0 0 0
SMALL
GASTEIGER

@<TRIPOS>ATOM
      1  N        119.4670  692.9790  269.8440 N.3    12  ILE12      -0.1245
      2  CA       118.0640  693.2190  270.1730 C.3    12  ILE12       0.1561
      3  C        117.5080  694.3740  269.3490 C.2    12  ILE12       0.2260
      4  O        116.3860  694.3020  268.8320 O.2    12  ILE12      -0.2867
      5  CB       117.9010  693.4660  271.6870 C.3    12  ILE12       0.0252
      6  CG1      116.4450  693.7910  272.0380 C.3    12  ILE12       0.0019
      7  CG2      118.8060  694.5980  272.1650 C.3    12  ILE12       0.0019
      8  CD1      115.4580  692.7100  271.6600 C.3    12  ILE12       0.0001
      9  N        114.4940  694.0400  266.6250 N.3    16  LEU16      -0.1245
     10  CA       113.2930  694.8380  266.8500 C.3    16  LEU16       0.1561
     11  C        113.0080  695.7460  265.6610 C.2    16  LEU16       0.2260
     12  O        111.8420  695.9740  265.3180 O.2    16  LEU16      -0.2867
     13  CB       113.4370  695.6550  268.1360 C.3    16  LEU16       0.0270
     14  CG       113.1000  694.9220  269.4400 C.3    16  LEU16       0.0019
     15  CD1      113.5840  695.7150  270.6460 C.3    16  LEU16       0.0001
     16  CD2      111.6010  694.6620  269.5510 C.3    16  LEU16       0.0001
     17  N        113.7960  684.7750  265.8100 N.3    49  TRP49      -0.1241
     18  CA       115.0020  685.5590  266.0430 C.3    49  TRP49       0.1605
     19  C        115.5170  685.3310  267.4580 C.2    49  TRP49       0.2264
     20  O        114.7400  685.1120  268.3890 O.2    49  TRP49      -0.2867
     21  CB       114.7440  687.0550  265.8050 C.3    49  TRP49       0.0550
     22  CG       113.3980  687.5560  266.2820 C.ar   49  TRP49       0.0003
     23  CD1      112.1720  687.2190  265.7820 C.ar   49  TRP49       0.0946
     24  CD2      113.1530  688.5030  267.3310 C.ar   49  TRP49       0.0152
     25  NE1      111.1810  687.8870  266.4590 N.ar   49  TRP49      -0.2442
     26  CE2      111.7570  688.6820  267.4140 C.ar   49  TRP49       0.0810
     27  CE3      113.9760  689.2120  268.2100 C.ar   49  TRP49       0.0012
     28  CZ2      111.1680  689.5390  268.3400 C.ar   49  TRP49       0.0191
     29  CZ3      113.3890  690.0630  269.1280 C.ar   49  TRP49       0.0001
     30  CH2      111.9990  690.2180  269.1860 C.ar   49  TRP49       0.0015
     31  N        114.7980  693.8680  277.8930 N.3    56  ILE56      -0.1245
     32  CA       113.7990  694.5300  277.0670 C.3    56  ILE56       0.1561
     33  C        112.6300  694.9050  277.9630 C.2    56  ILE56       0.2260
     34  O        111.9710  694.0250  278.5330 O.2    56  ILE56      -0.2867
     35  CB       113.3380  693.6420  275.9020 C.3    56  ILE56       0.0252
     36  CG1      114.5440  693.0500  275.1700 C.3    56  ILE56       0.0019
     37  CG2      112.4870  694.4470  274.9360 C.3    56  ILE56       0.0019
     38  CD1      115.0280  691.7260  275.7380 C.3    56  ILE56       0.0001
     39  N        110.8530  698.1040  273.8180 N.3    82  ARG82      -0.1245
     40  CA       110.0520  697.6350  272.7030 C.3    82  ARG82       0.1563
     41  C        108.7870  698.4790  272.5650 C.2    82  ARG82       0.2260
     42  O        108.4830  699.3390  273.3960 O.2    82  ARG82      -0.2867
     43  CB       109.7030  696.1580  272.8840 C.3    82  ARG82       0.0307
     44  CG       108.8290  695.8510  274.0920 C.3    82  ARG82       0.0489
     45  CD       108.7870  694.3560  274.3660 C.3    82  ARG82       0.2205
     46  NE       107.7980  694.0080  275.3830 N.pl3  82  ARG82      -0.0865
     47  CZ       108.0320  693.9860  276.6930 C.cat  82  ARG82       0.5346
     48  NH1      109.2290  694.2930  277.1750 N.pl3  82  ARG82       0.1354
     49  NH2      107.0580  693.6540  277.5290 N.pl3  82  ARG82       0.1354
     50  N        103.4800  695.0560  278.4050 N.3    86  GLY86      -0.1210
     51  CA       104.1250  694.0900  279.2640 C.3    86  GLY86       0.1956
     52  C        105.2870  694.6930  280.0300 C.2    86  GLY86       0.2612
     53  O        105.4810  695.9120  280.0900 O.2    86  GLY86      -0.2717
     54  N        106.0840  693.8030  280.6150 N.am   87  GLY87      -0.1956
     55  CA       107.1630  694.2200  281.4890 C.3    87  GLY87       0.1869
     56  C        108.5460  693.8030  281.0350 C.2    87  GLY87       0.2309
     57  O        108.7260  693.3040  279.9200 O.2    87  GLY87      -0.2863
     58  N        112.0140  691.8370  280.4910 N.3    89  VAL89      -0.1245
     59  CA       112.4380  690.4550  280.3040 C.3    89  VAL89       0.1561
     60  C        113.9150  690.4480  279.9350 C.2    89  VAL89       0.2260
     61  O        114.4590  691.4330  279.4310 O.2    89  VAL89      -0.2867
     62  CB       111.6130  689.7210  279.2210 C.3    89  VAL89       0.0252
     63  CG1      110.1750  689.5350  279.6840 C.3    89  VAL89       0.0019
     64  CG2      111.6600  690.4790  277.9030 C.3    89  VAL89       0.0019
     65  N        116.9100  688.4480  277.7780 N.3    91  HIS91      -0.1241
     66  CA       117.1540  687.5890  276.6310 C.3    91  HIS91       0.1621
     67  C        118.6340  687.2500  276.5320 C.2    91  HIS91       0.2264
     68  O        119.4960  688.0840  276.8290 O.2    91  HIS91      -0.2867
     69  CB       116.7160  688.2620  275.3260 C.3    91  HIS91       0.0745
     70  CG       115.2330  688.3450  275.1450 C.ar   91  HIS91       0.0817
     71  ND1      114.6540  689.0410  274.1060 N.ar   91  HIS91      -0.2268
     72  CD2      114.2110  687.8180  275.8600 C.ar   91  HIS91       0.1154
     73  CE1      113.3400  688.9430  274.1910 C.ar   91  HIS91       0.1986
     74  NE2      113.0450  688.2060  275.2460 N.ar   91  HIS91      -0.2212
     75  N        112.8490  683.9190  270.2040 N.3    97  CYS97      -0.1235
     76  CA       111.8360  684.9590  270.0900 C.3    97  CYS97       0.1677
     77  C        111.0270  684.7220  268.8250 C.2    97  CYS97       0.2270
     78  O        111.5960  684.5320  267.7420 O.2    97  CYS97      -0.2867
     79  CB       112.4600  686.3580  270.0620 C.3    97  CYS97       0.0956
     80  SG       113.4040  686.7800  271.5420 S.3    97  CYS97      -0.0801
     81  N         98.8620  686.0450  278.0270 N.3   132  ASN132     -0.1225
     82  CA       100.2210  686.2470  277.5380 C.3   132  ASN132      0.1785
     83  C        101.2670  685.2860  278.0970 C.2   132  ASN132      0.2597
     84  O        102.4610  685.5770  277.9550 O.2   132  ASN132     -0.2718
     85  CB       100.6590  687.6780  277.8640 C.3   132  ASN132      0.1169
     86  CG       100.7840  687.9180  279.3590 C.2   132  ASN132      0.2627
     87  OD1      100.1340  687.2510  280.1640 O.2   132  ASN132     -0.2716
     88  ND2      101.6210  688.8770  279.7350 N.am  132  ASN132     -0.0877
     89  N        100.8950  684.1670  278.7150 N.am  133  ASP133     -0.1974
     90  CA       101.8810  683.2920  279.3340 C.3   133  ASP133      0.1709
     91  C        101.5840  681.8390  278.9930 C.2   133  ASP133      0.2293
     92  O        100.4240  681.4350  278.8730 O.2   133  ASP133     -0.2864
     93  CB       101.9150  683.4740  280.8610 C.3   133  ASP133      0.1436
     94  CG       102.3810  684.8590  281.2770 C.2   133  ASP133      0.3671
     95  OD1      103.4990  685.2590  280.8860 O.co2 133  ASP133     -0.2456
     96  OD2      101.6270  685.5490  281.9930 O.co2 133  ASP133     -0.2456
     97  N        106.0440  679.2370  284.3590 N.3   140  LYS140     -0.1245
     98  CA       106.0630  679.9940  283.1160 C.3   140  LYS140      0.1561
     99  C        107.2680  679.6120  282.2680 C.2   140  LYS140      0.2260
    100  O        108.4140  679.7110  282.7150 O.2   140  LYS140     -0.2867
    101  CB       106.0780  681.4900  283.4230 C.3   140  LYS140      0.0271
    102  CG       106.6530  682.3610  282.3140 C.3   140  LYS140      0.0035
    103  CD       106.1080  683.7750  282.4000 C.3   140  LYS140      0.0206
    104  CE       107.0940  684.7980  281.8610 C.3   140  LYS140      0.1093
    105  NZ       106.5010  686.1630  281.8180 N.3   140  LYS140     -0.1314
    106  N        106.4340  684.0760  277.7190 N.3   143  GLY143     -0.1210
    107  CA       105.6420  685.2750  277.9010 C.3   143  GLY143      0.1956
    108  C        105.5420  686.0360  276.5970 C.2   143  GLY143      0.2613
    109  O        106.4670  686.0440  275.7850 O.2   143  GLY143     -0.2717
    110  N        104.3970  686.6870  276.4030 N.am  144  SER144     -0.1938
    111  CA       104.0720  687.3010  275.1240 C.3   144  SER144      0.2055
    112  C        103.6180  688.7430  275.3160 C.2   144  SER144      0.2642
    113  O        103.3430  689.1980  276.4290 O.2   144  SER144     -0.2714
    114  CB       102.9830  686.5050  274.3940 C.3   144  SER144      0.2130
    115  OG       103.3450  685.1400  274.2840 O.3   144  SER144     -0.2179
    116  N        103.5440  689.4560  274.1940 N.am  145  ALA145     -0.1977
    117  CA       103.0680  690.8300  274.1550 C.3   145  ALA145      0.1597
    118  C        102.5560  691.1140  272.7500 C.2   145  ALA145      0.2287
    119  O        102.9910  690.4870  271.7760 O.2   145  ALA145     -0.2864
    120  CB       104.1680  691.8220  274.5500 C.3   145  ALA145      0.0319
    121  N        104.2940  688.9770  269.5900 N.3   156  HIS156     -0.1226
    122  CA       105.6610  688.4960  269.7430 C.3   156  HIS156      0.1752
    123  C        105.8980  688.0540  271.1790 C.2   156  HIS156      0.2597
    124  O        105.4050  688.6810  272.1230 O.2   156  HIS156     -0.2718
    125  CB       106.6880  689.5640  269.3350 C.3   156  HIS156      0.0759
    126  CG       106.7890  690.7210  270.2810 C.ar  156  HIS156      0.0818
    127  ND1      107.3160  690.6070  271.5500 N.ar  156  HIS156     -0.2268
    128  CD2      106.4590  692.0250  270.1290 C.ar  156  HIS156      0.1154
    129  CE1      107.2870  691.7870  272.1440 C.ar  156  HIS156      0.1986
    130  NE2      106.7730  692.6650  271.3030 N.ar  156  HIS156     -0.2212
    131  N        106.6510  686.9680  271.3380 N.am  157  GLY157     -0.1942
    132  CA       106.8950  686.4060  272.6480 C.3   157  GLY157      0.2014
    133  C        108.2020  685.6450  272.6790 C.2   157  GLY157      0.2639
    134  O        108.8890  685.5000  271.6650 O.2   157  GLY157     -0.2714
    135  N        108.5410  685.1560  273.8690 N.am  158  THR158     -0.1950
    136  CA       109.7860  684.4460  274.1000 C.3   158  THR158      0.1897
    137  C        109.4940  683.0060  274.5010 C.2   158  THR158      0.2313
    138  O        108.3910  682.6690  274.9380 O.2   158  THR158     -0.2863
    139  CB       110.6270  685.1360  275.1860 C.3   158  THR158      0.1794
    140  OG1      111.8320  684.3940  275.4100 O.3   158  THR158     -0.2208
    141  CG2      109.8460  685.2510  276.4920 C.3   158  THR158      0.0378
@<TRIPOS>BOND
     1    12    11    2
     2    11    10    1
     3    23    22   ar
     4    23    25   ar
     5    21    18    1
     6    21    22    1
     7    17    18    1
     8    18    19    1
     9    22    24   ar
    10    25    26   ar
    11     9    10    1
    12    10    13    1
    13    24    26   ar
    14    24    27   ar
    15    26    28   ar
    16    19    20    2
    17    78    77    2
    18    13    14    1
    19    27    29   ar
    20    28    30   ar
    21    77    76    1
    22     4     3    2
    23    29    30   ar
    24   125   122    1
    25   125   126    1
    26     3     2    1
    27    14    16    1
    28    14    15    1
    29   121   122    1
    30   122   123    1
    31     1     2    1
    32    79    76    1
    33    79    80    1
    34    76    75    1
    35   128   126   ar
    36   128   130   ar
    37     2     5    1
    38   126   127   ar
    39   123   131   am
    40   123   124    2
    41   130   129   ar
    42   131   132    1
    43   127   129   ar
    44     8     6    1
    45   134   133    2
    46     5     6    1
    47     5     7    1
    48   119   118    2
    49    41    40    1
    50    41    42    2
    51   132   133    1
    52   133   135   am
    53    40    43    1
    54    40    39    1
    55   118   117    1
    56    43    44    1
    57   135   136    1
    58    44    45    1
    59   136   137    1
    60   136   139    1
    61    71    73   ar
    62    71    70   ar
    63   117   116    1
    64   117   120    1
    65    73    74   ar
    66   116   112   am
    67   115   114    1
    68    45    46    1
    69   114   111    1
    70   137   138    2
    71    37    35    1
    72   111   112    1
    73   111   110    1
    74    70    69    1
    75    70    72   ar
    76    36    38    1
    77    36    35    1
    78   139   140    1
    79   139   141    1
    80    74    72   ar
    81   112   113    2
    82    69    66    1
    83    46    47    2
    84   109   108    2
    85    35    32    1
    86   110   108   am
    87    67    66    1
    88    67    68    2
    89   108   107    1
    90    66    65    1
    91    47    48    1
    92    47    49    1
    93    32    31    1
    94    32    33    1
    95    82    85    1
    96    82    81    1
    97    82    83    1
    98   106   107    1
    99    85    86    1
   100    64    62    1
   101    84    83    2
   102    33    34    2
   103    83    89   am
   104    50    51    1
   105    89    90    1
   106    92    91    2
   107    91    90    1
   108    62    63    1
   109    62    59    1
   110    51    52    1
   111    90    93    1
   112    86    88   am
   113    86    87    2
   114    61    60    2
   115    57    56    2
   116    60    59    1
   117    52    53    2
   118    52    54   am
   119    59    58    1
   120    54    55    1
   121    93    94    1
   122    95    94   ar
   123    56    55    1
   124    94    96   ar
   125   105   104    1
   126   104   103    1
   127    99   100    2
   128    99    98    1
   129   102   103    1
   130   102   101    1
   131    98   101    1
   132    98    97    1
