@<TRIPOS>MOLECULE
tmp/5t91A00.pdb
 115 110 0 0 0
SMALL
GASTEIGER

@<TRIPOS>ATOM
      1  N          7.1280    1.5820   -7.5310 N.3    13  HIS13      -0.1226
      2  CA         6.4780    0.4260   -8.1270 C.3    13  HIS13       0.1752
      3  C          5.1660    0.7990   -8.7990 C.2    13  HIS13       0.2595
      4  O          4.2030    1.1640   -8.1380 O.2    13  HIS13      -0.2718
      5  CB         6.2360   -0.6130   -7.0340 C.3    13  HIS13       0.0759
      6  CG         5.9280   -1.9810   -7.5470 C.ar   13  HIS13       0.0818
      7  ND1        4.7570   -2.6410   -7.2470 N.ar   13  HIS13      -0.2268
      8  CD2        6.6480   -2.8230   -8.3250 C.ar   13  HIS13       0.1154
      9  CE1        4.7610   -3.8280   -7.8310 C.ar   13  HIS13       0.1986
     10  NE2        5.8990   -3.9640   -8.4900 N.ar   13  HIS13      -0.2212
     11  N          5.1390    0.7200  -10.1330 N.am   14  ARG14      -0.1980
     12  CA         4.0150    1.2290  -10.9200 C.3    14  ARG14       0.1597
     13  C          3.7490    2.7130  -10.6300 C.2    14  ARG14       0.2287
     14  O          2.6200    3.1800  -10.7650 O.2    14  ARG14      -0.2864
     15  CB         2.7550    0.3860  -10.6750 C.3    14  ARG14       0.0334
     16  CG         3.0570   -1.0910  -10.5180 C.3    14  ARG14       0.0492
     17  CD         1.8350   -1.9900  -10.5520 C.3    14  ARG14       0.2205
     18  NE         2.2570   -3.3410  -10.2320 N.pl3  14  ARG14      -0.0865
     19  CZ         1.4700   -4.2930   -9.7310 C.cat  14  ARG14       0.5346
     20  NH1        0.1830   -4.0670   -9.5130 N.pl3  14  ARG14       0.1354
     21  NH2        1.9750   -5.4820   -9.4410 N.pl3  14  ARG14       0.1354
     22  N          8.6660    2.6370  -12.3340 N.3    40  GLU40      -0.1245
     23  CA         8.6680    1.2300  -12.7310 C.3    40  GLU40       0.1567
     24  C          7.5080    0.9170  -13.6930 C.2    40  GLU40       0.2260
     25  O          6.3670    1.2800  -13.4410 O.2    40  GLU40      -0.2867
     26  CB         8.6160    0.3340  -11.4700 C.3    40  GLU40       0.0388
     27  CG         8.8450   -1.1410  -11.7540 C.3    40  GLU40       0.1160
     28  CD         7.5800   -1.9850  -11.7210 C.2    40  GLU40       0.3649
     29  OE1        6.4610   -1.4410  -11.5550 O.co2  40  GLU40      -0.2457
     30  OE2        7.7270   -3.2180  -11.8540 O.co2  40  GLU40      -0.2457
     31  N          5.5920   -2.0110  -16.4980 N.3    42  ASP42      -0.1239
     32  CA         5.3500   -3.3530  -17.0350 C.3    42  ASP42       0.1674
     33  C          4.8210   -3.1780  -18.4500 C.2    42  ASP42       0.2266
     34  O          4.0300   -2.2810  -18.6660 O.2    42  ASP42      -0.2867
     35  CB         4.3110   -4.1320  -16.2310 C.3    42  ASP42       0.1410
     36  CG         4.7580   -4.4250  -14.8080 C.2    42  ASP42       0.3668
     37  OD1        5.8900   -4.9300  -14.6310 O.co2  42  ASP42      -0.2456
     38  OD2        3.9700   -4.1590  -13.8720 O.co2  42  ASP42      -0.2456
     39  N          0.1910   -3.9590  -15.9630 N.3    55  HIS55      -0.1241
     40  CA         0.7750   -5.0720  -15.2360 C.3    55  HIS55       0.1621
     41  C          0.2410   -6.4340  -15.6840 C.2    55  HIS55       0.2264
     42  O          1.0170   -7.3850  -15.8560 O.2    55  HIS55      -0.2867
     43  CB         0.5460   -4.9150  -13.7400 C.3    55  HIS55       0.0745
     44  CG         1.0660   -6.0710  -12.9520 C.ar   55  HIS55       0.0817
     45  ND1        2.4140   -6.3060  -12.7820 N.ar   55  HIS55      -0.2268
     46  CD2        0.4250   -7.0850  -12.3250 C.ar   55  HIS55       0.1154
     47  CE1        2.5800   -7.4000  -12.0600 C.ar   55  HIS55       0.1986
     48  NE2        1.3890   -7.8860  -11.7610 N.ar   55  HIS55      -0.2212
     49  N         10.0110   -3.8010  -17.1610 N.3   122  GLU122     -0.1245
     50  CA         9.9330   -5.2590  -17.2300 C.3   122  GLU122      0.1567
     51  C          9.8540   -5.7630  -18.6660 C.2   122  GLU122      0.2260
     52  O          9.2000   -5.1560  -19.5050 O.2   122  GLU122     -0.2867
     53  CB         8.7290   -5.8060  -16.4630 C.3   122  GLU122      0.0388
     54  CG         8.8420   -7.3070  -16.2280 C.3   122  GLU122      0.1160
     55  CD         7.5360   -8.0650  -16.3940 C.2   122  GLU122      0.3649
     56  OE1        6.6560   -7.5950  -17.1430 O.co2 122  GLU122     -0.2457
     57  OE2        7.3970   -9.1420  -15.7800 O.co2 122  GLU122     -0.2457
     58  N         14.1880   -5.2260  -15.9660 N.3   153  GLN153     -0.1245
     59  CA        13.9170   -6.2990  -15.0150 C.3   153  GLN153      0.1566
     60  C         13.1570   -7.4120  -15.7010 C.2   153  GLN153      0.2260
     61  O         12.3560   -7.1540  -16.6140 O.2   153  GLN153     -0.2867
     62  CB        13.1040   -5.7770  -13.8200 C.3   153  GLN153      0.0367
     63  CG        11.7740   -5.1760  -14.2750 C.3   153  GLN153      0.0905
     64  CD        10.8280   -4.8190  -13.1550 C.2   153  GLN153      0.2608
     65  OE1       10.9380   -5.3250  -12.0330 O.2   153  GLN153     -0.2717
     66  NE2        9.8850   -3.9230  -13.4490 N.am  153  GLN153     -0.0878
     67  N         11.5690  -11.7540  -14.8770 N.3   155  PHE155     -0.1241
     68  CA        11.6310  -13.1250  -14.3590 C.3   155  PHE155      0.1605
     69  C         12.3440  -14.0640  -15.3440 C.2   155  PHE155      0.2264
     70  O         12.9190  -15.0830  -14.9470 O.2   155  PHE155     -0.2867
     71  CB        10.2310  -13.6720  -14.0620 C.3   155  PHE155      0.0534
     72  CG         9.5620  -13.0450  -12.8690 C.ar  155  PHE155     -0.0203
     73  CD1        9.9350  -13.3890  -11.5750 C.ar  155  PHE155     -0.0042
     74  CD2        8.5350  -12.1330  -13.0410 C.ar  155  PHE155     -0.0042
     75  CE1        9.3050  -12.8140  -10.4710 C.ar  155  PHE155     -0.0003
     76  CE2        7.9030  -11.5590  -11.9580 C.ar  155  PHE155     -0.0003
     77  CZ         8.2910  -11.8970  -10.6590 C.ar  155  PHE155     -0.0000
     78  N         14.6490  -10.9480  -11.7170 N.3   175  LEU175     -0.1245
     79  CA        13.5630  -11.0590  -10.7540 C.3   175  LEU175      0.1561
     80  C         13.4410  -12.4940  -10.2610 C.2   175  LEU175      0.2260
     81  O         13.5770  -13.4450  -11.0360 O.2   175  LEU175     -0.2867
     82  CB        12.2460  -10.5950  -11.3830 C.3   175  LEU175      0.0270
     83  CG        12.1690   -9.1200  -11.7810 C.3   175  LEU175      0.0019
     84  CD1       10.8600   -8.8370  -12.4910 C.3   175  LEU175      0.0001
     85  CD2       12.3200   -8.2180  -10.5480 C.3   175  LEU175      0.0001
     86  N         10.9370   -6.7920   -3.8090 N.3   224  TYR224     -0.1227
     87  CA         9.5840   -6.2840   -4.0300 C.3   224  TYR224      0.1736
     88  C          8.6290   -7.0900   -3.1610 C.2   224  TYR224      0.2596
     89  O          8.9760   -8.1930   -2.7470 O.2   224  TYR224     -0.2718
     90  CB         9.1840   -6.4120   -5.5180 C.3   224  TYR224      0.0548
     91  CG         9.0920   -7.8600   -5.9630 C.ar  224  TYR224     -0.0200
     92  CD1        7.9110   -8.5800   -5.8040 C.ar  224  TYR224     -0.0009
     93  CD2       10.1900   -8.5120   -6.5170 C.ar  224  TYR224     -0.0009
     94  CE1        7.8300   -9.9220   -6.1770 C.ar  224  TYR224      0.0417
     95  CE2       10.1150   -9.8500   -6.9020 C.ar  224  TYR224      0.0417
     96  CZ         8.9290  -10.5410   -6.7280 C.ar  224  TYR224      0.1957
     97  OH         8.8500  -11.8670   -7.0960 O.3   224  TYR224     -0.2866
     98  N          7.4440   -6.5640   -2.8570 N.am  225  THR225     -0.1953
     99  CA         7.0790   -5.1600   -3.0120 C.3   225  THR225      0.1897
    100  C          6.9730   -4.6330   -1.5990 C.2   225  THR225      0.2313
    101  O          6.1020   -5.0770   -0.8440 O.2   225  THR225     -0.2863
    102  CB         5.7470   -4.9770   -3.7560 C.3   225  THR225      0.1794
    103  OG1        5.8680   -5.5240   -5.0790 O.3   225  THR225     -0.2208
    104  CG2        5.3840   -3.5000   -3.8680 C.3   225  THR225      0.0378
    105  N         11.5700   -2.0160   -4.4620 N.3   244  PHE244     -0.1241
    106  CA        10.3490   -1.6710   -5.1930 C.3   244  PHE244      0.1605
    107  C          9.2700   -1.3890   -4.1610 C.2   244  PHE244      0.2264
    108  O          8.9440   -2.2720   -3.3540 O.2   244  PHE244     -0.2867
    109  CB         9.8700   -2.8020   -6.1180 C.3   244  PHE244      0.0534
    110  CG        10.8480   -3.2210   -7.1900 C.ar  244  PHE244     -0.0203
    111  CD1       11.8350   -4.1640   -6.9380 C.ar  244  PHE244     -0.0042
    112  CD2       10.7140   -2.7330   -8.4990 C.ar  244  PHE244     -0.0042
    113  CE1       12.7040   -4.5770   -7.9460 C.ar  244  PHE244     -0.0003
    114  CE2       11.5790   -3.1400   -9.4970 C.ar  244  PHE244     -0.0003
    115  CZ        12.5830   -4.0580   -9.2230 C.ar  244  PHE244     -0.0000
@<TRIPOS>BOND
     1    52    51    2
     2    51    50    1
     3    34    33    2
     4    33    32    1
     5    50    49    1
     6    50    53    1
     7    56    55   ar
     8    32    31    1
     9    32    35    1
    10    61    60    2
    11    53    54    1
    12    55    54    1
    13    55    57   ar
    14    35    36    1
    15    58    59    1
    16    39    40    1
    17    42    41    2
    18    60    59    1
    19    41    40    1
    20    69    70    2
    21    69    68    1
    22    40    43    1
    23    59    62    1
    24    67    68    1
    25    36    37   ar
    26    36    38   ar
    27    68    71    1
    28    63    62    1
    29    63    64    1
    30    71    72    1
    31    43    44    1
    32    24    25    2
    33    24    23    1
    34    66    64   am
    35    64    65    2
    36    74    72   ar
    37    74    76   ar
    38    44    45   ar
    39    44    46   ar
    40    72    73   ar
    41    45    47   ar
    42    23    22    1
    43    23    26    1
    44    84    83    1
    45    46    48   ar
    46    47    48   ar
    47    76    77   ar
    48    30    28   ar
    49    83    82    1
    50    83    85    1
    51    27    28    1
    52    27    26    1
    53    28    29   ar
    54    78    79    1
    55    73    75   ar
    56    82    79    1
    57    81    80    2
    58    12    15    1
    59    12    13    1
    60    12    11    1
    61    14    13    2
    62    79    80    1
    63    15    16    1
    64    77    75   ar
    65    17    16    1
    66    17    18    1
    67    18    19    2
    68    11     3   am
    69    19    20    1
    70    19    21    1
    71   114   115   ar
    72   114   112   ar
    73   115   113   ar
    74     3     4    2
    75     3     2    1
    76   112   110   ar
    77    10     8   ar
    78    10     9   ar
    79     8     6   ar
    80     2     1    1
    81     2     5    1
    82   113   111   ar
    83     9     7   ar
    84     6     7   ar
    85     6     5    1
    86   110   111   ar
    87   110   109    1
    88    97    96    1
    89    95    96   ar
    90    95    93   ar
    91    96    94   ar
    92    93    91   ar
    93    94    92   ar
    94   109   106    1
    95    91    92   ar
    96    91    90    1
    97    90    87    1
    98   106   105    1
    99   106   107    1
   100   103   102    1
   101   107   108    2
   102    87    86    1
   103    87    88    1
   104   104   102    1
   105   102    99    1
   106    88    98   am
   107    88    89    2
   108    99    98    1
   109    99   100    1
   110   100   101    2
