@<TRIPOS>MOLECULE
tmp/5t92B00.pdb
 178 169 0 0 0
SMALL
GASTEIGER

@<TRIPOS>ATOM
      1  N         -8.4980   -5.7260  -40.6300 N.3    24  MET24      -0.1245
      2  CA        -9.4080   -6.0280  -39.5250 C.3    24  MET24       0.1570
      3  C         -8.8710   -7.1320  -38.6320 C.2    24  MET24       0.2261
      4  O         -9.0190   -7.0420  -37.4110 O.2    24  MET24      -0.2867
      5  CB       -10.8470   -6.3150  -40.0160 C.3    24  MET24       0.0387
      6  CG       -11.9110   -6.4050  -38.8930 C.3    24  MET24       0.0595
      7  SD       -12.0950   -4.9690  -37.7700 S.3    24  MET24      -0.1393
      8  CE       -12.8460   -5.7700  -36.3640 C.3    24  MET24       0.0692
      9  N         -6.1560   -5.6230  -36.6600 N.3    27  LEU27      -0.1231
     10  CA        -6.7040   -4.7650  -35.6130 C.3    27  LEU27       0.1693
     11  C         -7.2870   -5.6120  -34.4890 C.2    27  LEU27       0.2592
     12  O         -7.1650   -5.2430  -33.3210 O.2    27  LEU27      -0.2718
     13  CB        -7.7540   -3.7780  -36.1770 C.3    27  LEU27       0.0284
     14  CG        -7.2330   -2.7260  -37.1690 C.3    27  LEU27       0.0019
     15  CD1       -8.3520   -1.9140  -37.7540 C.3    27  LEU27       0.0001
     16  CD2       -6.2060   -1.8240  -36.5350 C.3    27  LEU27       0.0001
     17  N         -7.9030   -6.7650  -34.8390 N.am   28  THR28      -0.1953
     18  CA        -8.4970   -7.6850  -33.8670 C.3    28  THR28       0.1897
     19  C         -7.4070   -8.3340  -33.0570 C.2    28  THR28       0.2313
     20  O         -7.5290   -8.3730  -31.8370 O.2    28  THR28      -0.2863
     21  CB        -9.4790   -8.6700  -34.5230 C.3    28  THR28       0.1794
     22  OG1      -10.4220   -7.9290  -35.2900 O.3    28  THR28      -0.2208
     23  CG2      -10.2250   -9.5200  -33.5130 C.3    28  THR28       0.0378
     24  N         -4.4230   -7.0670  -32.4980 N.3    30  LEU30      -0.1231
     25  CA        -3.8480   -5.9720  -31.6820 C.3    30  LEU30       0.1693
     26  C         -4.7040   -5.7040  -30.4460 C.2    30  LEU30       0.2592
     27  O         -4.1850   -5.6890  -29.3220 O.2    30  LEU30      -0.2718
     28  CB        -3.6460   -4.6840  -32.5070 C.3    30  LEU30       0.0284
     29  CG        -2.8890   -3.5330  -31.8200 C.3    30  LEU30       0.0019
     30  CD1       -1.4030   -3.8530  -31.6370 C.3    30  LEU30       0.0001
     31  CD2       -3.0290   -2.2520  -32.6030 C.3    30  LEU30       0.0001
     32  N         -6.0300   -5.5620  -30.6570 N.am   31  ALA31      -0.1966
     33  CA        -7.0280   -5.3450  -29.6090 C.3    31  ALA31       0.1728
     34  C         -7.0630   -6.4870  -28.5790 C.2    31  ALA31       0.2616
     35  O         -7.2120   -6.2090  -27.3900 O.2    31  ALA31      -0.2715
     36  CB        -8.3960   -5.1600  -30.2360 C.3    31  ALA31       0.0334
     37  N         -6.8920   -7.7520  -29.0120 N.am   32  ASP32      -0.1971
     38  CA        -6.8620   -8.9170  -28.0940 C.3    32  ASP32       0.1709
     39  C         -5.5990   -8.9150  -27.2380 C.2    32  ASP32       0.2293
     40  O         -5.6540   -9.2050  -26.0380 O.2    32  ASP32      -0.2864
     41  CB        -6.9470  -10.2430  -28.8640 C.3    32  ASP32       0.1436
     42  CG        -8.1700  -10.3940  -29.7340 C.2    32  ASP32       0.3671
     43  OD1       -9.2150   -9.7620  -29.4160 O.co2  32  ASP32      -0.2456
     44  OD2       -8.0820  -11.1100  -30.7540 O.co2  32  ASP32      -0.2456
     45  N         -3.9860   -6.2260  -26.4940 N.3    34  GLU34      -0.1245
     46  CA        -4.1060   -5.0210  -25.6560 C.3    34  GLU34       0.1567
     47  C         -4.9650   -5.2610  -24.4310 C.2    34  GLU34       0.2260
     48  O         -4.6990   -4.6700  -23.3790 O.2    34  GLU34      -0.2867
     49  CB        -4.6660   -3.8550  -26.4550 C.3    34  GLU34       0.0388
     50  CG        -3.6250   -3.1870  -27.3250 C.3    34  GLU34       0.1160
     51  CD        -4.1680   -2.0130  -28.1100 C.2    34  GLU34       0.3649
     52  OE1       -5.0040   -2.2460  -29.0140 O.co2  34  GLU34      -0.2457
     53  OE2       -3.7540   -0.8630  -27.8270 O.co2  34  GLU34      -0.2457
     54  N        -14.2350   -1.3230  -21.8840 N.3    64  TRP64      -0.1227
     55  CA       -13.2180   -1.8960  -22.7730 C.3    64  TRP64       0.1737
     56  C        -12.9190   -1.1810  -24.0800 C.2    64  TRP64       0.2595
     57  O        -11.7600   -0.8150  -24.2940 O.2    64  TRP64      -0.2718
     58  CB       -13.3240   -3.4140  -22.9410 C.3    64  TRP64       0.0564
     59  CG       -14.2610   -3.8820  -24.0110 C.ar   64  TRP64       0.0003
     60  CD1      -15.5640   -4.2520  -23.8520 C.ar   64  TRP64       0.0946
     61  CD2      -13.9460   -4.1010  -25.3920 C.ar   64  TRP64       0.0152
     62  NE1      -16.0920   -4.6490  -25.0570 N.ar   64  TRP64      -0.2442
     63  CE2      -15.1260   -4.5440  -26.0260 C.ar   64  TRP64       0.0810
     64  CE3      -12.7950   -3.9130  -26.1690 C.ar   64  TRP64       0.0012
     65  CZ2      -15.1790   -4.8340  -27.3930 C.ar   64  TRP64       0.0191
     66  CZ3      -12.8480   -4.2070  -27.5220 C.ar   64  TRP64       0.0001
     67  CH2      -14.0330   -4.6570  -28.1210 C.ar   64  TRP64       0.0015
     68  N        -13.9500   -0.9550  -24.9300 N.am   65  LEU65      -0.1980
     69  CA       -13.7760   -0.3150  -26.2270 C.3    65  LEU65       0.1596
     70  C        -13.4670    1.1750  -26.1400 C.2    65  LEU65       0.2287
     71  O        -12.6290    1.6410  -26.9010 O.2    65  LEU65      -0.2864
     72  CB       -14.9530   -0.6140  -27.1690 C.3    65  LEU65       0.0297
     73  CG       -14.8010   -0.1600  -28.6370 C.3    65  LEU65       0.0022
     74  CD1      -13.6000   -0.8060  -29.2920 C.3    65  LEU65       0.0001
     75  CD2      -16.0850   -0.4370  -29.4310 C.3    65  LEU65       0.0001
     76  N         -9.8980    1.4060  -25.3740 N.3    68  LEU68      -0.1231
     77  CA        -9.0860    1.1720  -26.5580 C.3    68  LEU68       0.1693
     78  C         -9.0290    2.4210  -27.3820 C.2    68  LEU68       0.2591
     79  O         -7.9480    2.8440  -27.7760 O.2    68  LEU68      -0.2718
     80  CB        -9.6130   -0.0130  -27.3730 C.3    68  LEU68       0.0284
     81  CG        -9.3080   -1.4320  -26.8350 C.3    68  LEU68       0.0019
     82  CD1       -9.7510   -2.4720  -27.8290 C.3    68  LEU68       0.0001
     83  CD2       -7.8070   -1.6410  -26.5560 C.3    68  LEU68       0.0001
     84  N        -10.1930    3.0540  -27.5810 N.am   69  MET69      -0.1979
     85  CA       -10.3780    4.2820  -28.3840 C.3    69  MET69       0.1605
     86  C         -9.6390    5.4790  -27.8680 C.2    69  MET69       0.2287
     87  O         -8.9830    6.1570  -28.6360 O.2    69  MET69      -0.2864
     88  CB       -11.8620    4.5870  -28.5760 C.3    69  MET69       0.0413
     89  CG       -12.5300    3.5750  -29.4830 C.3    69  MET69       0.0598
     90  SD       -14.3070    3.8340  -29.5950 S.3    69  MET69      -0.1393
     91  CE       -14.5760    3.2960  -31.2240 C.3    69  MET69       0.0692
     92  N         -5.9580    4.9880  -28.4390 N.3    72  LEU72      -0.1245
     93  CA        -5.6920    5.1650  -29.8740 C.3    72  LEU72       0.1561
     94  C         -5.6590    6.6680  -30.2110 C.2    72  LEU72       0.2260
     95  O         -4.6630    7.1540  -30.7650 O.2    72  LEU72      -0.2867
     96  CB        -6.7110    4.4120  -30.7280 C.3    72  LEU72       0.0270
     97  CG        -6.6410    4.7020  -32.2320 C.3    72  LEU72       0.0019
     98  CD1       -5.5010    3.9390  -32.8870 C.3    72  LEU72       0.0001
     99  CD2       -7.9620    4.4140  -32.9020 C.3    72  LEU72       0.0001
    100  N         -2.3320    8.3000  -28.6920 N.3    75  ARG75      -0.1245
    101  CA        -1.1320    7.9970  -29.4620 C.3    75  ARG75       0.1563
    102  C         -1.1500    8.4990  -30.9250 C.2    75  ARG75       0.2260
    103  O         -0.0790    8.6480  -31.5210 O.2    75  ARG75      -0.2867
    104  CB        -0.6850    6.5280  -29.3020 C.3    75  ARG75       0.0307
    105  CG        -1.5990    5.4930  -29.9240 C.3    75  ARG75       0.0489
    106  CD        -1.1310    4.0640  -29.6530 C.3    75  ARG75       0.2205
    107  NE        -2.1030    3.1140  -30.2130 N.pl3  75  ARG75      -0.0865
    108  CZ        -3.0440    2.5090  -29.5100 C.cat  75  ARG75       0.5346
    109  NH1       -3.1240    2.6940  -28.1970 N.pl3  75  ARG75       0.1354
    110  NH2       -3.9030    1.7010  -30.1040 N.pl3  75  ARG75       0.1354
    111  N         -2.6060    2.9710  -34.8520 N.3    85  PHE85      -0.1241
    112  CA        -3.0380    1.7430  -34.1690 C.3    85  PHE85       0.1605
    113  C         -1.8390    1.0940  -33.4950 C.2    85  PHE85       0.2264
    114  O         -1.9350    0.7030  -32.3420 O.2    85  PHE85      -0.2867
    115  CB        -3.7940    0.7930  -35.1070 C.3    85  PHE85       0.0534
    116  CG        -5.1180    1.3270  -35.6120 C.ar   85  PHE85      -0.0203
    117  CD1       -6.2900    1.1300  -34.8880 C.ar   85  PHE85      -0.0042
    118  CD2       -5.2040    1.9730  -36.8410 C.ar   85  PHE85      -0.0042
    119  CE1       -7.5150    1.6070  -35.3650 C.ar   85  PHE85      -0.0003
    120  CE2       -6.4330    2.4390  -37.3200 C.ar   85  PHE85      -0.0003
    121  CZ        -7.5790    2.2490  -36.5810 C.ar   85  PHE85      -0.0000
    122  N        -16.9910    1.1740  -41.5430 N.3    94  MET94      -0.1245
    123  CA       -16.0690    1.3950  -40.4300 C.3    94  MET94       0.1570
    124  C        -15.2570    2.7020  -40.5170 C.2    94  MET94       0.2261
    125  O        -14.6170    3.0780  -39.5370 O.2    94  MET94      -0.2867
    126  CB       -15.1590    0.1790  -40.2270 C.3    94  MET94       0.0387
    127  CG       -15.1930   -0.3380  -38.8210 C.3    94  MET94       0.0595
    128  SD       -14.2360   -1.8580  -38.6290 S.3    94  MET94      -0.1393
    129  CE       -12.7100   -1.2150  -38.0460 C.3    94  MET94       0.0692
    130  N        -16.6490    5.5260  -38.0370 N.3    97  ILE97      -0.1231
    131  CA       -16.0240    5.5640  -36.7110 C.3    97  ILE97       0.1692
    132  C        -14.6450    6.2270  -36.7700 C.2    97  ILE97       0.2592
    133  O        -14.3120    7.0280  -35.8910 O.2    97  ILE97      -0.2718
    134  CB       -16.0180    4.1520  -36.0420 C.3    97  ILE97       0.0266
    135  CG1      -17.4560    3.7550  -35.6280 C.3    97  ILE97       0.0019
    136  CG2      -15.0710    4.0850  -34.8280 C.3    97  ILE97       0.0020
    137  CD1      -17.7770    2.3010  -35.7810 C.3    97  ILE97       0.0001
    138  N        -13.8830    5.9420  -37.8430 N.am   98  PHE98      -0.1976
    139  CA       -12.5300    6.4540  -38.0340 C.3    98  PHE98       0.1639
    140  C        -12.4660    7.9750  -38.1120 C.2    98  PHE98       0.2290
    141  O        -11.6000    8.5520  -37.4750 O.2    98  PHE98      -0.2864
    142  CB       -11.8310    5.7510  -39.2090 C.3    98  PHE98       0.0560
    143  CG       -11.4270    4.2950  -39.0020 C.ar   98  PHE98      -0.0200
    144  CD1      -11.9090    3.5600  -37.9160 C.ar   98  PHE98      -0.0042
    145  CD2      -10.5510    3.6670  -39.8830 C.ar   98  PHE98      -0.0042
    146  CE1      -11.5280    2.2290  -37.7240 C.ar   98  PHE98      -0.0003
    147  CE2      -10.1750    2.3290  -39.6910 C.ar   98  PHE98      -0.0003
    148  CZ       -10.6620    1.6240  -38.6100 C.ar   98  PHE98      -0.0000
    149  N        -12.9710    9.2890  -34.5790 N.3   101  LEU101     -0.1245
    150  CA       -11.6970    9.0550  -33.8970 C.3   101  LEU101      0.1561
    151  C        -10.7130   10.1700  -34.2470 C.2   101  LEU101      0.2260
    152  O        -10.1410   10.7550  -33.3440 O.2   101  LEU101     -0.2867
    153  CB       -11.1080    7.6620  -34.2350 C.3   101  LEU101      0.0270
    154  CG       -11.8220    6.4560  -33.6260 C.3   101  LEU101      0.0019
    155  CD1      -11.4250    5.1720  -34.3250 C.3   101  LEU101      0.0001
    156  CD2      -11.5760    6.3530  -32.1180 C.3   101  LEU101      0.0001
    157  N        -19.0830    1.3480  -32.5350 N.3   178  GLY178     -0.1225
    158  CA       -18.1180    0.2580  -32.6160 C.3   178  GLY178      0.1811
    159  C        -18.7060   -1.0670  -32.1800 C.2   178  GLY178      0.2280
    160  O        -18.5580   -2.0630  -32.8850 O.2   178  GLY178     -0.2866
    161  N        -21.0800   -2.4320  -34.7720 N.3   181  HIS181     -0.1226
    162  CA       -20.3800   -3.0770  -35.8870 C.3   181  HIS181      0.1752
    163  C        -19.9000   -4.4830  -35.5180 C.2   181  HIS181      0.2595
    164  O        -20.1110   -5.4140  -36.2910 O.2   181  HIS181     -0.2718
    165  CB       -19.2210   -2.2200  -36.3990 C.3   181  HIS181      0.0759
    166  CG       -18.6300   -2.7250  -37.6830 C.ar  181  HIS181      0.0818
    167  ND1      -17.4760   -3.4910  -37.6960 N.ar  181  HIS181     -0.2268
    168  CD2      -19.0620   -2.5670  -38.9540 C.ar  181  HIS181      0.1154
    169  CE1      -17.2430   -3.7680  -38.9680 C.ar  181  HIS181      0.1986
    170  NE2      -18.1690   -3.2310  -39.7620 N.ar  181  HIS181     -0.2212
    171  N        -19.3080   -4.6390  -34.3240 N.am  182  LEU182     -0.1980
    172  CA       -18.8070   -5.9290  -33.8390 C.3   182  LEU182      0.1596
    173  C        -19.9060   -6.9870  -33.7100 C.2   182  LEU182      0.2287
    174  O        -19.6790   -8.1390  -34.0820 O.2   182  LEU182     -0.2864
    175  CB       -18.0290   -5.7830  -32.5150 C.3   182  LEU182      0.0297
    176  CG       -16.7650   -4.9190  -32.5300 C.3   182  LEU182      0.0022
    177  CD1      -16.1810   -4.8060  -31.1470 C.3   182  LEU182      0.0001
    178  CD2      -15.7210   -5.4530  -33.5010 C.3   182  LEU182      0.0001
@<TRIPOS>BOND
     1   122   123    1
     2     1     2    1
     3   124   123    1
     4   124   125    2
     5   123   126    1
     6   126   127    1
     7     5     2    1
     8     5     6    1
     9   145   147   ar
    10   145   143   ar
    11   170   169   ar
    12   170   168   ar
    13   147   148   ar
    14     2     3    1
    15   142   143    1
    16   142   139    1
    17   143   144   ar
    18   169   167   ar
    19   168   166   ar
    20     6     7    1
    21   127   128    1
    22     3     4    2
    23   128   129    1
    24   148   146   ar
    25   140   139    1
    26   140   141    2
    27   130   131    1
    28   139   138    1
    29   144   146   ar
    30   138   132   am
    31     7     8    1
    32    15    14    1
    33   167   166   ar
    34   166   165    1
    35   120   118   ar
    36   120   121   ar
    37    14    16    1
    38    14    13    1
    39   118   116   ar
    40   132   131    1
    41   132   133    2
    42   131   134    1
    43     9    10    1
    44   121   119   ar
    45   165   162    1
    46   164   163    2
    47    13    10    1
    48   134   135    1
    49   134   136    1
    50   162   163    1
    51   162   161    1
    52   137   135    1
    53    10    11    1
    54   116   115    1
    55   116   117   ar
    56   163   171   am
    57   119   117   ar
    58    22    21    1
    59   115   112    1
    60   111   112    1
    61    17    11   am
    62    17    18    1
    63   149   150    1
    64    21    18    1
    65    21    23    1
    66    11    12    2
    67   155   154    1
    68   171   172    1
    69   151   150    1
    70   151   152    2
    71   153   150    1
    72   153   154    1
    73   112   113    1
    74   174   173    2
    75    18    19    1
    76   172   173    1
    77   172   175    1
    78   154   156    1
    79   178   176    1
    80   113   114    2
    81    19    20    2
    82    99    97    1
    83    98    97    1
    84   160   159    2
    85   158   157    1
    86   158   159    1
    87    31    29    1
    88   176   175    1
    89   176   177    1
    90    28    29    1
    91    28    25    1
    92    24    25    1
    93    97    96    1
    94    29    30    1
    95    25    26    1
    96   103   102    2
    97    91    90    1
    98   102   101    1
    99    95    94    2
   100    44    42   ar
   101    96    93    1
   102    32    26   am
   103    32    33    1
   104    26    27    2
   105    36    33    1
   106   107   106    1
   107   107   108    2
   108    94    93    1
   109   110   108    1
   110   105   106    1
   111   105   104    1
   112    93    92    1
   113    42    43   ar
   114    42    41    1
   115    33    34    1
   116    90    89    1
   117   108   109    1
   118    89    88    1
   119   101   104    1
   120   101   100    1
   121    75    73    1
   122    74    73    1
   123    52    51   ar
   124    37    34   am
   125    37    38    1
   126    41    38    1
   127    73    72    1
   128    87    86    2
   129    34    35    2
   130    88    85    1
   131    85    86    1
   132    85    84    1
   133    67    66   ar
   134    67    65   ar
   135    51    53   ar
   136    51    50    1
   137    38    39    1
   138    82    81    1
   139    79    78    2
   140    84    78   am
   141    66    64   ar
   142    65    63   ar
   143    78    77    1
   144    80    81    1
   145    80    77    1
   146    50    49    1
   147    39    40    2
   148    72    69    1
   149    71    70    2
   150    81    83    1
   151    77    76    1
   152    45    46    1
   153    49    46    1
   154    69    70    1
   155    69    68    1
   156    64    61   ar
   157    63    61   ar
   158    63    62   ar
   159    46    47    1
   160    61    59   ar
   161    62    60   ar
   162    68    56   am
   163    47    48    2
   164    57    56    2
   165    56    55    1
   166    59    60   ar
   167    59    58    1
   168    58    55    1
   169    55    54    1
