@<TRIPOS>MOLECULE
tmp/5t95A01.pdb
 137 135 0 0 0
SMALL
GASTEIGER

@<TRIPOS>ATOM
      1  N          2.6600  -43.8590  -19.8930 N.3    11  ASN11      -0.1225
      2  CA         2.7000  -45.2970  -19.6630 C.3    11  ASN11       0.1785
      3  C          2.9050  -46.0940  -20.9490 C.2    11  ASN11       0.2597
      4  O          3.8950  -46.8160  -21.0910 O.2    11  ASN11      -0.2718
      5  CB         1.3980  -45.6860  -18.9560 C.3    11  ASN11       0.1169
      6  CG         1.2590  -47.1720  -18.7290 C.2    11  ASN11       0.2627
      7  OD1        2.0530  -47.7960  -18.0140 O.2    11  ASN11      -0.2716
      8  ND2        0.2120  -47.7480  -19.3060 N.am   11  ASN11      -0.0877
      9  N          1.9890  -45.9570  -21.9110 N.am   12  PHE12      -0.1976
     10  CA         2.0800  -46.8080  -23.1000 C.3    12  PHE12       0.1639
     11  C          3.1160  -46.3100  -24.0990 C.2    12  PHE12       0.2290
     12  O          3.7790  -47.1300  -24.7490 O.2    12  PHE12      -0.2864
     13  CB         0.7170  -46.9370  -23.7800 C.3    12  PHE12       0.0560
     14  CG         0.6690  -48.0240  -24.8020 C.ar   12  PHE12      -0.0200
     15  CD1        0.8360  -49.3530  -24.4230 C.ar   12  PHE12      -0.0042
     16  CD2        0.4530  -47.7330  -26.1330 C.ar   12  PHE12      -0.0042
     17  CE1        0.7900  -50.3650  -25.3540 C.ar   12  PHE12      -0.0003
     18  CE2        0.4170  -48.7560  -27.0810 C.ar   12  PHE12      -0.0003
     19  CZ         0.5760  -50.0640  -26.6870 C.ar   12  PHE12      -0.0000
     20  N         -6.9130  -47.0420  -27.9560 N.3    93  SER93      -0.1217
     21  CA        -7.6560  -48.2790  -27.7410 C.3    93  SER93       0.1889
     22  C         -9.0270  -48.2820  -28.3990 C.2    93  SER93       0.2288
     23  O         -9.7090  -49.3070  -28.3600 O.2    93  SER93      -0.2866
     24  CB        -7.8220  -48.5480  -26.2400 C.3    93  SER93       0.2089
     25  OG        -6.5990  -48.3750  -25.5440 O.3    93  SER93      -0.2183
     26  N         -4.1490  -50.6780  -33.0580 N.3   116  HIS116     -0.1227
     27  CA        -4.3890  -50.9600  -31.6430 C.3   116  HIS116      0.1737
     28  C         -3.5990  -52.1900  -31.2560 C.2   116  HIS116      0.2438
     29  O         -4.0040  -53.3220  -31.5610 O.2   116  HIS116     -0.2733
     30  CB        -5.8720  -51.1570  -31.3370 C.3   116  HIS116      0.0758
     31  CG        -6.1630  -51.3130  -29.8760 C.ar  116  HIS116      0.0818
     32  ND1       -7.4230  -51.5820  -29.3920 N.ar  116  HIS116     -0.2268
     33  CD2       -5.3590  -51.2150  -28.7900 C.ar  116  HIS116      0.1154
     34  CE1       -7.3870  -51.6350  -28.0720 C.ar  116  HIS116      0.1986
     35  NE2       -6.1430  -51.4260  -27.6820 N.ar  116  HIS116     -0.2212
     36  N         -2.4680  -52.0200  -30.5700 N.am  117  PRO117     -0.2718
     37  CA        -1.8430  -53.1530  -29.8780 C.3   117  PRO117      0.1535
     38  C         -2.7710  -53.6270  -28.7660 C.2   117  PRO117      0.2598
     39  O         -3.0950  -52.8710  -27.8470 O.2   117  PRO117     -0.2715
     40  CB        -0.5320  -52.5620  -29.3330 C.3   117  PRO117      0.0310
     41  CG        -0.3180  -51.2850  -30.1470 C.3   117  PRO117      0.0237
     42  CD        -1.6990  -50.7740  -30.4120 C.3   117  PRO117      0.0939
     43  N         -3.2370  -54.8680  -28.8730 N.am  118  MET118     -0.1964
     44  CA        -4.2250  -55.3630  -27.9220 C.3   118  MET118      0.1736
     45  C         -3.5190  -55.8870  -26.6850 C.2   118  MET118      0.2616
     46  O         -3.8210  -56.9910  -26.2120 O.2   118  MET118     -0.2715
     47  CB        -5.0860  -56.4710  -28.5380 C.3   118  MET118      0.0427
     48  CG        -5.7450  -56.1190  -29.8710 C.3   118  MET118      0.0599
     49  SD        -6.7700  -54.6370  -29.8090 S.3   118  MET118     -0.1393
     50  CE        -8.0290  -55.0620  -28.5990 C.3   118  MET118      0.0692
     51  N         -2.5700  -55.1110  -26.1750 N.am  119  PHE119     -0.1960
     52  CA        -1.7130  -55.5520  -25.0770 C.3   119  PHE119      0.1771
     53  C         -0.9580  -54.3390  -24.5670 C.2   119  PHE119      0.2620
     54  O         -0.9770  -53.2700  -25.1800 O.2   119  PHE119     -0.2715
     55  CB        -0.7360  -56.6530  -25.5250 C.3   119  PHE119      0.0574
     56  CG         0.1740  -56.2410  -26.6650 C.ar  119  PHE119     -0.0200
     57  CD1        1.4040  -55.6590  -26.4070 C.ar  119  PHE119     -0.0042
     58  CD2       -0.1960  -56.4590  -27.9930 C.ar  119  PHE119     -0.0042
     59  CE1        2.2530  -55.2890  -27.4280 C.ar  119  PHE119     -0.0003
     60  CE2        0.6550  -56.0940  -29.0350 C.ar  119  PHE119     -0.0003
     61  CZ         1.8830  -55.4990  -28.7500 C.ar  119  PHE119     -0.0000
     62  N         -0.2610  -54.5290  -23.4530 N.am  120  GLY120     -0.1940
     63  CA         0.4060  -53.4280  -22.8090 C.3   120  GLY120      0.1998
     64  C          1.3080  -53.9100  -21.6980 C.2   120  GLY120      0.2481
     65  O          1.6110  -55.1010  -21.5760 O.2   120  GLY120     -0.2729
     66  N          1.7510  -52.9800  -20.8540 N.am  121  PRO121     -0.2715
     67  CA         2.7550  -53.3340  -19.8400 C.3   121  PRO121      0.1536
     68  C          2.2950  -54.3710  -18.8330 C.2   121  PRO121      0.2598
     69  O          3.1400  -54.9470  -18.1420 O.2   121  PRO121     -0.2715
     70  CB         3.0740  -51.9890  -19.1690 C.3   121  PRO121      0.0310
     71  CG         2.0370  -51.0190  -19.6610 C.3   121  PRO121      0.0237
     72  CD         1.5490  -51.5270  -20.9720 C.3   121  PRO121      0.0939
     73  N          1.0000  -54.6450  -18.7160 N.am  122  GLN122     -0.1964
     74  CA         0.5890  -55.6690  -17.7570 C.3   122  GLN122      0.1733
     75  C          0.5530  -57.0610  -18.3740 C.2   122  GLN122      0.2617
     76  O          0.9480  -58.0410  -17.7320 O.2   122  GLN122     -0.2715
     77  CB        -0.7900  -55.3370  -17.1780 C.3   122  GLN122      0.0408
     78  CG        -0.7710  -54.2720  -16.0990 C.3   122  GLN122      0.0908
     79  CD        -0.3900  -52.9110  -16.6330 C.2   122  GLN122      0.2608
     80  OE1       -0.9820  -52.4240  -17.5910 O.2   122  GLN122     -0.2717
     81  NE2        0.6350  -52.3000  -16.0330 N.am  122  GLN122     -0.0878
     82  N          0.0540  -57.1770  -19.5960 N.am  123  THR123     -0.1951
     83  CA        -0.1080  -58.4810  -20.2120 C.3   123  THR123      0.1897
     84  C          1.0630  -58.8670  -21.0980 C.2   123  THR123      0.2313
     85  O          1.1890  -60.0390  -21.4440 O.2   123  THR123     -0.2863
     86  CB        -1.4100  -58.5320  -21.0190 C.3   123  THR123      0.1794
     87  OG1       -1.4560  -57.4180  -21.9260 O.3   123  THR123     -0.2208
     88  CG2       -2.6030  -58.4680  -20.0800 C.3   123  THR123      0.0378
     89  N        -12.9980  -55.9750  -24.8660 N.3   176  GLN176     -0.1245
     90  CA       -12.1510  -55.1640  -24.0010 C.3   176  GLN176      0.1566
     91  C        -12.9800  -54.2790  -23.0720 C.2   176  GLN176      0.2260
     92  O        -12.7290  -54.2260  -21.8630 O.2   176  GLN176     -0.2867
     93  CB       -11.2140  -54.3180  -24.8520 C.3   176  GLN176      0.0367
     94  CG       -10.3970  -53.3750  -24.0060 C.3   176  GLN176      0.0905
     95  CD        -9.4710  -52.5550  -24.8270 C.2   176  GLN176      0.2608
     96  OE1       -9.8050  -52.1400  -25.9390 O.2   176  GLN176     -0.2717
     97  NE2       -8.2900  -52.3090  -24.2970 N.am  176  GLN176     -0.0878
     98  N        -12.8670  -54.4720  -19.0640 N.3   180  HIS180     -0.1241
     99  CA       -12.3370  -53.4460  -18.1790 C.3   180  HIS180      0.1621
    100  C        -13.4290  -52.9140  -17.2600 C.2   180  HIS180      0.2264
    101  O        -13.1440  -52.4950  -16.1380 O.2   180  HIS180     -0.2867
    102  CB       -11.6510  -52.3300  -18.9890 C.3   180  HIS180      0.0745
    103  CG       -10.7160  -51.5270  -18.1740 C.ar  180  HIS180      0.0817
    104  ND1      -11.0860  -50.8980  -17.0150 N.ar  180  HIS180     -0.2268
    105  CD2       -9.3980  -51.2700  -18.3390 C.ar  180  HIS180      0.1154
    106  CE1      -10.0600  -50.1660  -16.5840 C.ar  180  HIS180      0.1986
    107  NE2       -8.9910  -50.4680  -17.3000 N.ar  180  HIS180     -0.2212
    108  N         -4.7190  -55.9160  -12.4550 N.3   210  THR210     -0.1203
    109  CA        -4.2180  -55.4240  -13.7330 C.3   210  THR210      0.1994
    110  C         -5.0630  -54.2660  -14.2530 C.2   210  THR210      0.2618
    111  O         -4.5190  -53.2890  -14.7800 O.2   210  THR210     -0.2717
    112  CB        -4.1610  -56.5650  -14.7470 C.3   210  THR210      0.1784
    113  OG1       -5.4440  -57.1940  -14.8380 O.3   210  THR210     -0.2211
    114  CG2       -3.1250  -57.5830  -14.3160 C.3   210  THR210      0.0376
    115  N         -6.3820  -54.3480  -14.0990 N.am  211  THR211     -0.1952
    116  CA        -7.2640  -53.2870  -14.5630 C.3   211  THR211      0.1897
    117  C         -7.0000  -51.9770  -13.8360 C.2   211  THR211      0.2313
    118  O         -7.0020  -50.9040  -14.4520 O.2   211  THR211     -0.2863
    119  CB        -8.7130  -53.7480  -14.3840 C.3   211  THR211      0.1794
    120  OG1       -8.9340  -54.8980  -15.1960 O.3   211  THR211     -0.2208
    121  CG2       -9.6700  -52.6850  -14.7550 C.3   211  THR211      0.0378
    122  N         -4.3970  -49.1770  -15.1040 N.3   214  ASP214     -0.1239
    123  CA        -4.6850  -48.2210  -16.1650 C.3   214  ASP214      0.1674
    124  C         -5.4380  -47.0200  -15.6110 C.2   214  ASP214      0.2266
    125  O         -6.1080  -47.1000  -14.5800 O.2   214  ASP214     -0.2867
    126  CB        -5.5000  -48.8770  -17.2860 C.3   214  ASP214      0.1410
    127  CG        -4.6480  -49.7630  -18.1550 C.2   214  ASP214      0.3668
    128  OD1       -3.5390  -49.3240  -18.4990 O.co2 214  ASP214     -0.2456
    129  OD2       -5.0580  -50.8990  -18.4580 O.co2 214  ASP214     -0.2456
    130  N         -8.2460  -43.5750  -19.4720 N.3   218  LEU218     -0.1245
    131  CA        -8.2700  -44.6310  -20.4770 C.3   218  LEU218      0.1561
    132  C         -9.6180  -45.3410  -20.4720 C.2   218  LEU218      0.2260
    133  O        -10.2290  -45.5320  -21.5230 O.2   218  LEU218     -0.2867
    134  CB        -7.1220  -45.6200  -20.2320 C.3   218  LEU218      0.0270
    135  CG        -6.9210  -46.7180  -21.2870 C.3   218  LEU218      0.0019
    136  CD1       -5.4470  -47.0920  -21.3760 C.3   218  LEU218      0.0001
    137  CD2       -7.7860  -47.9540  -20.9810 C.3   218  LEU218      0.0001
@<TRIPOS>BOND
     1    26    27    1
     2    27    30    1
     3    27    28    1
     4    29    28    2
     5    30    31    1
     6    28    36   am
     7    36    42    1
     8    36    37    1
     9    42    41    1
    10    41    40    1
    11    37    40    1
    12    37    38    1
    13    31    32   ar
    14    31    33   ar
    15    48    49    1
    16    48    47    1
    17    49    50    1
    18    32    34   ar
    19    60    61   ar
    20    60    58   ar
    21    43    38   am
    22    43    44    1
    23    33    35   ar
    24    38    39    2
    25    61    59   ar
    26    47    44    1
    27    22    23    2
    28    22    21    1
    29    34    35   ar
    30    58    56   ar
    31    20    21    1
    32    44    45    1
    33    21    24    1
    34    59    57   ar
    35    18    19   ar
    36    18    16   ar
    37    19    17   ar
    38    45    46    2
    39    45    51   am
    40    56    57   ar
    41    56    55    1
    42    24    25    1
    43    51    52    1
    44    16    14   ar
    45    96    95    2
    46    55    52    1
    47    17    15   ar
    48    54    53    2
    49    52    53    1
    50    89    90    1
    51    93    94    1
    52    93    90    1
    53    95    97   am
    54    95    94    1
    55    14    15   ar
    56    14    13    1
    57    12    11    2
    58    53    62   am
    59    11    10    1
    60    90    91    1
    61    13    10    1
    62    62    63    1
    63    10     9    1
    64    91    92    2
    65    63    64    1
    66    87    86    1
    67     9     3   am
    68    64    65    2
    69    64    66   am
    70   133   132    2
    71    85    84    2
    72   136   135    1
    73   135   137    1
    74   135   134    1
    75    84    83    1
    76     4     3    2
    77    86    83    1
    78    86    88    1
    79    72    66    1
    80    72    71    1
    81     3     2    1
    82    66    67    1
    83   131   132    1
    84   131   134    1
    85   131   130    1
    86    83    82    1
    87     1     2    1
    88    67    70    1
    89    67    68    1
    90     2     5    1
    91    71    70    1
    92    82    75   am
    93     8     6   am
    94    98    99    1
    95   102    99    1
    96   102   103    1
    97     5     6    1
    98    68    73   am
    99    68    69    2
   100     6     7    2
   101    73    74    1
   102   128   127   ar
   103   129   127   ar
   104    75    74    1
   105    75    76    2
   106   105   103   ar
   107   105   107   ar
   108    99   100    1
   109   103   104   ar
   110   127   126    1
   111    74    77    1
   112    80    79    2
   113   107   106   ar
   114   126   123    1
   115   100   101    2
   116    77    78    1
   117   104   106   ar
   118    79    78    1
   119    79    81   am
   120   123   124    1
   121   123   122    1
   122   124   125    2
   123   120   119    1
   124   113   112    1
   125   111   110    2
   126   121   119    1
   127   112   114    1
   128   112   109    1
   129   116   119    1
   130   116   115    1
   131   116   117    1
   132   118   117    2
   133   110   115   am
   134   110   109    1
   135   109   108    1
