@<TRIPOS>MOLECULE
tmp/5t96B01.pdb
 79 74 0 0 0
SMALL
GASTEIGER

@<TRIPOS>ATOM
      1  N         21.0030   26.5360   15.7220 N.3   120  LEU120     -0.1231
      2  CA        21.5670   27.4300   16.7270 C.3   120  LEU120      0.1693
      3  C         22.6300   26.6900   17.5140 C.2   120  LEU120      0.2592
      4  O         22.3190   25.6870   18.1540 O.2   120  LEU120     -0.2718
      5  CB        20.4680   27.9110   17.6740 C.3   120  LEU120      0.0284
      6  CG        20.8930   28.9180   18.7410 C.3   120  LEU120      0.0019
      7  CD1       21.3940   30.2130   18.0630 C.3   120  LEU120      0.0001
      8  CD2       19.6930   29.2020   19.7250 C.3   120  LEU120      0.0001
      9  N         23.8550   27.2040   17.5030 N.am  121  VAL121     -0.1966
     10  CA        24.9680   26.6010   18.2360 C.3   121  VAL121      0.1727
     11  C         24.9780   27.1460   19.6630 C.2   121  VAL121      0.2617
     12  O         24.9680   28.3610   19.8830 O.2   121  VAL121     -0.2715
     13  CB        26.3130   26.8650   17.5390 C.3   121  VAL121      0.0290
     14  CG1       27.4600   26.2780   18.3590 C.3   121  VAL121      0.0023
     15  CG2       26.3330   26.2580   16.1520 C.3   121  VAL121      0.0023
     16  N         25.0030   26.2380   20.6250 N.am  122  GLY122     -0.1940
     17  CA        25.0740   26.5860   22.0280 C.3   122  GLY122      0.2014
     18  C         25.6560   25.4370   22.8180 C.2   122  GLY122      0.2639
     19  O         26.1670   24.4710   22.2510 O.2   122  GLY122     -0.2714
     20  N         25.5990   25.5580   24.1450 N.am  123  ARG123     -0.1963
     21  CA        25.9820   24.4620   25.0220 C.3   123  ARG123      0.1729
     22  C         24.8800   24.2690   26.0460 C.2   123  ARG123      0.2617
     23  O         24.2010   25.2180   26.4210 O.2   123  ARG123     -0.2715
     24  CB        27.3400   24.7170   25.7340 C.3   123  ARG123      0.0348
     25  CG        27.3260   25.8730   26.6870 C.3   123  ARG123      0.0492
     26  CD        28.6860   26.1840   27.2890 C.3   123  ARG123      0.2205
     27  NE        28.5110   27.2220   28.3000 N.pl3 123  ARG123     -0.0865
     28  CZ        29.4360   28.0900   28.6870 C.cat 123  ARG123      0.5346
     29  NH1       30.6650   28.0800   28.1640 N.pl3 123  ARG123      0.1354
     30  NH2       29.1220   28.9720   29.6180 N.pl3 123  ARG123      0.1354
     31  N         24.7030   23.0380   26.5170 N.am  124  THR124     -0.1937
     32  CA        23.6520   22.8160   27.4890 C.3   124  THR124      0.2028
     33  C         23.9350   21.5300   28.2410 C.2   124  THR124      0.2642
     34  O         24.6370   20.6490   27.7510 O.2   124  THR124     -0.2714
     35  CB        22.2550   22.7510   26.8500 C.3   124  THR124      0.1808
     36  OG1       21.2900   22.6650   27.8930 O.3   124  THR124     -0.2208
     37  CG2       22.0850   21.5180   25.9810 C.3   124  THR124      0.0379
     38  N         23.3470   21.4200   29.4280 N.am  125  ASP125     -0.1957
     39  CA        23.3540   20.1460   30.1260 C.3   125  ASP125      0.1840
     40  C         22.0320   19.4100   29.9860 C.2   125  ASP125      0.2621
     41  O         21.8600   18.3610   30.6010 O.2   125  ASP125     -0.2715
     42  CB        23.7060   20.3360   31.6020 C.3   125  ASP125      0.1450
     43  CG        22.7150   21.2050   32.3470 C.2   125  ASP125      0.3671
     44  OD1       21.5830   21.4130   31.8660 O.co2 125  ASP125     -0.2456
     45  OD2       23.0670   21.6730   33.4460 O.co2 125  ASP125     -0.2456
     46  N         21.1090   19.9200   29.1650 N.am  126  ALA126     -0.1977
     47  CA        19.7890   19.3150   29.0400 C.3   126  ALA126      0.1597
     48  C         19.7920   18.0100   28.2450 C.2   126  ALA126      0.2287
     49  O         18.8350   17.2390   28.3470 O.2   126  ALA126     -0.2864
     50  CB        18.8250   20.2890   28.3770 C.3   126  ALA126      0.0319
     51  N         27.4910   19.6270   30.5410 N.3   131  SER131     -0.1217
     52  CA        27.5510   20.6510   29.5070 C.3   131  SER131      0.1889
     53  C         28.2760   20.1450   28.2740 C.2   131  SER131      0.2288
     54  O         29.4500   19.7700   28.3380 O.2   131  SER131     -0.2866
     55  CB        28.2330   21.8950   30.0560 C.3   131  SER131      0.2089
     56  OG        28.2430   22.9240   29.0930 O.3   131  SER131     -0.2183
     57  N         25.8450   21.7830   21.5480 N.3   134  VAL134     -0.1245
     58  CA        24.6840   21.2800   20.8270 C.3   134  VAL134      0.1561
     59  C         24.2720   22.2420   19.7260 C.2   134  VAL134      0.2260
     60  O         24.5690   23.4420   19.7490 O.2   134  VAL134     -0.2867
     61  CB        23.4520   21.0270   21.7210 C.3   134  VAL134      0.0252
     62  CG1       23.7340   19.9790   22.7760 C.3   134  VAL134      0.0019
     63  CG2       22.9270   22.3630   22.2930 C.3   134  VAL134      0.0019
     64  N         20.5660   23.4520   18.3720 N.3   136  THR136     -0.1218
     65  CA        19.1410   23.4980   18.6650 C.3   136  THR136      0.1862
     66  C         18.3780   23.8240   17.3870 C.2   136  THR136      0.2287
     67  O         18.6760   24.8240   16.7230 O.2   136  THR136     -0.2866
     68  CB        18.8330   24.5420   19.7450 C.3   136  THR136      0.1770
     69  OG1       19.5660   24.2430   20.9450 O.3   136  THR136     -0.2211
     70  CG2       17.3550   24.5610   20.0850 C.3   136  THR136      0.0375
     71  N         17.3780   19.1900   20.2500 N.3   189  GLN189     -0.1245
     72  CA        18.8110   19.4250   20.3860 C.3   189  GLN189      0.1566
     73  C         19.6060   18.1760   20.0480 C.2   189  GLN189      0.2260
     74  O         19.1940   17.0580   20.3840 O.2   189  GLN189     -0.2867
     75  CB        19.1680   19.8900   21.8070 C.3   189  GLN189      0.0367
     76  CG        18.5850   21.2540   22.1260 C.3   189  GLN189      0.0905
     77  CD        18.8410   21.7410   23.5540 C.2   189  GLN189      0.2608
     78  OE1       18.7150   20.9950   24.5280 O.2   189  GLN189     -0.2717
     79  NE2       19.2320   23.0090   23.6710 N.am  189  GLN189     -0.0878
@<TRIPOS>BOND
     1     1     2    1
     2    15    13    1
     3    67    66    2
     4     2     3    1
     5     2     5    1
     6    66    65    1
     7     9     3   am
     8     9    10    1
     9     3     4    2
    10    13    10    1
    11    13    14    1
    12     5     6    1
    13     7     6    1
    14    10    11    1
    15    64    65    1
    16    65    68    1
    17     6     8    1
    18    11    12    2
    19    11    16   am
    20    59    60    2
    21    59    58    1
    22    68    70    1
    23    68    69    1
    24    73    74    2
    25    73    72    1
    26    71    72    1
    27    72    75    1
    28    16    17    1
    29    58    57    1
    30    58    61    1
    31    61    63    1
    32    61    62    1
    33    75    76    1
    34    17    18    1
    35    76    77    1
    36    19    18    2
    37    18    20   am
    38    77    79   am
    39    77    78    2
    40    20    21    1
    41    21    24    1
    42    21    22    1
    43    24    25    1
    44    37    35    1
    45    22    23    2
    46    22    31   am
    47    31    32    1
    48    25    26    1
    49    35    32    1
    50    35    36    1
    51    26    27    1
    52    32    33    1
    53    34    33    2
    54    29    28    1
    55    33    38   am
    56    48    49    2
    57    48    47    1
    58    53    54    2
    59    53    52    1
    60    27    28    2
    61    50    47    1
    62    28    30    1
    63    47    46    1
    64    56    55    1
    65    46    40   am
    66    38    39    1
    67    52    55    1
    68    52    51    1
    69    40    39    1
    70    40    41    2
    71    39    42    1
    72    42    43    1
    73    44    43   ar
    74    43    45   ar
