@<TRIPOS>MOLECULE
tmp/5t97A00.pdb
 190 181 0 0 0
SMALL
GASTEIGER

@<TRIPOS>ATOM
      1  N        -47.4760    1.3520  -25.5420 N.3    20  MET20      -0.1245
      2  CA       -46.4160    1.8780  -26.4080 C.3    20  MET20       0.1570
      3  C        -46.9280    3.0730  -27.1800 C.2    20  MET20       0.2261
      4  O        -46.4440    4.1800  -26.9500 O.2    20  MET20      -0.2867
      5  CB       -45.8290    0.7950  -27.3540 C.3    20  MET20       0.0387
      6  CG       -44.7600    1.3270  -28.3240 C.3    20  MET20       0.0595
      7  SD       -43.1550    1.7920  -27.5730 S.3    20  MET20      -0.1393
      8  CE       -42.3890    2.6600  -28.9310 C.3    20  MET20       0.0692
      9  N        -47.3270    6.4130  -25.4160 N.3    23  LEU23      -0.1231
     10  CA       -46.0410    7.0910  -25.2450 C.3    23  LEU23       0.1693
     11  C        -45.4820    7.5870  -26.5580 C.2    23  LEU23       0.2592
     12  O        -44.9740    8.7060  -26.6020 O.2    23  LEU23      -0.2718
     13  CB       -45.0190    6.1740  -24.5380 C.3    23  LEU23       0.0284
     14  CG       -45.4210    5.6290  -23.1610 C.3    23  LEU23       0.0019
     15  CD1      -44.5540    4.4610  -22.7680 C.3    23  LEU23       0.0001
     16  CD2      -45.3560    6.6980  -22.1040 C.3    23  LEU23       0.0001
     17  N        -45.6070    6.7810  -27.6300 N.am   24  THR24      -0.1953
     18  CA       -45.1390    7.1370  -28.9740 C.3    24  THR24       0.1897
     19  C        -45.7760    8.4410  -29.4290 C.2    24  THR24       0.2313
     20  O        -45.0780    9.2800  -29.9920 O.2    24  THR24      -0.2863
     21  CB       -45.4140    6.0300  -29.9950 C.3    24  THR24       0.1794
     22  OG1      -45.2670    4.7520  -29.3760 O.3    24  THR24      -0.2208
     23  CG2      -44.5200    6.1410  -31.2320 C.3    24  THR24       0.0378
     24  N        -47.2740   10.8040  -27.3450 N.3    26  LEU26      -0.1231
     25  CA       -46.8110   11.7850  -26.3580 C.3    26  LEU26       0.1693
     26  C        -45.4420   12.3650  -26.7450 C.2    26  LEU26       0.2592
     27  O        -45.2840   13.5880  -26.7660 O.2    26  LEU26      -0.2718
     28  CB       -46.7630   11.1290  -24.9690 C.3    26  LEU26       0.0284
     29  CG       -46.2500   11.9590  -23.8020 C.3    26  LEU26       0.0019
     30  CD1      -47.0750   13.2350  -23.5980 C.3    26  LEU26       0.0001
     31  CD2      -46.2590   11.1420  -22.5360 C.3    26  LEU26       0.0001
     32  N        -44.4870   11.4780  -27.1030 N.am   27  ALA27      -0.1966
     33  CA       -43.1240   11.7960  -27.5330 C.3    27  ALA27       0.1728
     34  C        -43.0740   12.7450  -28.7410 C.2    27  ALA27       0.2616
     35  O        -42.2530   13.6650  -28.7720 O.2    27  ALA27      -0.2715
     36  CB       -42.3890   10.5120  -27.8680 C.3    27  ALA27       0.0334
     37  N        -43.9460   12.4980  -29.7360 N.am   28  ASP28      -0.1971
     38  CA       -44.0390   13.2620  -30.9820 C.3    28  ASP28       0.1709
     39  C        -44.7410   14.5930  -30.7190 C.2    28  ASP28       0.2293
     40  O        -44.4790   15.5890  -31.4060 O.2    28  ASP28      -0.2864
     41  CB       -44.7560   12.4210  -32.0630 C.3    28  ASP28       0.1436
     42  CG       -44.1350   11.0430  -32.3280 C.2    28  ASP28       0.3671
     43  OD1      -42.9260   10.8610  -32.0400 O.co2  28  ASP28      -0.2456
     44  OD2      -44.8580   10.1510  -32.8130 O.co2  28  ASP28      -0.2456
     45  N        -44.4380   16.1510  -27.6910 N.3    30  GLU30      -0.1231
     46  CA       -43.3860   16.8700  -26.9580 C.3    30  GLU30       0.1699
     47  C        -42.2190   17.3090  -27.8640 C.2    30  GLU30       0.2592
     48  O        -41.4820   18.2290  -27.5020 O.2    30  GLU30      -0.2718
     49  CB       -42.8580   16.0310  -25.7940 C.3    30  GLU30       0.0402
     50  CG       -43.7550   15.9950  -24.5740 C.3    30  GLU30       0.1161
     51  CD       -43.1290   15.2500  -23.4130 C.2    30  GLU30       0.3649
     52  OE1      -43.4180   14.0420  -23.2620 O.co2  30  GLU30      -0.2457
     53  OE2      -42.3110   15.8580  -22.6860 O.co2  30  GLU30      -0.2457
     54  N        -42.0550   16.6620  -29.0330 N.am   31  LEU31      -0.1980
     55  CA       -41.0270   17.0270  -30.0010 C.3    31  LEU31       0.1596
     56  C        -41.3130   18.3870  -30.6280 C.2    31  LEU31       0.2287
     57  O        -40.3720   19.0870  -30.9980 O.2    31  LEU31      -0.2864
     58  CB       -40.8790   15.9620  -31.0900 C.3    31  LEU31       0.0297
     59  CG       -39.8740   14.8580  -30.7890 C.3    31  LEU31       0.0022
     60  CD1      -40.2180   13.5870  -31.5280 C.3    31  LEU31       0.0001
     61  CD2      -38.4720   15.2850  -31.1350 C.3    31  LEU31       0.0001
     62  N        -32.8020   14.8800  -29.4510 N.3    60  TRP60      -0.1227
     63  CA       -34.2430   14.7200  -29.2320 C.3    60  TRP60       0.1737
     64  C        -34.6380   13.6870  -28.1440 C.2    60  TRP60       0.2595
     65  O        -35.4510   14.0480  -27.2970 O.2    60  TRP60      -0.2718
     66  CB       -35.0270   14.4830  -30.5310 C.3    60  TRP60       0.0564
     67  CG       -34.9280   13.1170  -31.1240 C.ar   60  TRP60       0.0003
     68  CD1      -34.0470   12.7020  -32.0730 C.ar   60  TRP60       0.0946
     69  CD2      -35.8010   12.0050  -30.8720 C.ar   60  TRP60       0.0152
     70  NE1      -34.2750   11.3810  -32.3860 N.ar   60  TRP60      -0.2442
     71  CE2      -35.3500   10.9290  -31.6680 C.ar   60  TRP60       0.0810
     72  CE3      -36.9040   11.8020  -30.0230 C.ar   60  TRP60       0.0012
     73  CZ2      -35.9630    9.6700  -31.6460 C.ar   60  TRP60       0.0191
     74  CZ3      -37.5060   10.5490  -29.9900 C.ar   60  TRP60       0.0001
     75  CH2      -37.0380    9.5010  -30.7950 C.ar   60  TRP60       0.0015
     76  N        -34.0590   12.4600  -28.1120 N.am   61  LEU61      -0.1980
     77  CA       -34.4370   11.4860  -27.0640 C.3    61  LEU61       0.1596
     78  C        -33.7650   11.7820  -25.6950 C.2    61  LEU61       0.2287
     79  O        -34.3740   11.5530  -24.6510 O.2    61  LEU61      -0.2864
     80  CB       -34.2230   10.0310  -27.5140 C.3    61  LEU61       0.0297
     81  CG       -35.0140    8.9360  -26.7550 C.3    61  LEU61       0.0022
     82  CD1      -36.5070    9.2380  -26.6760 C.3    61  LEU61       0.0001
     83  CD2      -34.7960    7.5610  -27.3810 C.3    61  LEU61       0.0001
     84  N        -35.8530   14.4850  -24.1510 N.3    64  LEU64      -0.1231
     85  CA       -37.0840   13.8850  -23.6240 C.3    64  LEU64       0.1693
     86  C        -36.8220   13.1960  -22.2960 C.2    64  LEU64       0.2591
     87  O        -37.4740   13.5160  -21.2930 O.2    64  LEU64      -0.2718
     88  CB       -37.7030   12.9010  -24.6260 C.3    64  LEU64       0.0284
     89  CG       -38.4380   13.5380  -25.7890 C.3    64  LEU64       0.0019
     90  CD1      -38.4860   12.6050  -26.9710 C.3    64  LEU64       0.0001
     91  CD2      -39.8160   14.0310  -25.3770 C.3    64  LEU64       0.0001
     92  N        -35.8030   12.3120  -22.2880 N.am   65  MET65      -0.1979
     93  CA       -35.3580   11.5410  -21.1350 C.3    65  MET65       0.1605
     94  C        -34.9460   12.3990  -19.9200 C.2    65  MET65       0.2287
     95  O        -35.3890   12.0820  -18.8140 O.2    65  MET65      -0.2864
     96  CB       -34.2460   10.5740  -21.5390 C.3    65  MET65       0.0413
     97  CG       -34.7530    9.3690  -22.2880 C.3    65  MET65       0.0598
     98  SD       -33.4130    8.2760  -22.7840 S.3    65  MET65      -0.1393
     99  CE       -34.3310    7.0060  -23.5910 C.3    65  MET65       0.0692
    100  N        -38.0530   13.8600  -18.4910 N.3    68  LEU68      -0.1245
    101  CA       -38.8110   12.7770  -17.8480 C.3    68  LEU68       0.1561
    102  C        -38.2970   12.4720  -16.4480 C.2    68  LEU68       0.2260
    103  O        -39.1030   12.2970  -15.5410 O.2    68  LEU68      -0.2867
    104  CB       -38.8070   11.5080  -18.7190 C.3    68  LEU68       0.0270
    105  CG       -39.3260   10.2160  -18.0690 C.3    68  LEU68       0.0019
    106  CD1      -40.8260   10.2860  -17.7780 C.3    68  LEU68       0.0001
    107  CD2      -38.9870    8.9940  -18.9150 C.3    68  LEU68       0.0001
    108  N        -39.3840   15.1480  -14.1060 N.3    71  ARG71      -0.1245
    109  CA       -40.7950   14.9670  -13.7500 C.3    71  ARG71       0.1563
    110  C        -40.9940   13.8550  -12.7040 C.2    71  ARG71       0.2260
    111  O        -41.9250   13.9440  -11.9000 O.2    71  ARG71      -0.2867
    112  CB       -41.6600   14.6710  -14.9930 C.3    71  ARG71       0.0307
    113  CG       -41.5910   15.7470  -16.0690 C.3    71  ARG71       0.0489
    114  CD       -42.7070   15.6990  -17.1040 C.3    71  ARG71       0.2205
    115  NE       -42.7650   14.4690  -17.9040 N.pl3  71  ARG71      -0.0865
    116  CZ       -42.0000   14.2050  -18.9630 C.cat  71  ARG71       0.5346
    117  NH1      -41.0410   15.0460  -19.3260 N.pl3  71  ARG71       0.1354
    118  NH2      -42.1610   13.0780  -19.6400 N.pl3  71  ARG71       0.1354
    119  N        -44.5490   10.4210  -17.1820 N.3    81  PHE81      -0.1241
    120  CA       -44.4950   10.7860  -18.6010 C.3    81  PHE81       0.1605
    121  C        -45.4110   11.9950  -18.9060 C.2    81  PHE81       0.2264
    122  O        -45.1130   12.7980  -19.8010 O.2    81  PHE81      -0.2867
    123  CB       -44.8850    9.5850  -19.4680 C.3    81  PHE81       0.0534
    124  CG       -43.8400    8.5050  -19.5530 C.ar   81  PHE81      -0.0203
    125  CD1      -42.8450    8.5510  -20.5240 C.ar   81  PHE81      -0.0042
    126  CD2      -43.8730    7.4140  -18.6960 C.ar   81  PHE81      -0.0042
    127  CE1      -41.8870    7.5350  -20.6180 C.ar   81  PHE81      -0.0003
    128  CE2      -42.9080    6.4010  -18.7880 C.ar   81  PHE81      -0.0003
    129  CZ       -41.9260    6.4680  -19.7530 C.ar   81  PHE81      -0.0000
    130  N        -37.3640   -3.8310  -25.3270 N.3    88  GLY88      -0.1210
    131  CA       -36.4080   -3.7490  -24.2220 C.3    88  GLY88       0.1956
    132  C        -36.6090   -2.5750  -23.2750 C.2    88  GLY88       0.2611
    133  O        -35.6660   -2.1690  -22.5860 O.2    88  GLY88      -0.2717
    134  N        -37.8550   -2.0340  -23.2270 N.am   89  MET89      -0.1979
    135  CA       -38.3020   -0.8920  -22.4170 C.3    89  MET89       0.1605
    136  C        -38.0920   -1.0830  -20.8950 C.2    89  MET89       0.2287
    137  O        -37.8160   -0.1090  -20.1810 O.2    89  MET89      -0.2864
    138  CB       -39.7700   -0.5870  -22.7580 C.3    89  MET89       0.0413
    139  CG       -40.3940    0.5130  -21.9420 C.3    89  MET89       0.0598
    140  SD       -41.0990    1.8170  -22.9620 S.3    89  MET89      -0.1393
    141  CE       -42.7080    1.1240  -23.3390 C.3    89  MET89       0.0692
    142  N        -34.6470    0.1170  -20.0880 N.3    92  ILE92      -0.1231
    143  CA       -34.6150    1.5900  -20.2460 C.3    92  ILE92       0.1692
    144  C        -35.2850    2.2970  -19.0460 C.2    92  ILE92       0.2592
    145  O        -34.7030    3.2400  -18.5000 O.2    92  ILE92      -0.2718
    146  CB       -35.2010    2.0080  -21.6290 C.3    92  ILE92       0.0266
    147  CG1      -34.2620    1.5850  -22.7960 C.3    92  ILE92       0.0019
    148  CG2      -35.5900    3.4870  -21.7030 C.3    92  ILE92       0.0020
    149  CD1      -32.9800    2.3970  -23.0260 C.3    92  ILE92       0.0001
    150  N        -36.4760    1.8020  -18.6190 N.am   93  PHE93      -0.1976
    151  CA       -37.2240    2.2890  -17.4550 C.3    93  PHE93       0.1639
    152  C        -36.3650    2.1970  -16.1990 C.2    93  PHE93       0.2290
    153  O        -36.3040    3.1560  -15.4260 O.2    93  PHE93      -0.2864
    154  CB       -38.5070    1.4630  -17.2560 C.3    93  PHE93       0.0560
    155  CG       -39.7410    1.8730  -18.0370 C.ar   93  PHE93      -0.0200
    156  CD1      -39.6580    2.7930  -19.0800 C.ar   93  PHE93      -0.0042
    157  CD2      -40.9820    1.3110  -17.7510 C.ar   93  PHE93      -0.0042
    158  CE1      -40.8010    3.1680  -19.7960 C.ar   93  PHE93      -0.0003
    159  CE2      -42.1180    1.6670  -18.4850 C.ar   93  PHE93      -0.0003
    160  CZ       -42.0210    2.5910  -19.5040 C.ar   93  PHE93      -0.0000
    161  N        -33.6060    4.7990  -16.4020 N.3    96  LEU96      -0.1245
    162  CA       -34.2070    6.1250  -16.2290 C.3    96  LEU96       0.1561
    163  C        -34.5140    6.3910  -14.7620 C.2    96  LEU96       0.2260
    164  O        -34.1650    7.4560  -14.2710 O.2    96  LEU96      -0.2867
    165  CB       -35.4700    6.3070  -17.1050 C.3    96  LEU96       0.0270
    166  CG       -35.2190    6.8100  -18.5410 C.3    96  LEU96       0.0019
    167  CD1      -36.3150    6.3790  -19.4920 C.3    96  LEU96       0.0001
    168  CD2      -35.0770    8.3160  -18.5830 C.3    96  LEU96       0.0001
    169  N        -32.1120    3.0960  -26.4460 N.3   173  GLY173     -0.1225
    170  CA       -33.4940    3.3610  -26.8450 C.3   173  GLY173      0.1811
    171  C        -33.6750    3.5400  -28.3400 C.2   173  GLY173      0.2280
    172  O        -34.6260    2.9990  -28.9100 O.2   173  GLY173     -0.2866
    173  N        -33.3140    0.1750  -30.2940 N.3   176  HIS176     -0.1226
    174  CA       -34.5890   -0.5200  -30.1780 C.3   176  HIS176      0.1752
    175  C        -35.6620    0.0290  -31.1430 C.2   176  HIS176      0.2595
    176  O        -36.4160   -0.7660  -31.7120 O.2   176  HIS176     -0.2718
    177  CB       -35.0610   -0.5270  -28.7220 C.3   176  HIS176      0.0759
    178  CG       -34.2220   -1.3890  -27.8260 C.ar  176  HIS176      0.0818
    179  ND1      -33.5790   -0.8680  -26.7190 N.ar  176  HIS176     -0.2268
    180  CD2      -33.9480   -2.7160  -27.9030 C.ar  176  HIS176      0.1154
    181  CE1      -32.9460   -1.8870  -26.1520 C.ar  176  HIS176      0.1986
    182  NE2      -33.1380   -3.0190  -26.8270 N.ar  176  HIS176     -0.2212
    183  N        -35.6820    1.3650  -31.3820 N.am  177  LEU177     -0.1980
    184  CA       -36.6050    2.0080  -32.3270 C.3   177  LEU177      0.1596
    185  C        -36.0320    1.9760  -33.7640 C.2   177  LEU177      0.2287
    186  O        -35.5730    0.9420  -34.2660 O.2   177  LEU177     -0.2864
    187  CB       -36.8880    3.4690  -31.9200 C.3   177  LEU177      0.0297
    188  CG       -37.5220    3.7560  -30.5460 C.3   177  LEU177      0.0022
    189  CD1      -37.3940    5.2290  -30.1850 C.3   177  LEU177      0.0001
    190  CD2      -38.9940    3.3660  -30.5050 C.3   177  LEU177      0.0001
@<TRIPOS>BOND
     1   186   185    2
     2   185   184    1
     3    44    42   ar
     4    70    68   ar
     5    70    71   ar
     6    42    41    1
     7    42    43   ar
     8   184   187    1
     9   184   183    1
    10    68    67   ar
    11    41    38    1
    12   187   188    1
    13   176   175    2
    14    71    73   ar
    15    71    69   ar
    16    73    75   ar
    17    60    59    1
    18    40    39    2
    19   183   175   am
    20    23    21    1
    21   175   174    1
    22    61    59    1
    23    67    69   ar
    24    67    66    1
    25    58    59    1
    26    58    55    1
    27    57    56    2
    28    38    39    1
    29    38    37    1
    30    69    72   ar
    31    75    74   ar
    32    56    55    1
    33   188   190    1
    34   188   189    1
    35    66    63    1
    36   173   174    1
    37   174   177    1
    38    72    74   ar
    39    55    54    1
    40    21    22    1
    41    21    18    1
    42    20    19    2
    43    37    34   am
    44    62    63    1
    45    19    18    1
    46    63    64    1
    47    54    47   am
    48    18    17    1
    49     8     7    1
    50   172   171    2
    51    35    34    2
    52    34    33    1
    53   177   178    1
    54   171   170    1
    55     6     7    1
    56     6     5    1
    57    64    76   am
    58    64    65    2
    59    76    77    1
    60   180   178   ar
    61   180   182   ar
    62    36    33    1
    63    47    48    2
    64    47    46    1
    65   178   179   ar
    66    45    46    1
    67    17    11   am
    68    33    32    1
    69    80    77    1
    70    80    81    1
    71    83    81    1
    72     5     2    1
    73    24    25    1
    74     3     4    2
    75     3     2    1
    76    32    26   am
    77    77    78    1
    78    90    89    1
    79    46    49    1
    80   170   169    1
    81   182   181   ar
    82    27    26    2
    83    81    82    1
    84    26    25    1
    85   179   181   ar
    86    12    11    2
    87    11    10    1
    88     2     1    1
    89    25    28    1
    90    49    50    1
    91    89    91    1
    92    89    88    1
    93    78    79    2
    94     9    10    1
    95   130   131    1
    96    10    13    1
    97    28    29    1
    98    88    85    1
    99    50    51    1
   100    13    14    1
   101   131   132    1
   102    84    85    1
   103    29    30    1
   104    29    31    1
   105    85    86    1
   106    99    98    1
   107    51    52   ar
   108    51    53   ar
   109   141   140    1
   110   132   134   am
   111   132   133    2
   112   134   135    1
   113    14    15    1
   114    14    16    1
   115   149   147    1
   116   140   139    1
   117   147   146    1
   118    98    97    1
   119   138   135    1
   120   138   139    1
   121   135   136    1
   122    86    92   am
   123    86    87    2
   124    97    96    1
   125    92    93    1
   126   148   146    1
   127   146   143    1
   128    96    93    1
   129    93    94    1
   130   136   137    2
   131   127   125   ar
   132   127   129   ar
   133   125   124   ar
   134   143   142    1
   135   143   144    1
   136    94    95    2
   137   122   121    2
   138   158   160   ar
   139   158   156   ar
   140   129   128   ar
   141   118   116    1
   142   124   123    1
   143   124   126   ar
   144   160   159   ar
   145   167   166    1
   146   123   120    1
   147   117   116    1
   148   156   155   ar
   149   144   150   am
   150   144   145    2
   151   116   115    2
   152   107   105    1
   153   121   120    1
   154   128   126   ar
   155   104   105    1
   156   104   101    1
   157   150   151    1
   158   120   119    1
   159   168   166    1
   160   166   165    1
   161   100   101    1
   162   159   157   ar
   163   105   106    1
   164   155   157   ar
   165   155   154    1
   166   115   114    1
   167   101   102    1
   168   151   154    1
   169   151   152    1
   170   165   162    1
   171   114   113    1
   172   102   103    2
   173   161   162    1
   174   162   163    1
   175   152   153    2
   176   113   112    1
   177   112   109    1
   178   163   164    2
   179   108   109    1
   180   109   110    1
   181   110   111    2
