@<TRIPOS>MOLECULE
tmp/5t97B00.pdb
 190 181 0 0 0
SMALL
GASTEIGER

@<TRIPOS>ATOM
      1  N         -8.8140   -5.8530  -39.8490 N.3    22  MET22      -0.1245
      2  CA        -9.8320   -6.1040  -38.8240 C.3    22  MET22       0.1570
      3  C         -9.4560   -7.2460  -37.8730 C.2    22  MET22       0.2261
      4  O         -9.7780   -7.1800  -36.6830 O.2    22  MET22      -0.2867
      5  CB       -11.2230   -6.3180  -39.4500 C.3    22  MET22       0.0387
      6  CG       -12.3580   -6.4570  -38.4280 C.3    22  MET22       0.0595
      7  SD       -12.7220   -4.9920  -37.4090 S.3    22  MET22      -0.1393
      8  CE       -13.5200   -5.7730  -36.0180 C.3    22  MET22       0.0692
      9  N         -6.7660   -5.6580  -35.7590 N.3    25  LEU25      -0.1231
     10  CA        -7.4940   -4.7950  -34.8330 C.3    25  LEU25       0.1693
     11  C         -8.0640   -5.5540  -33.6280 C.2    25  LEU25       0.2592
     12  O         -7.9520   -5.0670  -32.5010 O.2    25  LEU25      -0.2718
     13  CB        -8.5890   -4.0160  -35.5780 C.3    25  LEU25       0.0284
     14  CG        -8.1000   -3.0390  -36.6540 C.3    25  LEU25       0.0019
     15  CD1       -9.2490   -2.5350  -37.5080 C.3    25  LEU25       0.0001
     16  CD2       -7.3310   -1.8690  -36.0470 C.3    25  LEU25       0.0001
     17  N         -8.5970   -6.7690  -33.8500 N.am   26  THR26      -0.1953
     18  CA        -9.1350   -7.5750  -32.7610 C.3    26  THR26       0.1897
     19  C         -8.0070   -8.1920  -31.8980 C.2    26  THR26       0.2313
     20  O         -8.1140   -8.1260  -30.6640 O.2    26  THR26      -0.2863
     21  CB       -10.1500   -8.5950  -33.2600 C.3    26  THR26       0.1794
     22  OG1      -11.0660   -7.9480  -34.1460 O.3    26  THR26      -0.2208
     23  CG2      -10.9080   -9.2640  -32.1160 C.3    26  THR26       0.0378
     24  N         -5.0380   -7.0370  -31.4170 N.3    28  LEU28      -0.1231
     25  CA        -4.4970   -5.8740  -30.7130 C.3    28  LEU28       0.1693
     26  C         -5.4540   -5.4970  -29.5630 C.2    28  LEU28       0.2592
     27  O         -4.9920   -5.2930  -28.4380 O.2    28  LEU28      -0.2718
     28  CB        -4.2650   -4.7000  -31.6930 C.3    28  LEU28       0.0284
     29  CG        -3.6050   -3.3960  -31.1690 C.3    28  LEU28       0.0019
     30  CD1       -2.3480   -3.6670  -30.3430 C.3    28  LEU28       0.0001
     31  CD2       -3.2860   -2.4410  -32.3180 C.3    28  LEU28       0.0001
     32  N         -6.7800   -5.4920  -29.8230 N.am   29  ALA29      -0.1966
     33  CA        -7.7750   -5.1940  -28.7920 C.3    29  ALA29       0.1728
     34  C         -7.7040   -6.1990  -27.6230 C.2    29  ALA29       0.2616
     35  O         -7.6170   -5.7870  -26.4600 O.2    29  ALA29      -0.2715
     36  CB        -9.1690   -5.1730  -29.3910 C.3    29  ALA29       0.0334
     37  N         -7.6530   -7.5120  -27.9500 N.am   30  ASP30      -0.1971
     38  CA        -7.5850   -8.6210  -26.9880 C.3    30  ASP30       0.1709
     39  C         -6.3080   -8.5920  -26.1540 C.2    30  ASP30       0.2293
     40  O         -6.3070   -9.0960  -25.0230 O.2    30  ASP30      -0.2864
     41  CB        -7.7700   -9.9750  -27.6990 C.3    30  ASP30       0.1436
     42  CG        -9.0540  -10.0850  -28.5170 C.2    30  ASP30       0.3671
     43  OD1      -10.0620   -9.4410  -28.1380 O.co2  30  ASP30      -0.2456
     44  OD2       -9.0410  -10.7860  -29.5570 O.co2  30  ASP30      -0.2456
     45  N         -4.5150   -5.4520  -25.6680 N.3    32  GLU32      -0.1231
     46  CA        -4.6230   -4.1700  -24.9520 C.3    32  GLU32       0.1699
     47  C         -5.5170   -4.3300  -23.7130 C.2    32  GLU32       0.2592
     48  O         -5.2870   -3.6610  -22.7000 O.2    32  GLU32      -0.2718
     49  CB        -5.1970   -3.0770  -25.8680 C.3    32  GLU32       0.0402
     50  CG        -4.1770   -2.4200  -26.7830 C.3    32  GLU32       0.1161
     51  CD        -4.7550   -1.4340  -27.7790 C.2    32  GLU32       0.3649
     52  OE1       -5.5320   -1.8610  -28.6620 O.co2  32  GLU32      -0.2457
     53  OE2       -4.4230   -0.2310  -27.6830 O.co2  32  GLU32      -0.2457
     54  N         -6.5330   -5.2280  -23.8120 N.am   33  LEU33      -0.1980
     55  CA        -7.4910   -5.5570  -22.7560 C.3    33  LEU33       0.1596
     56  C         -6.8170   -6.1030  -21.4800 C.2    33  LEU33       0.2287
     57  O         -7.2450   -5.7700  -20.3670 O.2    33  LEU33      -0.2864
     58  CB        -8.5090   -6.5950  -23.2690 C.3    33  LEU33       0.0297
     59  CG        -9.7140   -6.1130  -24.0860 C.3    33  LEU33       0.0022
     60  CD1      -10.4920   -7.3000  -24.6440 C.3    33  LEU33       0.0001
     61  CD2      -10.6470   -5.2130  -23.2680 C.3    33  LEU33       0.0001
     62  N        -14.7290   -0.9760  -21.2790 N.3    62  TRP62      -0.1227
     63  CA       -13.5550   -1.4510  -22.0440 C.3    62  TRP62       0.1737
     64  C        -13.4140   -0.8500  -23.4810 C.2    62  TRP62       0.2595
     65  O        -12.2860   -0.5790  -23.8940 O.2    62  TRP62      -0.2718
     66  CB       -13.4700   -2.9890  -22.0760 C.3    62  TRP62       0.0564
     67  CG       -14.5070   -3.6450  -22.9270 C.ar   62  TRP62       0.0003
     68  CD1      -15.7400   -4.0740  -22.5380 C.ar   62  TRP62       0.0946
     69  CD2      -14.4060   -3.9220  -24.3330 C.ar   62  TRP62       0.0152
     70  NE1      -16.4270   -4.5790  -23.6220 N.ar   62  TRP62      -0.2442
     71  CE2      -15.6340   -4.4840  -24.7380 C.ar   62  TRP62       0.0810
     72  CE3      -13.3950   -3.7370  -25.2950 C.ar   62  TRP62       0.0012
     73  CZ2      -15.8810   -4.8570  -26.0610 C.ar   62  TRP62       0.0191
     74  CZ3      -13.6440   -4.0970  -26.6050 C.ar   62  TRP62       0.0001
     75  CH2      -14.8640   -4.6640  -26.9760 C.ar   62  TRP62       0.0015
     76  N        -14.5220   -0.6270  -24.2260 N.am   63  LEU63      -0.1980
     77  CA       -14.3900   -0.0330  -25.5630 C.3    63  LEU63       0.1596
     78  C        -14.1720    1.5190  -25.4870 C.2    63  LEU63       0.2287
     79  O        -13.6820    2.1130  -26.4530 O.2    63  LEU63      -0.2864
     80  CB       -15.5400   -0.4440  -26.5220 C.3    63  LEU63       0.0297
     81  CG       -15.4970    0.0250  -28.0230 C.3    63  LEU63       0.0022
     82  CD1      -14.1750   -0.2750  -28.7100 C.3    63  LEU63       0.0001
     83  CD2      -16.6060   -0.5930  -28.8330 C.3    63  LEU63       0.0001
     84  N        -10.2870    1.7780  -24.7800 N.3    66  LEU66      -0.1231
     85  CA        -9.6250    1.4570  -26.0470 C.3    66  LEU66       0.1693
     86  C         -9.7050    2.6500  -27.0200 C.2    66  LEU66       0.2591
     87  O         -8.7050    2.9770  -27.6620 O.2    66  LEU66      -0.2718
     88  CB       -10.1520    0.1440  -26.6900 C.3    66  LEU66       0.0284
     89  CG        -9.7690   -1.2170  -26.0210 C.3    66  LEU66       0.0019
     90  CD1      -10.1380   -2.3960  -26.9130 C.3    66  LEU66       0.0001
     91  CD2       -8.2870   -1.3140  -25.6800 C.3    66  LEU66       0.0001
     92  N        -10.8590    3.3490  -27.0450 N.am   67  MET67      -0.1979
     93  CA       -11.0880    4.5300  -27.8740 C.3    67  MET67       0.1605
     94  C        -10.3260    5.7450  -27.4170 C.2    67  MET67       0.2287
     95  O         -9.7300    6.4040  -28.2680 O.2    67  MET67      -0.2864
     96  CB       -12.5720    4.8440  -27.9970 C.3    67  MET67       0.0413
     97  CG       -13.1530    4.2870  -29.2540 C.3    67  MET67       0.0598
     98  SD       -14.8050    3.5950  -29.0990 S.3    67  MET67      -0.1393
     99  CE       -15.1770    3.3350  -30.8140 C.3    67  MET67       0.0692
    100  N         -6.5420    5.2010  -28.0640 N.3    70  LEU70      -0.1245
    101  CA        -6.3410    5.3490  -29.4950 C.3    70  LEU70       0.1561
    102  C         -6.3020    6.8160  -29.8580 C.2    70  LEU70       0.2260
    103  O         -5.3380    7.2340  -30.4960 O.2    70  LEU70      -0.2867
    104  CB        -7.4310    4.6120  -30.2930 C.3    70  LEU70       0.0270
    105  CG        -7.4770    4.8770  -31.8050 C.3    70  LEU70       0.0019
    106  CD1       -6.2040    4.3940  -32.5190 C.3    70  LEU70       0.0001
    107  CD2       -8.7110    4.2840  -32.4160 C.3    70  LEU70       0.0001
    108  N         -2.8370    8.5640  -28.6180 N.3    73  ARG73      -0.1245
    109  CA        -1.6270    8.4070  -29.4290 C.3    73  ARG73       0.1563
    110  C         -1.7300    9.0010  -30.8300 C.2    73  ARG73       0.2260
    111  O         -0.7140    9.4460  -31.3730 O.2    73  ARG73      -0.2867
    112  CB        -1.1300    6.9620  -29.4950 C.3    73  ARG73       0.0307
    113  CG        -2.1810    5.9030  -29.6260 C.3    73  ARG73       0.0489
    114  CD        -1.6470    4.5350  -29.2250 C.3    73  ARG73       0.2205
    115  NE        -2.5790    3.4920  -29.6540 N.pl3  73  ARG73      -0.0865
    116  CZ        -3.5160    2.9530  -28.8830 C.cat  73  ARG73       0.5346
    117  NH1       -3.6200    3.3050  -27.6040 N.pl3  73  ARG73       0.1354
    118  NH2       -4.3390    2.0360  -29.3740 N.pl3  73  ARG73       0.1354
    119  N         -3.0460    2.9330  -34.2060 N.3    83  PHE83      -0.1241
    120  CA        -3.5750    1.8340  -33.3930 C.3    83  PHE83       0.1605
    121  C         -2.4160    1.1750  -32.6240 C.2    83  PHE83       0.2264
    122  O         -2.5410    0.8590  -31.4350 O.2    83  PHE83      -0.2867
    123  CB        -4.3300    0.8370  -34.2850 C.3    83  PHE83       0.0534
    124  CG        -5.6660    1.3540  -34.7800 C.ar   83  PHE83      -0.0203
    125  CD1       -5.7540    2.1080  -35.9490 C.ar   83  PHE83      -0.0042
    126  CD2       -6.8420    1.0780  -34.0840 C.ar   83  PHE83      -0.0042
    127  CE1       -6.9960    2.5750  -36.4130 C.ar   83  PHE83      -0.0003
    128  CE2       -8.0810    1.5190  -34.5670 C.ar   83  PHE83      -0.0003
    129  CZ        -8.1470    2.2820  -35.7140 C.ar   83  PHE83      -0.0000
    130  N        -19.3200   -0.4830  -39.9510 N.3    92  GLY92      -0.1210
    131  CA       -19.4650    0.9690  -39.9700 C.3    92  GLY92       0.1956
    132  C        -18.2610    1.6960  -39.4050 C.2    92  GLY92       0.2611
    133  O        -18.3900    2.6580  -38.6400 O.2    92  GLY92      -0.2717
    134  N        -17.0830    1.2240  -39.7980 N.am   93  MET93      -0.1979
    135  CA       -15.7670    1.6650  -39.3860 C.3    93  MET93       0.1605
    136  C        -15.4700    3.1400  -39.6920 C.2    93  MET93       0.2287
    137  O        -14.9840    3.8390  -38.8040 O.2    93  MET93      -0.2864
    138  CB       -14.7340    0.7310  -40.0390 C.3    93  MET93       0.0413
    139  CG       -13.3430    0.8440  -39.4830 C.3    93  MET93       0.0598
    140  SD       -12.8320   -0.5510  -38.4530 S.3    93  MET93      -0.1393
    141  CE       -12.3250   -1.7320  -39.7140 C.3    93  MET93       0.0692
    142  N        -17.0640    5.8380  -37.3630 N.3    96  ILE96      -0.1231
    143  CA       -16.3900    5.7030  -36.0620 C.3    96  ILE96       0.1692
    144  C        -15.0010    6.3740  -36.1740 C.2    96  ILE96       0.2592
    145  O        -14.6790    7.2200  -35.3480 O.2    96  ILE96      -0.2718
    146  CB       -16.3330    4.2010  -35.6470 C.3    96  ILE96       0.0266
    147  CG1      -17.7260    3.6440  -35.2780 C.3    96  ILE96       0.0019
    148  CG2      -15.3060    3.9140  -34.5620 C.3    96  ILE96       0.0020
    149  CD1      -18.2270    3.8650  -33.8450 C.3    96  ILE96       0.0001
    150  N        -14.2510    6.0700  -37.2620 N.am   97  PHE97      -0.1976
    151  CA       -12.9310    6.6140  -37.5790 C.3    97  PHE97       0.1639
    152  C        -12.9230    8.1340  -37.6760 C.2    97  PHE97       0.2290
    153  O        -11.9630    8.7580  -37.2470 O.2    97  PHE97      -0.2864
    154  CB       -12.4080    6.0110  -38.8880 C.3    97  PHE97       0.0560
    155  CG       -11.5970    4.7380  -38.8020 C.ar   97  PHE97      -0.0200
    156  CD1      -11.8640    3.7840  -37.8250 C.ar   97  PHE97      -0.0042
    157  CD2      -10.6110    4.4620  -39.7380 C.ar   97  PHE97      -0.0042
    158  CE1      -11.1160    2.6040  -37.7540 C.ar   97  PHE97      -0.0003
    159  CE2       -9.8870    3.2680  -39.6880 C.ar   97  PHE97      -0.0003
    160  CZ       -10.1520    2.3410  -38.7040 C.ar   97  PHE97      -0.0000
    161  N        -13.5370    9.4610  -34.1200 N.3   100  LEU100     -0.1245
    162  CA       -12.2460    9.1440  -33.5030 C.3   100  LEU100      0.1561
    163  C        -11.2140   10.1790  -33.9170 C.2   100  LEU100      0.2260
    164  O        -10.5290   10.7120  -33.0530 O.2   100  LEU100     -0.2867
    165  CB       -11.7610    7.7360  -33.9030 C.3   100  LEU100      0.0270
    166  CG       -12.4220    6.5350  -33.2200 C.3   100  LEU100      0.0019
    167  CD1      -12.1150    5.2920  -33.9620 C.3   100  LEU100      0.0001
    168  CD2      -11.9510    6.3670  -31.8130 C.3   100  LEU100      0.0001
    169  N        -20.3160    1.6130  -31.7580 N.3   186  GLY186     -0.1225
    170  CA       -19.3320    0.6260  -32.1930 C.3   186  GLY186      0.1811
    171  C        -19.7120   -0.7770  -31.7800 C.2   186  GLY186      0.2280
    172  O        -19.5500   -1.7150  -32.5640 O.2   186  GLY186     -0.2866
    173  N        -22.2340   -2.3500  -34.2170 N.3   189  HIS189     -0.1226
    174  CA       -21.6380   -3.0430  -35.3570 C.3   189  HIS189      0.1752
    175  C        -20.9190   -4.3230  -34.9950 C.2   189  HIS189      0.2595
    176  O        -20.8880   -5.2360  -35.8150 O.2   189  HIS189     -0.2718
    177  CB       -20.7210   -2.1200  -36.1400 C.3   189  HIS189      0.0759
    178  CG       -21.4350   -0.9430  -36.7030 C.ar  189  HIS189      0.0818
    179  ND1      -21.7600    0.1410  -35.9130 N.ar  189  HIS189     -0.2268
    180  CD2      -21.8940   -0.7280  -37.9570 C.ar  189  HIS189      0.1154
    181  CE1      -22.3790    0.9970  -36.7120 C.ar  189  HIS189      0.1986
    182  NE2      -22.4830    0.5170  -37.9540 N.ar  189  HIS189     -0.2212
    183  N        -20.3410   -4.4020  -33.7830 N.am  190  LEU190     -0.1980
    184  CA       -19.6490   -5.6090  -33.3230 C.3   190  LEU190      0.1596
    185  C        -20.6480   -6.7700  -33.2510 C.2   190  LEU190      0.2287
    186  O        -20.4710   -7.7470  -33.9800 O.2   190  LEU190     -0.2864
    187  CB       -18.9370   -5.3840  -31.9760 C.3   190  LEU190      0.0297
    188  CG       -17.6470   -4.5810  -32.0290 C.3   190  LEU190      0.0022
    189  CD1      -17.3860   -3.8900  -30.7160 C.3   190  LEU190      0.0001
    190  CD2      -16.4760   -5.4620  -32.3920 C.3   190  LEU190      0.0001
@<TRIPOS>BOND
     1   138   139    1
     2   138   135    1
     3   131   130    1
     4   131   132    1
     5     1     2    1
     6   134   132   am
     7   134   135    1
     8   157   159   ar
     9   157   155   ar
    10   141   140    1
    11   136   135    1
    12   136   137    2
    13   159   160   ar
    14   139   140    1
    15     5     2    1
    16     5     6    1
    17   132   133    2
    18   154   155    1
    19   154   151    1
    20     2     3    1
    21   155   156   ar
    22   160   158   ar
    23     6     7    1
    24   180   182   ar
    25   180   178   ar
    26   182   181   ar
    27     3     4    2
    28   156   158   ar
    29   152   151    1
    30   152   153    2
    31   151   150    1
    32    15    14    1
    33     7     8    1
    34   142   143    1
    35   150   144   am
    36   181   179   ar
    37   178   177    1
    38   178   179   ar
    39    14    16    1
    40    14    13    1
    41   127   125   ar
    42   127   129   ar
    43   144   143    1
    44   144   145    2
    45   177   174    1
    46   143   146    1
    47   125   124   ar
    48   176   175    2
    49     9    10    1
    50   129   128   ar
    51   146   147    1
    52   146   148    1
    53    13    10    1
    54   174   175    1
    55   174   173    1
    56   147   149    1
    57   175   183   am
    58    10    11    1
    59   124   123    1
    60   124   126   ar
    61   128   126   ar
    62   123   120    1
    63   119   120    1
    64    22    21    1
    65   161   162    1
    66   186   185    2
    67   167   166    1
    68   163   162    1
    69   163   164    2
    70   165   162    1
    71   165   166    1
    72    17    11   am
    73    17    18    1
    74   183   184    1
    75    11    12    2
    76   120   121    1
    77   184   185    1
    78   184   187    1
    79    21    18    1
    80    21    23    1
    81   166   168    1
    82    18    19    1
    83   121   122    2
    84   172   171    2
    85   106   105    1
    86   107   105    1
    87   190   188    1
    88    31    29    1
    89   170   171    1
    90   170   169    1
    91   188   187    1
    92   188   189    1
    93    19    20    2
    94   105   104    1
    95    28    29    1
    96    28    25    1
    97    24    25    1
    98   111   110    2
    99    29    30    1
   100   110   109    1
   101    99    98    1
   102    25    26    1
   103   103   102    2
   104   104   101    1
   105   102   101    1
   106    32    26   am
   107    32    33    1
   108   115   114    1
   109   115   116    2
   110   113   112    1
   111   113   114    1
   112    26    27    2
   113    44    42   ar
   114   101   100    1
   115   112   109    1
   116   109   108    1
   117    36    33    1
   118   118   116    1
   119    97    98    1
   120    97    96    1
   121   116   117    1
   122    83    81    1
   123    33    34    1
   124    82    81    1
   125    52    51   ar
   126    42    43   ar
   127    42    41    1
   128    95    94    2
   129    81    80    1
   130    96    93    1
   131    37    34   am
   132    37    38    1
   133    93    94    1
   134    93    92    1
   135    51    53   ar
   136    51    50    1
   137    41    38    1
   138    87    86    2
   139    34    35    2
   140    92    86   am
   141    86    85    1
   142    38    39    1
   143    75    74   ar
   144    75    73   ar
   145    90    89    1
   146    50    49    1
   147    88    85    1
   148    88    89    1
   149    74    72   ar
   150    80    77    1
   151    79    78    2
   152    39    40    2
   153    73    71   ar
   154    85    84    1
   155    89    91    1
   156    49    46    1
   157    45    46    1
   158    77    78    1
   159    77    76    1
   160    72    69   ar
   161    46    47    1
   162    71    69   ar
   163    71    70   ar
   164    60    59    1
   165    69    67   ar
   166    76    64   am
   167    59    58    1
   168    59    61    1
   169    65    64    2
   170    54    47   am
   171    54    55    1
   172    47    48    2
   173    70    68   ar
   174    64    63    1
   175    58    55    1
   176    67    68   ar
   177    67    66    1
   178    55    56    1
   179    66    63    1
   180    63    62    1
   181    56    57    2
