@<TRIPOS>MOLECULE
tmp/5t98A00.pdb
 134 135 0 0 0
SMALL
GASTEIGER

@<TRIPOS>ATOM
      1  N         25.3270    1.0090  -27.6340 N.3   130  ARG130     -0.1231
      2  CA        25.1090    1.7890  -26.4160 C.3   130  ARG130      0.1694
      3  C         25.5880    1.0790  -25.1430 C.2   130  ARG130      0.2592
      4  O         25.5200    1.6470  -24.0580 O.2   130  ARG130     -0.2718
      5  CB        23.6250    2.1260  -26.2790 C.3   130  ARG130      0.0321
      6  CG        23.0410    2.8300  -27.4970 C.3   130  ARG130      0.0489
      7  CD        21.6520    3.4140  -27.2770 C.3   130  ARG130      0.2205
      8  NE        20.6450    2.3830  -27.0130 N.pl3 130  ARG130     -0.0865
      9  CZ        20.3350    1.8930  -25.8080 C.cat 130  ARG130      0.5346
     10  NH1       19.4000    0.9570  -25.7050 N.pl3 130  ARG130      0.1354
     11  NH2       20.9500    2.3160  -24.7100 N.pl3 130  ARG130      0.1354
     12  N         26.0360   -0.1680  -25.2870 N.am  131  TRP131     -0.1976
     13  CA        26.6690   -0.9390  -24.2220 C.3   131  TRP131      0.1640
     14  C         27.9070   -1.5650  -24.8360 C.2   131  TRP131      0.2290
     15  O         28.0550   -1.5540  -26.0510 O.2   131  TRP131     -0.2864
     16  CB        25.7170   -2.0300  -23.6910 C.3   131  TRP131      0.0576
     17  CG        25.2610   -2.9750  -24.7630 C.ar  131  TRP131      0.0006
     18  CD1       25.8820   -4.1220  -25.1630 C.ar  131  TRP131      0.0946
     19  CD2       24.1270   -2.8130  -25.6220 C.ar  131  TRP131      0.0152
     20  NE1       25.2010   -4.6950  -26.2060 N.ar  131  TRP131     -0.2442
     21  CE2       24.1140   -3.9210  -26.5080 C.ar  131  TRP131      0.0810
     22  CE3       23.1080   -1.8550  -25.7170 C.ar  131  TRP131      0.0012
     23  CZ2       23.1200   -4.0970  -27.4860 C.ar  131  TRP131      0.0191
     24  CZ3       22.1180   -2.0280  -26.6880 C.ar  131  TRP131      0.0001
     25  CH2       22.1340   -3.1460  -27.5630 C.ar  131  TRP131      0.0015
     26  N         23.2990   -8.0070  -19.7230 N.3   284  HIS284     -0.1241
     27  CA        24.0620   -7.8910  -20.9600 C.3   284  HIS284      0.1621
     28  C         24.9950   -9.0830  -21.0850 C.2   284  HIS284      0.2264
     29  O         25.2520   -9.7710  -20.1080 O.2   284  HIS284     -0.2867
     30  CB        24.7970   -6.5580  -21.0560 C.3   284  HIS284      0.0745
     31  CG        23.9990   -5.5000  -21.7430 C.ar  284  HIS284      0.0817
     32  ND1       23.5970   -4.3380  -21.1160 N.ar  284  HIS284     -0.2268
     33  CD2       23.4860   -5.4490  -22.9960 C.ar  284  HIS284      0.1154
     34  CE1       22.8880   -3.6090  -21.9590 C.ar  284  HIS284      0.1986
     35  NE2       22.8000   -4.2620  -23.1040 N.ar  284  HIS284     -0.2212
     36  N         20.1810   -6.4430  -25.2020 N.3   318  HIS318     -0.1241
     37  CA        19.0630   -6.1110  -26.1000 C.3   318  HIS318      0.1621
     38  C         19.4150   -6.6770  -27.4660 C.2   318  HIS318      0.2264
     39  O         19.5640   -5.9540  -28.4610 O.2   318  HIS318     -0.2867
     40  CB        18.8740   -4.6040  -26.1990 C.3   318  HIS318      0.0745
     41  CG        18.3830   -3.9680  -24.9420 C.ar  318  HIS318      0.0817
     42  ND1       17.1430   -4.2470  -24.4100 N.ar  318  HIS318     -0.2268
     43  CD2       18.9390   -3.0330  -24.1360 C.ar  318  HIS318      0.1154
     44  CE1       16.9650   -3.5300  -23.3160 C.ar  318  HIS318      0.1986
     45  NE2       18.0350   -2.7760  -23.1330 N.ar  318  HIS318     -0.2212
     46  N         13.5360   -2.8800  -28.3090 N.3   385  ASN385     -0.1225
     47  CA        13.6000   -2.1810  -27.0340 C.3   385  ASN385      0.1785
     48  C         13.7000   -0.6720  -27.2250 C.2   385  ASN385      0.2597
     49  O         14.6130   -0.1970  -27.8940 O.2   385  ASN385     -0.2718
     50  CB        14.8170   -2.6570  -26.2500 C.3   385  ASN385      0.1169
     51  CG        15.0510   -1.8280  -25.0000 C.2   385  ASN385      0.2627
     52  OD1       14.2210   -1.8370  -24.0820 O.2   385  ASN385     -0.2716
     53  ND2       16.1750   -1.0880  -24.9630 N.am  385  ASN385     -0.0877
     54  N         12.7810    0.0640  -26.6050 N.am  386  GLU386     -0.1979
     55  CA        12.8020    1.5350  -26.5460 C.3   386  GLU386      0.1602
     56  C         13.0070    2.1820  -27.8970 C.2   386  GLU386      0.2287
     57  O         13.7120    3.1860  -28.0190 O.2   386  GLU386     -0.2864
     58  CB        13.8520    2.0280  -25.5480 C.3   386  GLU386      0.0415
     59  CG        13.6320    1.4950  -24.1450 C.3   386  GLU386      0.1163
     60  CD        14.4460    2.2130  -23.0930 C.2   386  GLU386      0.3649
     61  OE1       15.6330    2.4920  -23.3540 O.co2 386  GLU386     -0.2457
     62  OE2       13.9180    2.4590  -21.9950 O.co2 386  GLU386     -0.2457
     63  N          9.9520    1.2230  -17.2250 N.3   442  TYR442     -0.1241
     64  CA        10.0160    2.2680  -16.1890 C.3   442  TYR442      0.1605
     65  C          8.7520    3.1170  -16.0500 C.2   442  TYR442      0.2264
     66  O          8.8420    4.3410  -16.0110 O.2   442  TYR442     -0.2867
     67  CB        11.2210    3.1880  -16.4060 C.3   442  TYR442      0.0534
     68  CG        12.5320    2.4860  -16.6370 C.ar  442  TYR442     -0.0201
     69  CD1       13.1660    1.7820  -15.6080 C.ar  442  TYR442     -0.0009
     70  CD2       13.1730    2.5640  -17.8740 C.ar  442  TYR442     -0.0009
     71  CE1       14.3840    1.1480  -15.8250 C.ar  442  TYR442      0.0417
     72  CE2       14.3890    1.9440  -18.0940 C.ar  442  TYR442      0.0417
     73  CZ        14.9920    1.2410  -17.0720 C.ar  442  TYR442      0.1957
     74  OH        16.2020    0.6480  -17.3180 O.3   442  TYR442     -0.2866
     75  N         11.3470   -3.5210  -18.1350 N.3   463  GLU463     -0.1245
     76  CA        12.6160   -2.9470  -17.6890 C.3   463  GLU463      0.1567
     77  C         12.3380   -2.0340  -16.5020 C.2   463  GLU463      0.2260
     78  O         11.6870   -1.0100  -16.6700 O.2   463  GLU463     -0.2867
     79  CB        13.3000   -2.1900  -18.8370 C.3   463  GLU463      0.0388
     80  CG        14.8120   -2.1760  -18.7410 C.3   463  GLU463      0.1160
     81  CD        15.4690   -1.4370  -19.8890 C.2   463  GLU463      0.3649
     82  OE1       15.4300   -1.9330  -21.0190 O.co2 463  GLU463     -0.2457
     83  OE2       16.0310   -0.3590  -19.6570 O.co2 463  GLU463     -0.2457
     84  N         14.3450    8.9530  -14.8730 N.3   491  TRP491     -0.1241
     85  CA        13.3010    7.9030  -14.9230 C.3   491  TRP491      0.1605
     86  C         13.4110    6.8260  -13.8300 C.2   491  TRP491      0.2264
     87  O         12.4590    6.0720  -13.6260 O.2   491  TRP491     -0.2867
     88  CB        13.3030    7.1960  -16.2900 C.3   491  TRP491      0.0550
     89  CG        14.6080    6.5330  -16.6270 C.ar  491  TRP491      0.0003
     90  CD1       14.9750    5.2460  -16.3430 C.ar  491  TRP491      0.0946
     91  CD2       15.7230    7.1280  -17.3090 C.ar  491  TRP491      0.0152
     92  NE1       16.2520    5.0030  -16.8110 N.ar  491  TRP491     -0.2442
     93  CE2       16.7320    6.1430  -17.4020 C.ar  491  TRP491      0.0810
     94  CE3       15.9690    8.4040  -17.8530 C.ar  491  TRP491      0.0012
     95  CZ2       17.9690    6.3910  -18.0230 C.ar  491  TRP491      0.0191
     96  CZ3       17.2040    8.6530  -18.4640 C.ar  491  TRP491      0.0001
     97  CH2       18.1850    7.6520  -18.5410 C.ar  491  TRP491      0.0015
     98  N         16.5640   -3.4830  -14.3660 N.3   514  TRP514     -0.1241
     99  CA        17.7810   -2.9200  -14.9740 C.3   514  TRP514      0.1605
    100  C         18.8180   -2.6120  -13.8750 C.2   514  TRP514      0.2264
    101  O         18.6540   -1.6150  -13.1620 O.2   514  TRP514     -0.2867
    102  CB        17.4840   -1.6410  -15.8060 C.3   514  TRP514      0.0550
    103  CG        18.6120   -1.3930  -16.7360 C.ar  514  TRP514      0.0003
    104  CD1       19.6820   -0.5610  -16.5510 C.ar  514  TRP514      0.0946
    105  CD2       18.8560   -2.0990  -17.9490 C.ar  514  TRP514      0.0152
    106  NE1       20.5670   -0.6910  -17.6010 N.ar  514  TRP514     -0.2442
    107  CE2       20.0850   -1.6420  -18.4660 C.ar  514  TRP514      0.0810
    108  CE3       18.1580   -3.0930  -18.6480 C.ar  514  TRP514      0.0012
    109  CZ2       20.6160   -2.1390  -19.6750 C.ar  514  TRP514      0.0191
    110  CZ3       18.6830   -3.5760  -19.8530 C.ar  514  TRP514      0.0001
    111  CH2       19.8880   -3.1010  -20.3530 C.ar  514  TRP514      0.0015
    112  N         27.3640   -4.2780  -15.9910 N.3   519  TYR519     -0.1241
    113  CA        27.8460   -4.5010  -17.3520 C.3   519  TYR519      0.1605
    114  C         28.8140   -3.4050  -17.7780 C.2   519  TYR519      0.2264
    115  O         28.8460   -2.3160  -17.1860 O.2   519  TYR519     -0.2867
    116  CB        26.6670   -4.5700  -18.3250 C.3   519  TYR519      0.0534
    117  CG        25.7650   -3.3460  -18.3240 C.ar  519  TYR519     -0.0201
    118  CD1       25.9390   -2.3200  -19.2600 C.ar  519  TYR519     -0.0009
    119  CD2       24.7270   -3.2180  -17.4030 C.ar  519  TYR519     -0.0009
    120  CE1       25.1040   -1.2090  -19.2710 C.ar  519  TYR519      0.0417
    121  CE2       23.8940   -2.1030  -17.4070 C.ar  519  TYR519      0.0417
    122  CZ        24.0850   -1.1070  -18.3450 C.ar  519  TYR519      0.1957
    123  OH        23.2650   -0.0040  -18.3470 O.3   519  TYR519     -0.2866
    124  N         24.1570   -0.0880  -12.2260 N.3   528  PHE528     -0.1241
    125  CA        22.7450   -0.5110  -12.1760 C.3   528  PHE528      0.1605
    126  C         22.5320   -1.9270  -11.6260 C.2   528  PHE528      0.2264
    127  O         21.4260   -2.2610  -11.1930 O.2   528  PHE528     -0.2867
    128  CB        22.1120   -0.5100  -13.5790 C.3   528  PHE528      0.0534
    129  CG        22.0430    0.8330  -14.2490 C.ar  528  PHE528     -0.0203
    130  CD1       21.2040    1.8240  -13.7710 C.ar  528  PHE528     -0.0042
    131  CD2       22.7450    1.0680  -15.4300 C.ar  528  PHE528     -0.0042
    132  CE1       21.1100    3.0500  -14.4140 C.ar  528  PHE528     -0.0003
    133  CE2       22.6520    2.2890  -16.0840 C.ar  528  PHE528     -0.0003
    134  CZ        21.8360    3.2830  -15.5690 C.ar  528  PHE528     -0.0000
@<TRIPOS>BOND
     1    39    38    2
     2    46    47    1
     3    57    56    2
     4    56    55    1
     5    49    48    2
     6     1     2    1
     7    25    23   ar
     8    25    24   ar
     9     6     7    1
    10     6     5    1
    11    23    21   ar
    12    38    37    1
    13     7     8    1
    14    48    47    1
    15    48    54   am
    16    47    50    1
    17     8     9    2
    18    24    22   ar
    19    54    55    1
    20    55    58    1
    21    21    20   ar
    22    21    19   ar
    23     2     5    1
    24     2     3    1
    25    50    51    1
    26    20    18   ar
    27    40    37    1
    28    40    41    1
    29    37    36    1
    30    15    14    2
    31     9    10    1
    32     9    11    1
    33    22    19   ar
    34    19    17   ar
    35    58    59    1
    36    12     3   am
    37    12    13    1
    38    18    17   ar
    39     3     4    2
    40    51    53   am
    41    51    52    2
    42    41    42   ar
    43    41    43   ar
    44    14    13    1
    45    17    16    1
    46    42    44   ar
    47    13    16    1
    48    59    60    1
    49    43    45   ar
    50    61    60   ar
    51    44    45   ar
    52    35    33   ar
    53    35    34   ar
    54    60    62   ar
    55    33    31   ar
    56    34    32   ar
    57    31    32   ar
    58    31    30    1
    59    28    27    1
    60    28    29    2
    61    30    27    1
    62    82    81   ar
    63    27    26    1
    64   111   110   ar
    65   111   109   ar
    66    81    83   ar
    67    81    80    1
    68   110   108   ar
    69   109   107   ar
    70   120   118   ar
    71   120   122   ar
    72   118   117   ar
    73    79    80    1
    74    79    76    1
    75   108   105   ar
    76    97    96   ar
    77    97    95   ar
    78   107   105   ar
    79   107   106   ar
    80    96    94   ar
    81   123   122    1
    82   122   121   ar
    83   116   117    1
    84   116   113    1
    85   117   119   ar
    86    75    76    1
    87    72    70   ar
    88    72    73   ar
    89    95    93   ar
    90   105   103   ar
    91    70    68   ar
    92    94    91   ar
    93   114   113    1
    94   114   115    2
    95    76    77    1
    96   106   104   ar
    97   121   119   ar
    98    93    91   ar
    99    93    92   ar
   100   113   112    1
   101    74    73    1
   102    91    89   ar
   103    63    64    1
   104    73    71   ar
   105    92    90   ar
   106   103   104   ar
   107   103   102    1
   108    78    77    2
   109    68    67    1
   110    68    69   ar
   111    89    90   ar
   112    89    88    1
   113    67    64    1
   114    88    85    1
   115    64    65    1
   116   133   134   ar
   117   133   131   ar
   118    65    66    2
   119    71    69   ar
   120   102    99    1
   121   134   132   ar
   122   131   129   ar
   123    99    98    1
   124    99   100    1
   125    85    84    1
   126    85    86    1
   127   132   130   ar
   128   129   130   ar
   129   129   128    1
   130   100   101    2
   131    86    87    2
   132   128   125    1
   133   124   125    1
   134   125   126    1
   135   126   127    2
