@<TRIPOS>MOLECULE
tmp/5t99A00.pdb
 140 140 0 0 0
SMALL
GASTEIGER

@<TRIPOS>ATOM
      1  N        -25.4840    0.9380   27.8980 N.3   131  ARG131     -0.1231
      2  CA       -25.3070    1.7230   26.6640 C.3   131  ARG131      0.1694
      3  C        -25.9180    1.0430   25.4330 C.2   131  ARG131      0.2592
      4  O        -25.9860    1.6410   24.3720 O.2   131  ARG131     -0.2718
      5  CB       -23.8250    1.9860   26.3890 C.3   131  ARG131      0.0321
      6  CG       -23.0960    2.6580   27.5360 C.3   131  ARG131      0.0489
      7  CD       -21.6810    3.0540   27.1590 C.3   131  ARG131      0.2205
      8  NE       -20.8340    1.9070   26.7990 N.pl3 131  ARG131     -0.0865
      9  CZ       -20.5570    1.4960   25.5570 C.cat 131  ARG131      0.5346
     10  NH1      -19.7680    0.4440   25.3800 N.pl3 131  ARG131      0.1354
     11  NH2      -21.0460    2.1050   24.4840 N.pl3 131  ARG131      0.1354
     12  N        -26.3390   -0.2120   25.5710 N.am  132  TRP132     -0.1976
     13  CA       -27.0030   -0.9550   24.4940 C.3   132  TRP132      0.1640
     14  C        -28.2300   -1.6240   25.0820 C.2   132  TRP132      0.2290
     15  O        -28.4130   -1.6110   26.2940 O.2   132  TRP132     -0.2864
     16  CB       -26.0560   -2.0110   23.9040 C.3   132  TRP132      0.0576
     17  CG       -25.5620   -3.0080   24.9150 C.ar  132  TRP132      0.0006
     18  CD1      -26.1180   -4.2120   25.2190 C.ar  132  TRP132      0.0946
     19  CD2      -24.4310   -2.8610   25.7720 C.ar  132  TRP132      0.0152
     20  NE1      -25.3950   -4.8370   26.2050 N.ar  132  TRP132     -0.2442
     21  CE2      -24.3500   -4.0290   26.5620 C.ar  132  TRP132      0.0810
     22  CE3      -23.4610   -1.8690   25.9310 C.ar  132  TRP132      0.0012
     23  CZ2      -23.3400   -4.2300   27.5040 C.ar  132  TRP132      0.0191
     24  CZ3      -22.4510   -2.0680   26.8720 C.ar  132  TRP132      0.0001
     25  CH2      -22.4030   -3.2450   27.6450 C.ar  132  TRP132      0.0015
     26  N        -23.4900   -8.1100   20.0290 N.3   285  HIS285     -0.1241
     27  CA       -24.2950   -7.9700   21.2370 C.3   285  HIS285      0.1621
     28  C        -25.2290   -9.1500   21.3580 C.2   285  HIS285      0.2264
     29  O        -25.4860   -9.8460   20.3880 O.2   285  HIS285     -0.2867
     30  CB       -25.0480   -6.6370   21.2980 C.3   285  HIS285      0.0745
     31  CG       -24.2330   -5.5220   21.8790 C.ar  285  HIS285      0.0817
     32  ND1      -23.7090   -5.5730   23.1550 N.ar  285  HIS285     -0.2268
     33  CD2      -23.8390   -4.3330   21.3560 C.ar  285  HIS285      0.1154
     34  CE1      -23.0210   -4.4690   23.3890 C.ar  285  HIS285      0.1986
     35  NE2      -23.0890   -3.6980   22.3160 N.ar  285  HIS285     -0.2212
     36  N        -20.2650   -6.5050   25.5250 N.3   319  HIS319     -0.1241
     37  CA       -19.1330   -6.2690   26.4440 C.3   319  HIS319      0.1621
     38  C        -19.5200   -6.8840   27.8010 C.2   319  HIS319      0.2264
     39  O        -19.7250   -6.1870   28.8100 O.2   319  HIS319     -0.2867
     40  CB       -18.8380   -4.7750   26.6090 C.3   319  HIS319      0.0745
     41  CG       -18.6500   -4.0500   25.3220 C.ar  319  HIS319      0.0817
     42  ND1      -17.5120   -4.1730   24.5550 N.ar  319  HIS319     -0.2268
     43  CD2      -19.4510   -3.1780   24.6670 C.ar  319  HIS319      0.1154
     44  CE1      -17.6220   -3.4130   23.4780 C.ar  319  HIS319      0.1986
     45  NE2      -18.7920   -2.8020   23.5210 N.ar  319  HIS319     -0.2212
     46  N        -13.7870   -3.1320   28.4950 N.3   386  ASN386     -0.1225
     47  CA       -13.8560   -2.4360   27.2210 C.3   386  ASN386      0.1785
     48  C        -13.9070   -0.9350   27.4190 C.2   386  ASN386      0.2597
     49  O        -14.8140   -0.4290   28.0890 O.2   386  ASN386     -0.2718
     50  CB       -15.0970   -2.8780   26.4610 C.3   386  ASN386      0.1169
     51  CG       -15.3900   -1.9840   25.2870 C.2   386  ASN386      0.2627
     52  OD1      -14.6890   -2.0290   24.2750 O.2   386  ASN386     -0.2716
     53  ND2      -16.4130   -1.1400   25.4220 N.am  386  ASN386     -0.0877
     54  N        -12.9460   -0.2330   26.8220 N.am  387  GLU387     -0.1979
     55  CA       -12.9180    1.2470   26.7860 C.3   387  GLU387      0.1602
     56  C        -13.0880    1.9100   28.1520 C.2   387  GLU387      0.2287
     57  O        -13.7200    2.9570   28.2660 O.2   387  GLU387     -0.2864
     58  CB       -13.9820    1.7780   25.8070 C.3   387  GLU387      0.0415
     59  CG       -13.8350    1.2400   24.3970 C.3   387  GLU387      0.1163
     60  CD       -14.6940    1.9640   23.3800 C.2   387  GLU387      0.3649
     61  OE1      -15.7950    2.4460   23.7280 O.co2 387  GLU387     -0.2457
     62  OE2      -14.2690    2.0340   22.2180 O.co2 387  GLU387     -0.2457
     63  N        -10.1030    1.1260   17.2730 N.3   443  TYR443     -0.1241
     64  CA       -10.1380    2.2010   16.2530 C.3   443  TYR443      0.1605
     65  C         -8.8450    3.0070   16.1180 C.2   443  TYR443      0.2264
     66  O         -8.8820    4.2410   16.0710 O.2   443  TYR443     -0.2867
     67  CB       -11.3240    3.1290   16.4920 C.3   443  TYR443      0.0534
     68  CG       -12.6200    2.3810   16.6810 C.ar  443  TYR443     -0.0201
     69  CD1      -13.2780    1.7910   15.5920 C.ar  443  TYR443     -0.0009
     70  CD2      -13.1880    2.2470   17.9470 C.ar  443  TYR443     -0.0009
     71  CE1      -14.4710    1.0990   15.7640 C.ar  443  TYR443      0.0417
     72  CE2      -14.3720    1.5580   18.1220 C.ar  443  TYR443      0.0417
     73  CZ       -15.0060    0.9930   17.0230 C.ar  443  TYR443      0.1957
     74  OH       -16.1650    0.3200   17.2060 O.3   443  TYR443     -0.2866
     75  N        -11.4790   -3.6670   18.4070 N.3   464  GLU464     -0.1245
     76  CA       -12.7150   -3.1070   17.8470 C.3   464  GLU464      0.1567
     77  C        -12.3440   -2.2680   16.6220 C.2   464  GLU464      0.2260
     78  O        -11.4250   -1.4400   16.6900 O.2   464  GLU464     -0.2867
     79  CB       -13.4570   -2.2860   18.9010 C.3   464  GLU464      0.0388
     80  CG       -14.9540   -2.4870   18.9360 C.3   464  GLU464      0.1160
     81  CD       -15.6200   -1.5680   19.9450 C.2   464  GLU464      0.3649
     82  OE1      -15.5520   -1.8760   21.1480 O.co2 464  GLU464     -0.2457
     83  OE2      -16.2130   -0.5340   19.5350 O.co2 464  GLU464     -0.2457
     84  N        -16.4400    0.5200   12.6930 N.3   467  SER467     -0.1217
     85  CA       -17.6490    1.2940   13.0610 C.3   467  SER467      0.1889
     86  C        -18.2790    2.0810   11.8870 C.2   467  SER467      0.2288
     87  O        -19.0080    3.0520   12.0950 O.2   467  SER467     -0.2866
     88  CB       -17.4040    2.1950   14.2910 C.3   467  SER467      0.2089
     89  OG       -17.8450    1.5520   15.4740 O.3   467  SER467     -0.2183
     90  N        -14.7050    8.5610   15.0810 N.3   492  TRP492     -0.1241
     91  CA       -13.6010    7.5850   15.1570 C.3   492  TRP492      0.1605
     92  C        -13.7050    6.4810   14.0980 C.2   492  TRP492      0.2264
     93  O        -12.8170    5.6310   13.9990 O.2   492  TRP492     -0.2867
     94  CB       -13.5670    6.9330   16.5480 C.3   492  TRP492      0.0550
     95  CG       -14.8820    6.3230   16.9480 C.ar  492  TRP492      0.0003
     96  CD1      -15.3190    5.0440   16.6930 C.ar  492  TRP492      0.0946
     97  CD2      -15.9530    6.9810   17.6450 C.ar  492  TRP492      0.0152
     98  NE1      -16.5880    4.8670   17.2020 N.ar  492  TRP492     -0.2442
     99  CE2      -17.0010    6.0350   17.7910 C.ar  492  TRP492      0.0810
    100  CE3      -16.1240    8.2800   18.1690 C.ar  492  TRP492      0.0012
    101  CZ2      -18.2060    6.3420   18.4470 C.ar  492  TRP492      0.0191
    102  CZ3      -17.3300    8.5960   18.8070 C.ar  492  TRP492      0.0001
    103  CH2      -18.3580    7.6250   18.9390 C.ar  492  TRP492      0.0015
    104  N        -16.8910   -3.7150   14.5320 N.3   515  TRP515     -0.1241
    105  CA       -18.0960   -3.2190   15.2060 C.3   515  TRP515      0.1605
    106  C        -19.1960   -2.9120   14.1620 C.2   515  TRP515      0.2264
    107  O        -19.1930   -1.8210   13.6050 O.2   515  TRP515     -0.2867
    108  CB       -17.7800   -1.9490   16.0270 C.3   515  TRP515      0.0550
    109  CG       -18.9240   -1.6430   16.9250 C.ar  515  TRP515      0.0003
    110  CD1      -19.9630   -0.7880   16.6900 C.ar  515  TRP515      0.0946
    111  CD2      -19.2060   -2.2930   18.1620 C.ar  515  TRP515      0.0152
    112  NE1      -20.8700   -0.8520   17.7270 N.ar  515  TRP515     -0.2442
    113  CE2      -20.4270   -1.7740   18.6410 C.ar  515  TRP515      0.0810
    114  CE3      -18.5410   -3.2730   18.9130 C.ar  515  TRP515      0.0012
    115  CZ2      -20.9910   -2.1970   19.8500 C.ar  515  TRP515      0.0191
    116  CZ3      -19.0890   -3.6870   20.0970 C.ar  515  TRP515      0.0001
    117  CH2      -20.3040   -3.1520   20.5660 C.ar  515  TRP515      0.0015
    118  N        -27.6800   -4.5400   16.1960 N.3   520  TYR520     -0.1241
    119  CA       -28.1880   -4.8320   17.5400 C.3   520  TYR520      0.1605
    120  C        -29.1190   -3.7090   17.9830 C.2   520  TYR520      0.2264
    121  O        -29.0790   -2.6170   17.4430 O.2   520  TYR520     -0.2867
    122  CB       -27.0160   -4.9640   18.5260 C.3   520  TYR520      0.0534
    123  CG       -26.1150   -3.7500   18.5510 C.ar  520  TYR520     -0.0201
    124  CD1      -26.3500   -2.6950   19.4350 C.ar  520  TYR520     -0.0009
    125  CD2      -25.0390   -3.6410   17.6840 C.ar  520  TYR520     -0.0009
    126  CE1      -25.5260   -1.5800   19.4630 C.ar  520  TYR520      0.0417
    127  CE2      -24.2170   -2.5230   17.7010 C.ar  520  TYR520      0.0417
    128  CZ       -24.4600   -1.5010   18.5940 C.ar  520  TYR520      0.1957
    129  OH       -23.6430   -0.3950   18.6030 O.3   520  TYR520     -0.2866
    130  N        -24.2910   -0.2580   12.4820 N.3   529  PHE529     -0.1241
    131  CA       -22.8950   -0.7280   12.4460 C.3   529  PHE529      0.1605
    132  C        -22.7390   -2.1340   11.8490 C.2   529  PHE529      0.2264
    133  O        -21.6630   -2.5030   11.3890 O.2   529  PHE529     -0.2867
    134  CB       -22.3070   -0.7490   13.8670 C.3   529  PHE529      0.0534
    135  CG       -22.1580    0.6080   14.5020 C.ar  529  PHE529     -0.0203
    136  CD1      -21.2900    1.5460   13.9720 C.ar  529  PHE529     -0.0042
    137  CD2      -22.8500    0.9230   15.6690 C.ar  529  PHE529     -0.0042
    138  CE1      -21.1350    2.7890   14.5690 C.ar  529  PHE529     -0.0003
    139  CE2      -22.7000    2.1650   16.2750 C.ar  529  PHE529     -0.0003
    140  CZ       -21.8430    3.1040   15.7180 C.ar  529  PHE529     -0.0000
@<TRIPOS>BOND
     1   133   132    2
     2   132   131    1
     3    86    87    2
     4    86    85    1
     5   131   130    1
     6   131   134    1
     7    84    85    1
     8    85    88    1
     9   107   106    2
    10   134   135    1
    11   136   135   ar
    12   136   138   ar
    13    93    92    2
    14    92    91    1
    15   106   105    1
    16    88    89    1
    17   135   137   ar
    18   104   105    1
    19   138   140   ar
    20    90    91    1
    21    91    94    1
    22   105   108    1
    23    69    71   ar
    24    69    68   ar
    25   137   139   ar
    26   140   139   ar
    27    71    73   ar
    28   108   109    1
    29    66    65    2
    30    65    64    1
    31   118   119    1
    32    64    67    1
    33    64    63    1
    34    67    68    1
    35    94    95    1
    36    77    78    2
    37    77    76    1
    38    68    70   ar
    39   110   109   ar
    40   110   112   ar
    41    96    95   ar
    42    96    98   ar
    43   109   111   ar
    44    95    97   ar
    45    73    74    1
    46    73    72   ar
    47    98    99   ar
    48   121   120    2
    49   119   120    1
    50   119   122    1
    51    97    99   ar
    52    97   100   ar
    53   125   127   ar
    54   125   123   ar
    55   127   128   ar
    56   112   113   ar
    57    99   101   ar
    58    76    75    1
    59    76    79    1
    60    70    72   ar
    61   111   113   ar
    62   111   114   ar
    63   100   102   ar
    64   101   103   ar
    65   122   123    1
    66   123   124   ar
    67   128   129    1
    68   128   126   ar
    69   113   115   ar
    70   102   103   ar
    71    79    80    1
    72   114   116   ar
    73    80    81    1
    74   124   126   ar
    75    83    81   ar
    76   115   117   ar
    77    81    82   ar
    78    26    27    1
    79   116   117   ar
    80    29    28    2
    81    27    30    1
    82    27    28    1
    83    30    31    1
    84    33    31   ar
    85    33    35   ar
    86    31    32   ar
    87    62    60   ar
    88    35    34   ar
    89    32    34   ar
    90    60    61   ar
    91    60    59    1
    92    44    45   ar
    93    44    42   ar
    94    45    43   ar
    95    16    13    1
    96    16    17    1
    97    52    51    2
    98     4     3    2
    99    59    58    1
   100    11     9    1
   101    13    14    1
   102    13    12    1
   103    42    41   ar
   104    43    41   ar
   105    17    18   ar
   106    17    19   ar
   107    14    15    2
   108    18    20   ar
   109    51    53   am
   110    51    50    1
   111    41    40    1
   112    10     9    1
   113     3    12   am
   114     3     2    1
   115    36    37    1
   116     9     8    2
   117    19    22   ar
   118    19    21   ar
   119    58    55    1
   120    22    24   ar
   121    20    21   ar
   122     5     2    1
   123     5     6    1
   124    37    40    1
   125    37    38    1
   126    50    47    1
   127    21    23   ar
   128     2     1    1
   129    55    54    1
   130    55    56    1
   131     8     7    1
   132    54    48   am
   133    24    25   ar
   134     7     6    1
   135    47    48    1
   136    47    46    1
   137    48    49    2
   138    23    25   ar
   139    38    39    2
   140    56    57    2
