@<TRIPOS>MOLECULE
tmp/5t9cA00.pdb
 124 118 0 0 0
SMALL
GASTEIGER

@<TRIPOS>ATOM
      1  N        -40.8120   -1.6700   94.5950 N.3    13  HIS13      -0.1226
      2  CA       -41.5930   -0.5850   95.1870 C.3    13  HIS13       0.1752
      3  C        -42.8230   -1.0910   95.9340 C.2    13  HIS13       0.2595
      4  O        -43.8050   -1.4960   95.3140 O.2    13  HIS13      -0.2718
      5  CB       -42.0010    0.3570   94.0550 C.3    13  HIS13       0.0759
      6  CG       -42.7310    1.5880   94.5010 C.ar   13  HIS13       0.0818
      7  ND1      -44.0090    1.8820   94.0710 N.ar   13  HIS13      -0.2268
      8  CD2      -42.3630    2.6060   95.3160 C.ar   13  HIS13       0.1154
      9  CE1      -44.3910    3.0370   94.5990 C.ar   13  HIS13       0.1986
     10  NE2      -43.4140    3.4920   95.3620 N.ar   13  HIS13      -0.2212
     11  N        -42.7710   -1.0510   97.2680 N.am   14  ARG14      -0.1980
     12  CA       -43.8370   -1.5860   98.1180 C.3    14  ARG14       0.1597
     13  C        -44.0400   -3.0850   97.8470 C.2    14  ARG14       0.2287
     14  O        -45.1430   -3.6060   97.9800 O.2    14  ARG14      -0.2864
     15  CB       -45.1420   -0.7960   97.9170 C.3    14  ARG14       0.0334
     16  CG       -44.9180    0.7290   97.7930 C.3    14  ARG14       0.0492
     17  CD       -46.2140    1.5350   97.7720 C.3    14  ARG14       0.2205
     18  NE       -45.9200    2.9320   97.4360 N.pl3  14  ARG14      -0.0865
     19  CZ       -46.8300    3.8290   97.0590 C.cat  14  ARG14       0.5346
     20  NH1      -48.1140    3.5030   96.9940 N.pl3  14  ARG14       0.1354
     21  NH2      -46.4590    5.0570   96.7260 N.pl3  14  ARG14       0.1354
     22  N        -38.9830   -2.8640   99.2570 N.3    40  GLU40      -0.1245
     23  CA       -39.0690   -1.4670   99.6860 C.3    40  GLU40       0.1567
     24  C        -40.2270   -1.2440  100.6500 C.2    40  GLU40       0.2260
     25  O        -41.3680   -1.6140  100.3700 O.2    40  GLU40      -0.2867
     26  CB       -39.2020   -0.5650   98.4520 C.3    40  GLU40       0.0388
     27  CG       -38.9300    0.9120   98.7460 C.3    40  GLU40       0.1160
     28  CD       -40.1830    1.7710   98.7590 C.2    40  GLU40       0.3649
     29  OE1      -41.2780    1.3040   98.3760 O.co2  40  GLU40      -0.2457
     30  OE2      -40.0740    2.9500   99.1560 O.co2  40  GLU40      -0.2457
     31  N        -42.2740    1.4990  103.4060 N.3    42  ASP42      -0.1239
     32  CA       -42.5550    2.8500  103.9070 C.3    42  ASP42       0.1674
     33  C        -43.0050    2.7140  105.3570 C.2    42  ASP42       0.2266
     34  O        -43.8700    1.8790  105.6400 O.2    42  ASP42      -0.2867
     35  CB       -43.6580    3.5440  103.1090 C.3    42  ASP42       0.1410
     36  CG       -43.3150    3.7460  101.6460 C.2    42  ASP42       0.3668
     37  OD1      -42.2130    4.2560  101.3160 O.co2  42  ASP42      -0.2456
     38  OD2      -44.1990    3.4350  100.8300 O.co2  42  ASP42      -0.2456
     39  N        -47.7250    3.1440  103.2390 N.3    55  HIS55      -0.1241
     40  CA       -47.2620    4.3290  102.5250 C.3    55  HIS55       0.1621
     41  C        -47.8650    5.6240  103.0590 C.2    55  HIS55       0.2264
     42  O        -47.1380    6.5930  103.3110 O.2    55  HIS55      -0.2867
     43  CB       -47.5610    4.2350  101.0340 C.3    55  HIS55       0.0745
     44  CG       -47.2120    5.4890  100.3000 C.ar   55  HIS55       0.0817
     45  ND1      -48.1100    6.5170  100.1200 N.ar   55  HIS55      -0.2268
     46  CD2      -46.0410    5.9110   99.7690 C.ar   55  HIS55       0.1154
     47  CE1      -47.5190    7.5070   99.4720 C.ar   55  HIS55       0.1986
     48  NE2      -46.2610    7.1650   99.2480 N.ar   55  HIS55      -0.2212
     49  N        -38.0340    3.4360  103.9980 N.3   122  GLU122     -0.1245
     50  CA       -38.2800    4.8800  104.0550 C.3   122  GLU122      0.1567
     51  C        -38.9090    5.3410  105.3630 C.2   122  GLU122      0.2260
     52  O        -39.8790    4.7560  105.8370 O.2   122  GLU122     -0.2867
     53  CB       -39.1780    5.3110  102.9030 C.3   122  GLU122      0.0388
     54  CG       -39.3260    6.8380  102.8260 C.3   122  GLU122      0.1160
     55  CD       -40.1160    7.2950  101.6190 C.2   122  GLU122      0.3649
     56  OE1      -40.2850    6.4980  100.6600 O.co2 122  GLU122     -0.2457
     57  OE2      -40.5520    8.4680  101.6440 O.co2 122  GLU122     -0.2457
     58  N        -41.2460    7.8500  106.7250 N.3   124  LYS124     -0.1245
     59  CA       -42.2940    8.7810  106.3000 C.3   124  LYS124      0.1561
     60  C        -42.6180    9.7620  107.4030 C.2   124  LYS124      0.2260
     61  O        -42.7180    9.3750  108.5580 O.2   124  LYS124     -0.2867
     62  CB       -43.5710    8.0370  105.9090 C.3   124  LYS124      0.0271
     63  CG       -43.4670    7.2360  104.6250 C.3   124  LYS124      0.0035
     64  CD       -43.3400    8.1650  103.4010 C.3   124  LYS124      0.0206
     65  CE       -43.4750    7.3260  102.1280 C.3   124  LYS124      0.1093
     66  NZ       -43.2010    8.1480  100.9050 N.3   124  LYS124     -0.1314
     67  N        -33.9190    5.4370  103.4410 N.3   158  GLN158     -0.1245
     68  CA       -34.2310    6.5040  102.4880 C.3   158  GLN158      0.1566
     69  C        -35.2730    7.4220  103.0900 C.2   158  GLN158      0.2260
     70  O        -36.0160    7.0190  103.9790 O.2   158  GLN158     -0.2867
     71  CB       -34.7490    5.9040  101.1810 C.3   158  GLN158      0.0367
     72  CG       -35.8070    4.8400  101.4490 C.3   158  GLN158      0.0905
     73  CD       -36.7100    4.5470  100.2700 C.2   158  GLN158      0.2608
     74  OE1      -36.6540    5.2270   99.2320 O.2   158  GLN158     -0.2717
     75  NE2      -37.5500    3.5150  100.4140 N.am  158  GLN158     -0.0878
     76  N        -37.4880   11.4900  102.1490 N.3   160  PHE160     -0.1241
     77  CA       -37.5290   12.8610  101.6460 C.3   160  PHE160      0.1605
     78  C        -36.9540   13.8360  102.6690 C.2   160  PHE160      0.2264
     79  O        -36.4870   14.9260  102.3040 O.2   160  PHE160     -0.2867
     80  CB       -38.9560   13.2490  101.2750 C.3   160  PHE160      0.0534
     81  CG       -39.4290   12.6230  100.0000 C.ar  160  PHE160     -0.0203
     82  CD1      -39.1010   13.1760   98.7750 C.ar  160  PHE160     -0.0042
     83  CD2      -40.1900   11.4590  100.0200 C.ar  160  PHE160     -0.0042
     84  CE1      -39.5290   12.5840   97.5930 C.ar  160  PHE160     -0.0003
     85  CE2      -40.6230   10.8660   98.8510 C.ar  160  PHE160     -0.0003
     86  CZ       -40.2870   11.4230   97.6300 C.ar  160  PHE160     -0.0000
     87  N        -34.1910   11.0880   98.9170 N.3   180  LEU180     -0.1245
     88  CA       -35.2700   11.1490   97.9500 C.3   180  LEU180      0.1561
     89  C        -35.5590   12.5910   97.5480 C.2   180  LEU180      0.2260
     90  O        -35.4720   13.5290   98.3570 O.2   180  LEU180     -0.2867
     91  CB       -36.5350   10.4870   98.5020 C.3   180  LEU180      0.0270
     92  CG       -36.3750    9.0220   98.9160 C.3   180  LEU180      0.0019
     93  CD1      -37.6890    8.5270   99.4910 C.3   180  LEU180      0.0001
     94  CD2      -35.9600    8.1820   97.7120 C.3   180  LEU180      0.0001
     95  N        -37.5410    6.8180   90.9570 N.3   229  TYR229     -0.1227
     96  CA       -38.8450    6.2110   91.2550 C.3   229  TYR229      0.1736
     97  C        -39.9000    6.9280   90.4240 C.2   229  TYR229      0.2596
     98  O        -39.6610    8.0560   89.9800 O.2   229  TYR229     -0.2718
     99  CB       -39.1950    6.3340   92.7590 C.3   229  TYR229      0.0548
    100  CG       -39.4460    7.7700   93.1760 C.ar  229  TYR229     -0.0200
    101  CD1      -40.7020    8.3520   93.0310 C.ar  229  TYR229     -0.0009
    102  CD2      -38.4210    8.5460   93.6970 C.ar  229  TYR229     -0.0009
    103  CE1      -40.9310    9.6760   93.3750 C.ar  229  TYR229      0.0417
    104  CE2      -38.6410    9.8710   94.0570 C.ar  229  TYR229      0.0417
    105  CZ       -39.8960   10.4350   93.8860 C.ar  229  TYR229      0.1957
    106  OH       -40.1280   11.7610   94.2380 O.3   229  TYR229     -0.2866
    107  N        -41.0550    6.3210   90.1700 N.am  230  THR230     -0.1953
    108  CA       -41.2900    4.8740   90.2110 C.3   230  THR230      0.1897
    109  C        -41.4700    4.4650   88.7480 C.2   230  THR230      0.2313
    110  O        -42.3530    4.9800   88.0600 O.2   230  THR230     -0.2863
    111  CB       -42.5270    4.5090   91.0290 C.3   230  THR230      0.1794
    112  OG1      -42.3030    4.8580   92.4040 O.3   230  THR230     -0.2208
    113  CG2      -42.8250    3.0030   90.9430 C.3   230  THR230      0.0378
    114  N        -36.7300    2.1000   91.4620 N.3   249  PHE249     -0.1241
    115  CA       -37.9050    1.6310   92.1930 C.3   249  PHE249      0.1605
    116  C        -38.9640    1.2840   91.1580 C.2   249  PHE249      0.2264
    117  O        -39.2910    2.1220   90.2980 O.2   249  PHE249     -0.2867
    118  CB       -38.4630    2.6910   93.1550 C.3   249  PHE249      0.0534
    119  CG       -37.5010    3.1560   94.2240 C.ar  249  PHE249     -0.0203
    120  CD1      -36.5640    4.1410   93.9530 C.ar  249  PHE249     -0.0042
    121  CD2      -37.5730    2.6470   95.5200 C.ar  249  PHE249     -0.0042
    122  CE1      -35.7000    4.5930   94.9330 C.ar  249  PHE249     -0.0003
    123  CE2      -36.7080    3.1040   96.5130 C.ar  249  PHE249     -0.0003
    124  CZ       -35.7670    4.0800   96.2110 C.ar  249  PHE249     -0.0000
@<TRIPOS>BOND
     1   110   109    2
     2   109   108    1
     3    98    97    2
     4   107   108    1
     5   107    97   am
     6   108   111    1
     7   117   116    2
     8    97    96    1
     9   113   111    1
    10    95    96    1
    11   111   112    1
    12   116   115    1
    13    96    99    1
    14   114   115    1
    15   115   118    1
    16    99   100    1
    17   101   100   ar
    18   101   103   ar
    19   118   119    1
    20   100   102   ar
    21   103   105   ar
    22   102   104   ar
    23   105   104   ar
    24   105   106    1
    25   120   119   ar
    26   120   122   ar
    27     5     6    1
    28     5     2    1
    29     7     6   ar
    30     7     9   ar
    31   119   121   ar
    32     6     8   ar
    33     1     2    1
    34     9    10   ar
    35   122   124   ar
    36     2     3    1
    37     4     3    2
    38     8    10   ar
    39   121   123   ar
    40     3    11   am
    41   124   123   ar
    42    21    19    1
    43    20    19    1
    44    19    18    2
    45    11    12    1
    46    18    17    1
    47    89    88    1
    48    89    90    2
    49    84    86   ar
    50    84    82   ar
    51    86    85   ar
    52    94    92    1
    53    17    16    1
    54    16    15    1
    55    13    14    2
    56    13    12    1
    57    15    12    1
    58    88    91    1
    59    88    87    1
    60    29    28   ar
    61    26    27    1
    62    26    23    1
    63    91    92    1
    64    27    28    1
    65    28    30   ar
    66    82    81   ar
    67    85    83   ar
    68    92    93    1
    69    74    73    2
    70    48    47   ar
    71    48    46   ar
    72    22    23    1
    73    47    45   ar
    74    23    24    1
    75    46    44   ar
    76    81    83   ar
    77    81    80    1
    78    45    44   ar
    79    73    75   am
    80    73    72    1
    81    44    43    1
    82    25    24    2
    83    56    55   ar
    84    38    36   ar
    85    66    65    1
    86    43    40    1
    87    71    72    1
    88    71    68    1
    89    80    77    1
    90    37    36   ar
    91    55    57   ar
    92    55    54    1
    93    77    76    1
    94    77    78    1
    95    36    35    1
    96    65    64    1
    97    79    78    2
    98    68    69    1
    99    68    67    1
   100    40    41    1
   101    40    39    1
   102    54    53    1
   103    53    50    1
   104    41    42    2
   105    69    70    2
   106    35    32    1
   107    64    63    1
   108    31    32    1
   109    32    33    1
   110    49    50    1
   111    50    51    1
   112    63    62    1
   113    33    34    2
   114    51    52    2
   115    62    59    1
   116    59    58    1
   117    59    60    1
   118    60    61    2
