@<TRIPOS>MOLECULE
tmp/5t9gD00.pdb
 134 130 0 0 0
SMALL
GASTEIGER

@<TRIPOS>ATOM
      1  N       -106.4270 -107.1960   54.6110 N.3   135  ARG135     -0.1245
      2  CA      -105.3010 -107.5100   53.7230 C.3   135  ARG135      0.1563
      3  C       -105.4860 -106.9650   52.2930 C.2   135  ARG135      0.2260
      4  O       -104.4970 -106.8380   51.5610 O.2   135  ARG135     -0.2867
      5  CB      -105.0140 -109.0260   53.6860 C.3   135  ARG135      0.0307
      6  CG      -104.5180 -109.5900   55.0120 C.3   135  ARG135      0.0489
      7  CD      -104.1570 -111.0760   54.9730 C.3   135  ARG135      0.2205
      8  NE      -105.1930 -111.9650   54.4150 N.pl3 135  ARG135     -0.0865
      9  CZ      -105.2280 -112.4270   53.1630 C.cat 135  ARG135      0.5346
     10  NH1     -104.2980 -112.0840   52.2750 N.pl3 135  ARG135      0.1354
     11  NH2     -106.2180 -113.2340   52.7780 N.pl3 135  ARG135      0.1354
     12  N       -112.6240 -110.5160   44.6490 N.3   290  HIS290     -0.1241
     13  CA      -112.8260 -109.5910   45.7740 C.3   290  HIS290      0.1621
     14  C       -114.0530 -108.7090   45.4460 C.2   290  HIS290      0.2264
     15  O       -114.6860 -108.8710   44.3750 O.2   290  HIS290     -0.2867
     16  CB      -111.5530 -108.7780   46.0600 C.3   290  HIS290      0.0745
     17  CG      -110.6050 -109.4440   47.0160 C.ar  290  HIS290      0.0817
     18  ND1     -110.9410 -109.7260   48.3200 N.ar  290  HIS290     -0.2268
     19  CD2     -109.3190 -109.8390   46.8710 C.ar  290  HIS290      0.1154
     20  CE1     -109.9130 -110.2910   48.9300 C.ar  290  HIS290      0.1986
     21  NE2     -108.9140 -110.3630   48.0740 N.ar  290  HIS290     -0.2212
     22  N       -112.7680 -112.8360   50.6770 N.3   324  HIS324     -0.1241
     23  CA      -112.8500 -113.9050   51.6680 C.3   324  HIS324      0.1621
     24  C       -113.9140 -113.4880   52.6600 C.2   324  HIS324      0.2264
     25  O       -113.6420 -113.3020   53.8540 O.2   324  HIS324     -0.2867
     26  CB      -111.5150 -114.0630   52.3960 C.3   324  HIS324      0.0745
     27  CG      -110.3810 -114.4150   51.4960 C.ar  324  HIS324      0.0817
     28  ND1     -110.3310 -115.6000   50.7970 N.ar  324  HIS324     -0.2268
     29  CD2     -109.2630 -113.7340   51.1700 C.ar  324  HIS324      0.1154
     30  CE1     -109.2250 -115.6350   50.0800 C.ar  324  HIS324      0.1986
     31  NE2     -108.5620 -114.5110   50.2860 N.ar  324  HIS324     -0.2212
     32  N        -98.6410 -111.2410   54.8340 N.3   359  ASN359     -0.1240
     33  CA       -99.7170 -112.2350   55.0440 C.3   359  ASN359      0.1653
     34  C        -99.4300 -113.0160   56.3480 C.2   359  ASN359      0.2266
     35  O        -98.6630 -112.5420   57.1870 O.2   359  ASN359     -0.2867
     36  CB       -99.8590 -113.1470   53.8150 C.3   359  ASN359      0.1155
     37  CG      -101.2790 -113.6410   53.6190 C.2   359  ASN359      0.2627
     38  OD1     -101.9650 -113.9800   54.5830 O.2   359  ASN359     -0.2716
     39  ND2     -101.7240 -113.6940   52.3760 N.am  359  ASN359     -0.0877
     40  N       -110.3890 -119.1090   55.4080 N.3   404  ASN404     -0.1225
     41  CA      -109.3530 -119.0340   54.3760 C.3   404  ASN404      0.1785
     42  C       -107.9630 -119.0880   55.0060 C.2   404  ASN404      0.2597
     43  O       -107.7190 -118.4190   56.0150 O.2   404  ASN404     -0.2718
     44  CB      -109.5110 -117.7340   53.5970 C.3   404  ASN404      0.1169
     45  CG      -108.3700 -117.4920   52.6470 C.2   404  ASN404      0.2627
     46  OD1     -108.1400 -118.2920   51.7510 O.2   404  ASN404     -0.2716
     47  ND2     -107.6430 -116.4030   52.8370 N.am  404  ASN404     -0.0877
     48  N       -107.0660 -119.8860   54.4120 N.am  405  GLU405     -0.1979
     49  CA      -105.6660 -120.0460   54.8590 C.3   405  GLU405      0.1602
     50  C       -105.4970 -119.8200   56.3640 C.2   405  GLU405      0.2287
     51  O       -104.6550 -119.0380   56.7870 O.2   405  GLU405     -0.2864
     52  CB      -104.7250 -119.1250   54.0480 C.3   405  GLU405      0.0415
     53  CG      -104.8250 -119.3110   52.5300 C.3   405  GLU405      0.1163
     54  CD      -103.7180 -118.6200   51.7330 C.2   405  GLU405      0.3649
     55  OE1     -103.1840 -117.5700   52.1650 O.co2 405  GLU405     -0.2457
     56  OE2     -103.3900 -119.1220   50.6400 O.co2 405  GLU405     -0.2457
     57  N       -103.1950 -123.7960   46.7570 N.3   494  TYR494     -0.1241
     58  CA      -101.8740 -123.9530   46.1210 C.3   494  TYR494      0.1605
     59  C       -101.1840 -125.2890   46.4530 C.2   494  TYR494      0.2264
     60  O        -99.9570 -125.3510   46.5580 O.2   494  TYR494     -0.2867
     61  CB      -100.9630 -122.7460   46.4680 C.3   494  TYR494      0.0534
     62  CG      -101.6450 -121.4340   46.1980 C.ar  494  TYR494     -0.0201
     63  CD1     -101.8200 -120.9930   44.8860 C.ar  494  TYR494     -0.0009
     64  CD2     -102.1760 -120.6560   47.2300 C.ar  494  TYR494     -0.0009
     65  CE1     -102.4830 -119.8100   44.6020 C.ar  494  TYR494      0.0417
     66  CE2     -102.8400 -119.4690   46.9520 C.ar  494  TYR494      0.0417
     67  CZ      -102.9930 -119.0620   45.6320 C.ar  494  TYR494      0.1957
     68  OH      -103.6410 -117.9060   45.2980 O.3   494  TYR494     -0.2866
     69  N       -108.0350 -122.4890   45.9130 N.3   515  GLU515     -0.1245
     70  CA      -107.2820 -121.3040   45.4680 C.3   515  GLU515      0.1567
     71  C       -106.0530 -121.7230   44.6640 C.2   515  GLU515      0.2260
     72  O       -105.2150 -122.5070   45.1410 O.2   515  GLU515     -0.2867
     73  CB      -106.8690 -120.4000   46.6380 C.3   515  GLU515      0.0388
     74  CG      -106.7950 -118.9130   46.2510 C.3   515  GLU515      0.1160
     75  CD      -106.3790 -118.0050   47.4000 C.2   515  GLU515      0.3649
     76  OE1     -107.1390 -117.9170   48.3800 O.co2 515  GLU515     -0.2457
     77  OE2     -105.3020 -117.3750   47.3300 O.co2 515  GLU515     -0.2457
     78  N       -106.6900 -117.3710   41.3830 N.3   538  TRP538     -0.1241
     79  CA      -106.4690 -116.0880   42.0570 C.3   538  TRP538      0.1605
     80  C       -105.8660 -115.0610   41.0710 C.2   538  TRP538      0.2264
     81  O       -104.6650 -115.1410   40.8020 O.2   538  TRP538     -0.2867
     82  CB      -105.5130 -116.2870   43.2480 C.3   538  TRP538      0.0550
     83  CG      -105.4580 -115.0810   44.1020 C.ar  538  TRP538      0.0003
     84  CD1     -104.5140 -114.0960   44.0880 C.ar  538  TRP538      0.0946
     85  CD2     -106.4230 -114.6960   45.0770 C.ar  538  TRP538      0.0152
     86  NE1     -104.8170 -113.1310   45.0220 N.ar  538  TRP538     -0.2442
     87  CE2     -105.9910 -113.4710   45.6370 C.ar  538  TRP538      0.0810
     88  CE3     -107.6130 -115.2700   45.5400 C.ar  538  TRP538      0.0012
     89  CZ2     -106.7130 -112.8070   46.6300 C.ar  538  TRP538      0.0191
     90  CZ3     -108.3220 -114.6190   46.5270 C.ar  538  TRP538      0.0001
     91  CH2     -107.8760 -113.3980   47.0640 C.ar  538  TRP538      0.0015
     92  N       -107.8310 -106.4360   41.7980 N.3   543  TYR543     -0.1241
     93  CA      -108.4260 -105.8060   42.9750 C.3   543  TYR543      0.1605
     94  C       -107.4410 -104.8520   43.6720 C.2   543  TYR543      0.2264
     95  O       -106.2240 -105.0390   43.6210 O.2   543  TYR543     -0.2867
     96  CB      -108.8940 -106.8830   43.9470 C.3   543  TYR543      0.0534
     97  CG      -107.7780 -107.7660   44.4790 C.ar  543  TYR543     -0.0201
     98  CD1     -107.3780 -108.9160   43.7890 C.ar  543  TYR543     -0.0009
     99  CD2     -107.1430 -107.4730   45.6950 C.ar  543  TYR543     -0.0009
    100  CE1     -106.3660 -109.7260   44.2790 C.ar  543  TYR543      0.0417
    101  CE2     -106.1290 -108.2780   46.1870 C.ar  543  TYR543      0.0417
    102  CZ      -105.7450 -109.4020   45.4790 C.ar  543  TYR543      0.1957
    103  OH      -104.7490 -110.2090   45.9700 O.3   543  TYR543     -0.2866
    104  N       -103.3640 -105.1400   48.9360 N.3   546  GLU546     -0.1245
    105  CA      -102.3780 -106.2090   49.0520 C.3   546  GLU546      0.1567
    106  C       -101.0270 -105.8580   48.4070 C.2   546  GLU546      0.2260
    107  O       -100.2900 -106.7320   47.9300 O.2   546  GLU546     -0.2867
    108  CB      -102.9490 -107.5210   48.4990 C.3   546  GLU546      0.0388
    109  CG      -102.3120 -108.7710   49.0920 C.3   546  GLU546      0.1160
    110  CD      -103.0540 -110.0490   48.7500 C.2   546  GLU546      0.3649
    111  OE1     -104.2730 -110.0330   48.4370 O.co2 546  GLU546     -0.2457
    112  OE2     -102.3940 -111.1000   48.8230 O.co2 546  GLU546     -0.2457
    113  N       -101.9360 -106.0420   42.5610 N.3   559  ILE559     -0.1245
    114  CA      -100.8750 -107.0260   42.2960 C.3   559  ILE559      0.1561
    115  C       -100.7600 -107.3680   40.8010 C.2   559  ILE559      0.2260
    116  O        -99.6610 -107.6070   40.3240 O.2   559  ILE559     -0.2867
    117  CB      -101.0800 -108.3040   43.1370 C.3   559  ILE559      0.0252
    118  CG1     -100.8980 -107.9630   44.6180 C.3   559  ILE559      0.0019
    119  CG2     -100.1200 -109.4160   42.7120 C.3   559  ILE559      0.0019
    120  CD1     -101.5020 -108.9880   45.5460 C.3   559  ILE559      0.0001
    121  N        -98.3830 -116.0980   40.0590 N.3   620  TRP620     -0.1241
    122  CA       -99.6800 -115.4230   39.9100 C.3   620  TRP620      0.1605
    123  C        -99.7580 -114.4710   38.7210 C.2   620  TRP620      0.2264
    124  O       -100.7510 -114.4570   37.9880 O.2   620  TRP620     -0.2867
    125  CB       -99.9830 -114.5930   41.1610 C.3   620  TRP620      0.0550
    126  CG      -100.4190 -115.3570   42.3320 C.ar  620  TRP620      0.0003
    127  CD1     -101.6990 -115.6120   42.7000 C.ar  620  TRP620      0.0946
    128  CD2      -99.5880 -115.9460   43.3230 C.ar  620  TRP620      0.0152
    129  NE1     -101.7280 -116.3260   43.8690 N.ar  620  TRP620     -0.2442
    130  CE2     -100.4400 -116.5510   44.2740 C.ar  620  TRP620      0.0810
    131  CE3      -98.2020 -116.0410   43.4980 C.ar  620  TRP620      0.0012
    132  CZ2      -99.9470 -117.2440   45.3830 C.ar  620  TRP620      0.0191
    133  CZ3      -97.7150 -116.7130   44.6120 C.ar  620  TRP620      0.0001
    134  CH2      -98.5860 -117.3120   45.5360 C.ar  620  TRP620      0.0015
@<TRIPOS>BOND
     1   124   123    2
     2   123   122    1
     3   122   121    1
     4   122   125    1
     5   116   115    2
     6   115   114    1
     7    81    80    2
     8    80    79    1
     9   125   126    1
    10    78    79    1
    11    92    93    1
    12    79    82    1
    13   114   113    1
    14   114   117    1
    15   126   127   ar
    16   126   128   ar
    17   127   129   ar
    18   119   117    1
    19    93    94    1
    20    93    96    1
    21   117   118    1
    22    82    83    1
    23   128   131   ar
    24   128   130   ar
    25   131   133   ar
    26    95    94    2
    27    98   100   ar
    28    98    97   ar
    29   129   130   ar
    30    96    97    1
    31    84    83   ar
    32    84    86   ar
    33    83    85   ar
    34   130   132   ar
    35   100   102   ar
    36    15    14    2
    37    97    99   ar
    38    65    63   ar
    39    65    67   ar
    40   133   134   ar
    41   118   120    1
    42    12    13    1
    43    71    72    2
    44    71    70    1
    45    63    62   ar
    46    86    87   ar
    47    85    88   ar
    48    85    87   ar
    49    68    67    1
    50   132   134   ar
    51    14    13    1
    52    70    69    1
    53    70    73    1
    54   102   103    1
    55   102   101   ar
    56    88    90   ar
    57    67    66   ar
    58    87    89   ar
    59    99   101   ar
    60    13    16    1
    61    16    17    1
    62    58    59    1
    63    58    61    1
    64    58    57    1
    65    62    61    1
    66    62    64   ar
    67    74    73    1
    68    74    75    1
    69    59    60    2
    70    90    91   ar
    71    89    91   ar
    72    19    17   ar
    73    19    21   ar
    74    66    64   ar
    75    17    18   ar
    76    77    75   ar
    77    75    76   ar
    78   107   106    2
    79    21    20   ar
    80    18    20   ar
    81   106   105    1
    82   111   110   ar
    83   108   105    1
    84   108   109    1
    85   110   112   ar
    86   110   109    1
    87   104   105    1
    88    30    31   ar
    89    30    28   ar
    90    31    29   ar
    91    56    54   ar
    92    22    23    1
    93    28    27   ar
    94    29    27   ar
    95    27    26    1
    96     4     3    2
    97    23    26    1
    98    23    24    1
    99    54    55   ar
   100    54    53    1
   101    46    45    2
   102    10     9    1
   103     3     2    1
   104    39    37   am
   105    53    52    1
   106    45    47   am
   107    45    44    1
   108    24    25    2
   109    11     9    1
   110     9     8    2
   111    44    41    1
   112    37    36    1
   113    37    38    2
   114     5     2    1
   115     5     6    1
   116     2     1    1
   117    36    33    1
   118    52    49    1
   119    41    42    1
   120    41    40    1
   121    48    49    1
   122    48    42   am
   123     8     7    1
   124    32    33    1
   125    49    50    1
   126     7     6    1
   127    42    43    2
   128    33    34    1
   129    34    35    2
   130    50    51    2
