@<TRIPOS>MOLECULE
tmp/5t9iA00.pdb
 125 120 0 0 0
SMALL
GASTEIGER

@<TRIPOS>ATOM
      1  N         13.8660   44.4880    0.0360 N.3   112  ASN112     -0.1225
      2  CA        13.6280   43.4350   -0.9230 C.3   112  ASN112      0.1785
      3  C         14.7540   42.4070   -0.8910 C.2   112  ASN112      0.2597
      4  O         15.7560   42.5610   -0.1680 O.2   112  ASN112     -0.2718
      5  CB        13.4830   44.0310   -2.3320 C.3   112  ASN112      0.1169
      6  CG        12.3420   43.3830   -3.1500 C.2   112  ASN112      0.2627
      7  OD1       12.1340   42.1670   -3.1250 O.2   112  ASN112     -0.2716
      8  ND2       11.5900   44.2140   -3.8590 N.am  112  ASN112     -0.0877
      9  N         14.5410   41.3390   -1.6460 N.am  113  ALA113     -0.1966
     10  CA        15.5340   40.3040   -1.8940 C.3   113  ALA113      0.1728
     11  C         15.3410   39.9110   -3.3440 C.2   113  ALA113      0.2616
     12  O         14.2620   40.1340   -3.9190 O.2   113  ALA113     -0.2715
     13  CB        15.3290   39.1090   -0.9840 C.3   113  ALA113      0.0334
     14  N         16.3770   39.3510   -3.9520 N.am  114  PHE114     -0.1974
     15  CA        16.2760   38.9240   -5.3340 C.3   114  PHE114      0.1639
     16  C         17.3680   37.9590   -5.7840 C.2   114  PHE114      0.2290
     17  O         18.4380   37.8790   -5.2040 O.2   114  PHE114     -0.2864
     18  CB        16.1900   40.1420   -6.2830 C.3   114  PHE114      0.0560
     19  CG        17.3710   41.1010   -6.2040 C.ar  114  PHE114     -0.0200
     20  CD1       17.4120   42.1210   -5.2560 C.ar  114  PHE114     -0.0042
     21  CD2       18.4300   40.9960   -7.1100 C.ar  114  PHE114     -0.0042
     22  CE1       18.5010   43.0240   -5.1920 C.ar  114  PHE114     -0.0003
     23  CE2       19.5200   41.8940   -7.0590 C.ar  114  PHE114     -0.0003
     24  CZ        19.5600   42.9010   -6.0970 C.ar  114  PHE114     -0.0000
     25  N         10.0710   45.8110    6.7540 N.3   130  PHE130     -0.1241
     26  CA        10.7390   44.5080    6.7660 C.3   130  PHE130      0.1605
     27  C         11.8790   44.5090    7.7550 C.2   130  PHE130      0.2264
     28  O         12.5550   45.5270    7.9370 O.2   130  PHE130     -0.2867
     29  CB        11.3950   44.2140    5.4200 C.3   130  PHE130      0.0534
     30  CG        10.4700   43.6690    4.3780 C.ar  130  PHE130     -0.0203
     31  CD1       10.0860   42.3360    4.3990 C.ar  130  PHE130     -0.0042
     32  CD2       10.0200   44.4820    3.3380 C.ar  130  PHE130     -0.0042
     33  CE1        9.2510   41.8300    3.4140 C.ar  130  PHE130     -0.0003
     34  CE2        9.1800   43.9790    2.3570 C.ar  130  PHE130     -0.0003
     35  CZ         8.8070   42.6490    2.3920 C.ar  130  PHE130     -0.0000
     36  N         15.7760   40.1960    5.2690 N.3   133  LEU133     -0.1245
     37  CA        14.8500   39.3550    4.5020 C.3   133  LEU133      0.1561
     38  C         15.2020   37.8610    4.4900 C.2   133  LEU133      0.2260
     39  O         14.3360   36.9920    4.2900 O.2   133  LEU133     -0.2867
     40  CB        14.6910   39.9370    3.0950 C.3   133  LEU133      0.0270
     41  CG        13.6670   41.0750    3.2180 C.3   133  LEU133      0.0019
     42  CD1       14.3090   42.4540    3.2960 C.3   133  LEU133      0.0001
     43  CD2       12.6720   40.9750    2.1090 C.3   133  LEU133      0.0001
     44  N         10.9880   33.1410    1.8540 N.3   139  VAL139     -0.1245
     45  CA        11.6530   34.1610    1.0340 C.3   139  VAL139      0.1561
     46  C         12.9240   33.5930    0.3950 C.2   139  VAL139      0.2260
     47  O         13.1270   33.7360   -0.8010 O.2   139  VAL139     -0.2867
     48  CB        11.9990   35.4190    1.8660 C.3   139  VAL139      0.0252
     49  CG1       12.8740   36.3460    1.0880 C.3   139  VAL139      0.0019
     50  CG2       10.7110   36.1300    2.2850 C.3   139  VAL139      0.0019
     51  N         11.8680   31.0540   -2.1930 N.3   142  HIS142     -0.1226
     52  CA        11.2830   31.7970   -3.3140 C.3   142  HIS142      0.1752
     53  C         12.3960   32.2880   -4.2560 C.2   142  HIS142      0.2595
     54  O         12.3610   32.0190   -5.4410 O.2   142  HIS142     -0.2718
     55  CB        10.4700   32.9750   -2.7660 C.3   142  HIS142      0.0759
     56  CG         9.9220   33.8880   -3.8200 C.ar  142  HIS142      0.0818
     57  ND1        8.5740   33.9440   -4.1280 N.ar  142  HIS142     -0.2268
     58  CD2       10.5320   34.8050   -4.6140 C.ar  142  HIS142      0.1154
     59  CE1        8.3860   34.8230   -5.1020 C.ar  142  HIS142      0.1986
     60  NE2        9.5550   35.3580   -5.4150 N.ar  142  HIS142     -0.2212
     61  N         13.4000   32.9800   -3.7220 N.am  143  GLU143     -0.1979
     62  CA        14.4690   33.4960   -4.5680 C.3   143  GLU143      0.1602
     63  C         15.2880   32.3980   -5.2630 C.2   143  GLU143      0.2287
     64  O         15.5980   32.5140   -6.4440 O.2   143  GLU143     -0.2864
     65  CB        15.4180   34.4260   -3.8040 C.3   143  GLU143      0.0415
     66  CG        14.7370   35.6520   -3.1270 C.3   143  GLU143      0.1163
     67  CD        13.8520   36.4850   -4.0490 C.2   143  GLU143      0.3649
     68  OE1       13.9970   36.4470   -5.2980 O.co2 143  GLU143     -0.2457
     69  OE2       13.0030   37.2190   -3.4960 O.co2 143  GLU143     -0.2457
     70  N         13.6770   30.9930   -8.2420 N.3   146  HIS146     -0.1241
     71  CA        13.8800   31.7750   -9.4930 C.3   146  HIS146      0.1621
     72  C         15.0770   31.2340  -10.3010 C.2   146  HIS146      0.2264
     73  O         15.0330   31.1850  -11.5310 O.2   146  HIS146     -0.2867
     74  CB        14.0830   33.2570   -9.2330 C.3   146  HIS146      0.0745
     75  CG        12.8130   34.0010   -8.9570 C.ar  146  HIS146      0.0817
     76  ND1       11.7310   33.9660   -9.8070 N.ar  146  HIS146     -0.2268
     77  CD2       12.4450   34.7910   -7.9230 C.ar  146  HIS146      0.1154
     78  CE1       10.7580   34.7120   -9.3200 C.ar  146  HIS146      0.1986
     79  NE2       11.1720   35.2330   -8.1820 N.ar  146  HIS146     -0.2212
     80  N          6.6520   34.0230  -10.8740 N.3   166  GLU166     -0.1245
     81  CA         6.4720   34.4300   -9.4610 C.3   166  GLU166      0.1567
     82  C          5.6670   33.4030   -8.6620 C.2   166  GLU166      0.2260
     83  O          6.0330   33.0560   -7.5450 O.2   166  GLU166     -0.2867
     84  CB         5.7930   35.8180   -9.3550 C.3   166  GLU166      0.0388
     85  CG         6.7310   36.9820   -9.4440 C.3   166  GLU166      0.1160
     86  CD         7.9080   36.8910   -8.4600 C.2   166  GLU166      0.3649
     87  OE1        7.7520   36.5550   -7.2810 O.co2 166  GLU166     -0.2457
     88  OE2        9.0180   37.1920   -8.8610 O.co2 166  GLU166     -0.2457
     89  N          3.0510   34.2780    2.3680 N.3   188  ILE188     -0.1245
     90  CA         4.4100   34.6140    1.9690 C.3   188  ILE188      0.1561
     91  C          5.0430   35.7650    2.7790 C.2   188  ILE188      0.2260
     92  O          4.5600   36.9010    2.7450 O.2   188  ILE188     -0.2867
     93  CB         4.4640   35.0220    0.4930 C.3   188  ILE188      0.0252
     94  CG1        3.8770   33.9080   -0.3970 C.3   188  ILE188      0.0019
     95  CG2        5.8870   35.3660    0.1240 C.3   188  ILE188      0.0019
     96  CD1        4.6460   32.5570   -0.3370 C.3   188  ILE188      0.0001
     97  N          3.0900   39.4390    3.2530 N.3   202  LEU202     -0.1231
     98  CA         3.1900   40.1440    1.9740 C.3   202  LEU202      0.1693
     99  C          2.1180   39.7060    0.9610 C.2   202  LEU202      0.2591
    100  O          1.5410   40.5260    0.2500 O.2   202  LEU202     -0.2718
    101  CB         4.5850   39.8810    1.4020 C.3   202  LEU202      0.0284
    102  CG         5.0800   40.7360    0.2600 C.3   202  LEU202      0.0019
    103  CD1        5.0310   42.1940    0.6770 C.3   202  LEU202      0.0001
    104  CD2        6.5060   40.2940   -0.1110 C.3   202  LEU202      0.0001
    105  N          1.8920   38.4010    0.8850 N.am  203  ARG203     -0.1980
    106  CA         0.9520   37.8080   -0.0510 C.3   203  ARG203      0.1597
    107  C          0.3430   36.6310    0.6630 C.2   203  ARG203      0.2287
    108  O          0.9960   36.0490    1.5340 O.2   203  ARG203     -0.2864
    109  CB         1.6520   37.2810   -1.3240 C.3   203  ARG203      0.0334
    110  CG         2.0300   38.3550   -2.3390 C.3   203  ARG203      0.0492
    111  CD         2.5340   37.7470   -3.6750 C.3   203  ARG203      0.2205
    112  NE         3.8300   37.0790   -3.5660 N.pl3 203  ARG203     -0.0865
    113  CZ         5.0090   37.7070   -3.5140 C.cat 203  ARG203      0.5346
    114  NH1        5.0980   39.0400   -3.5240 N.pl3 203  ARG203      0.1354
    115  NH2        6.1170   36.9950   -3.4370 N.pl3 203  ARG203      0.1354
    116  N          3.8080   40.2490   -9.7670 N.3   231  HIS231     -0.1241
    117  CA         3.5480   39.9570   -8.3550 C.3   231  HIS231      0.1621
    118  C          2.0550   40.0480   -7.9800 C.2   231  HIS231      0.2264
    119  O          1.6650   39.6950   -6.8570 O.2   231  HIS231     -0.2867
    120  CB         4.3570   40.8730   -7.4290 C.3   231  HIS231      0.0745
    121  CG         5.8350   40.7360   -7.5900 C.ar  231  HIS231      0.0817
    122  ND1        6.5860   41.5940   -8.3700 N.ar  231  HIS231     -0.2268
    123  CD2        6.7030   39.8350   -7.0730 C.ar  231  HIS231      0.1154
    124  CE1        7.8550   41.2290   -8.3190 C.ar  231  HIS231      0.1986
    125  NE2        7.9530   40.1670   -7.5370 N.ar  231  HIS231     -0.2212
@<TRIPOS>BOND
     1    73    72    2
     2    80    81    1
     3    72    71    1
     4    76    78   ar
     5    76    75   ar
     6   116   117    1
     7    71    74    1
     8    71    70    1
     9    81    84    1
    10    81    82    1
    11    85    84    1
    12    85    86    1
    13    78    79   ar
    14    74    75    1
    15    75    77   ar
    16    88    86   ar
    17    82    83    2
    18    86    87   ar
    19   122   124   ar
    20   122   121   ar
    21   117   118    1
    22   117   120    1
    23   124   125   ar
    24    79    77   ar
    25   118   119    2
    26   121   120    1
    27   121   123   ar
    28   125   123   ar
    29    21    23   ar
    30    21    19   ar
    31    23    24   ar
    32    64    63    2
    33    18    19    1
    34    18    15    1
    35    19    20   ar
    36    24    22   ar
    37    16    15    1
    38    16    17    2
    39    54    53    2
    40    60    59   ar
    41    60    58   ar
    42    15    14    1
    43    68    67   ar
    44    63    62    1
    45    20    22   ar
    46    59    57   ar
    47    58    56   ar
    48    62    65    1
    49    62    61    1
    50    53    61   am
    51    53    52    1
    52    57    56   ar
    53    67    69   ar
    54    67    66    1
    55    14    11   am
    56    12    11    2
    57     8     6   am
    58    56    55    1
    59    65    66    1
    60   111   112    1
    61   111   110    1
    62   112   113    2
    63   114   113    1
    64   113   115    1
    65    11    10    1
    66    52    55    1
    67    52    51    1
    68     6     7    2
    69     6     5    1
    70   110   109    1
    71     5     2    1
    72    10     9    1
    73    10    13    1
    74     9     3   am
    75   109   106    1
    76     2     3    1
    77     2     1    1
    78     3     4    2
    79    47    46    2
    80    94    96    1
    81    94    93    1
    82   104   102    1
    83   106   107    1
    84   106   105    1
    85    95    93    1
    86   100    99    2
    87   102   103    1
    88   102   101    1
    89    46    45    1
    90    93    90    1
    91   107   108    2
    92   105    99   am
    93    99    98    1
    94    45    44    1
    95    45    48    1
    96    49    48    1
    97   101    98    1
    98    48    50    1
    99    90    89    1
   100    90    91    1
   101    98    97    1
   102    43    41    1
   103    34    35   ar
   104    34    32   ar
   105    35    33   ar
   106    92    91    2
   107    40    41    1
   108    40    37    1
   109    41    42    1
   110    32    30   ar
   111    33    31   ar
   112    39    38    2
   113    30    31   ar
   114    30    29    1
   115    38    37    1
   116    37    36    1
   117    29    26    1
   118    25    26    1
   119    26    27    1
   120    27    28    2
