@<TRIPOS>MOLECULE
tmp/5t9iA01.pdb
 103 99 0 0 0
SMALL
GASTEIGER

@<TRIPOS>ATOM
      1  N         14.3670   47.0340    1.1370 N.3   111  ASN111     -0.1225
      2  CA        13.1830   46.2620    1.5170 C.3   111  ASN111      0.1785
      3  C         12.8610   45.1990    0.5040 C.2   111  ASN111      0.2597
      4  O         11.7120   45.0370    0.1220 O.2   111  ASN111     -0.2718
      5  CB        11.9450   47.1830    1.6090 C.3   111  ASN111      0.1169
      6  CG        11.9270   48.0200    2.8650 C.2   111  ASN111      0.2627
      7  OD1       12.3340   47.5670    3.9200 O.2   111  ASN111     -0.2716
      8  ND2       11.4680   49.2520    2.7500 N.am  111  ASN111     -0.0877
      9  N         13.8660   44.4880    0.0360 N.am  112  ASN112     -0.1960
     10  CA        13.6280   43.4350   -0.9230 C.3   112  ASN112      0.1819
     11  C         14.7540   42.4070   -0.8910 C.2   112  ASN112      0.2621
     12  O         15.7560   42.5610   -0.1680 O.2   112  ASN112     -0.2715
     13  CB        13.4830   44.0310   -2.3320 C.3   112  ASN112      0.1195
     14  CG        12.3420   43.3830   -3.1500 C.2   112  ASN112      0.2630
     15  OD1       12.1340   42.1670   -3.1250 O.2   112  ASN112     -0.2716
     16  ND2       11.5900   44.2140   -3.8590 N.am  112  ASN112     -0.0877
     17  N         14.5410   41.3390   -1.6460 N.am  113  ALA113     -0.1977
     18  CA        15.5340   40.3040   -1.8940 C.3   113  ALA113      0.1597
     19  C         15.3410   39.9110   -3.3440 C.2   113  ALA113      0.2287
     20  O         14.2620   40.1340   -3.9190 O.2   113  ALA113     -0.2864
     21  CB        15.3290   39.1090   -0.9840 C.3   113  ALA113      0.0319
     22  N          8.9020   48.1350    7.6600 N.3   129  THR129     -0.1203
     23  CA         8.1940   47.3750    6.6470 C.3   129  THR129      0.1994
     24  C          8.7470   45.9430    6.6470 C.2   129  THR129      0.2617
     25  O          7.9930   44.9910    6.5380 O.2   129  THR129     -0.2717
     26  CB         8.3840   48.0030    5.2330 C.3   129  THR129      0.1784
     27  OG1        8.1540   49.4200    5.2780 O.3   129  THR129     -0.2211
     28  CG2        7.4400   47.3580    4.2240 C.3   129  THR129      0.0376
     29  N         10.0710   45.8110    6.7540 N.am  130  PHE130     -0.1975
     30  CA        10.7390   44.5080    6.7660 C.3   130  PHE130      0.1639
     31  C         11.8790   44.5090    7.7550 C.2   130  PHE130      0.2290
     32  O         12.5550   45.5270    7.9370 O.2   130  PHE130     -0.2864
     33  CB        11.3950   44.2140    5.4200 C.3   130  PHE130      0.0560
     34  CG        10.4700   43.6690    4.3780 C.ar  130  PHE130     -0.0200
     35  CD1       10.0860   42.3360    4.3990 C.ar  130  PHE130     -0.0042
     36  CD2       10.0200   44.4820    3.3380 C.ar  130  PHE130     -0.0042
     37  CE1        9.2510   41.8300    3.4140 C.ar  130  PHE130     -0.0003
     38  CE2        9.1800   43.9790    2.3570 C.ar  130  PHE130     -0.0003
     39  CZ         8.8070   42.6490    2.3920 C.ar  130  PHE130     -0.0000
     40  N         15.7760   40.1960    5.2690 N.3   133  LEU133     -0.1245
     41  CA        14.8500   39.3550    4.5020 C.3   133  LEU133      0.1561
     42  C         15.2020   37.8610    4.4900 C.2   133  LEU133      0.2260
     43  O         14.3360   36.9920    4.2900 O.2   133  LEU133     -0.2867
     44  CB        14.6910   39.9370    3.0950 C.3   133  LEU133      0.0270
     45  CG        13.6670   41.0750    3.2180 C.3   133  LEU133      0.0019
     46  CD1       14.3090   42.4540    3.2960 C.3   133  LEU133      0.0001
     47  CD2       12.6720   40.9750    2.1090 C.3   133  LEU133      0.0001
     48  N         11.8680   31.0540   -2.1930 N.3   142  HIS142     -0.1226
     49  CA        11.2830   31.7970   -3.3140 C.3   142  HIS142      0.1752
     50  C         12.3960   32.2880   -4.2560 C.2   142  HIS142      0.2595
     51  O         12.3610   32.0190   -5.4410 O.2   142  HIS142     -0.2718
     52  CB        10.4700   32.9750   -2.7660 C.3   142  HIS142      0.0759
     53  CG         9.9220   33.8880   -3.8200 C.ar  142  HIS142      0.0818
     54  ND1        8.5740   33.9440   -4.1280 N.ar  142  HIS142     -0.2268
     55  CD2       10.5320   34.8050   -4.6140 C.ar  142  HIS142      0.1154
     56  CE1        8.3860   34.8230   -5.1020 C.ar  142  HIS142      0.1986
     57  NE2        9.5550   35.3580   -5.4150 N.ar  142  HIS142     -0.2212
     58  N         13.4000   32.9800   -3.7220 N.am  143  GLU143     -0.1979
     59  CA        14.4690   33.4960   -4.5680 C.3   143  GLU143      0.1602
     60  C         15.2880   32.3980   -5.2630 C.2   143  GLU143      0.2287
     61  O         15.5980   32.5140   -6.4440 O.2   143  GLU143     -0.2864
     62  CB        15.4180   34.4260   -3.8040 C.3   143  GLU143      0.0415
     63  CG        14.7370   35.6520   -3.1270 C.3   143  GLU143      0.1163
     64  CD        13.8520   36.4850   -4.0490 C.2   143  GLU143      0.3649
     65  OE1       13.9970   36.4470   -5.2980 O.co2 143  GLU143     -0.2457
     66  OE2       13.0030   37.2190   -3.4960 O.co2 143  GLU143     -0.2457
     67  N          3.0900   39.4390    3.2530 N.3   202  LEU202     -0.1231
     68  CA         3.1900   40.1440    1.9740 C.3   202  LEU202      0.1693
     69  C          2.1180   39.7060    0.9610 C.2   202  LEU202      0.2591
     70  O          1.5410   40.5260    0.2500 O.2   202  LEU202     -0.2718
     71  CB         4.5850   39.8810    1.4020 C.3   202  LEU202      0.0284
     72  CG         5.0800   40.7360    0.2600 C.3   202  LEU202      0.0019
     73  CD1        5.0310   42.1940    0.6770 C.3   202  LEU202      0.0001
     74  CD2        6.5060   40.2940   -0.1110 C.3   202  LEU202      0.0001
     75  N          1.8920   38.4010    0.8850 N.am  203  ARG203     -0.1980
     76  CA         0.9520   37.8080   -0.0510 C.3   203  ARG203      0.1597
     77  C          0.3430   36.6310    0.6630 C.2   203  ARG203      0.2287
     78  O          0.9960   36.0490    1.5340 O.2   203  ARG203     -0.2864
     79  CB         1.6520   37.2810   -1.3240 C.3   203  ARG203      0.0334
     80  CG         2.0300   38.3550   -2.3390 C.3   203  ARG203      0.0492
     81  CD         2.5340   37.7470   -3.6750 C.3   203  ARG203      0.2205
     82  NE         3.8300   37.0790   -3.5660 N.pl3 203  ARG203     -0.0865
     83  CZ         5.0090   37.7070   -3.5140 C.cat 203  ARG203      0.5346
     84  NH1        5.0980   39.0400   -3.5240 N.pl3 203  ARG203      0.1354
     85  NH2        6.1170   36.9950   -3.4370 N.pl3 203  ARG203      0.1354
     86  N          4.6160   46.9050  -12.4020 N.3   226  ASP226     -0.1239
     87  CA         5.1350   45.6360  -11.8870 C.3   226  ASP226      0.1674
     88  C          5.3340   44.6330  -13.0350 C.2   226  ASP226      0.2266
     89  O          4.9280   43.4780  -12.9480 O.2   226  ASP226     -0.2867
     90  CB         4.1560   45.1200  -10.8290 C.3   226  ASP226      0.1410
     91  CG         4.6240   43.8430  -10.1360 C.2   226  ASP226      0.3668
     92  OD1        5.8290   43.6950   -9.8370 O.co2 226  ASP226     -0.2456
     93  OD2        3.7470   42.9930   -9.8560 O.co2 226  ASP226     -0.2456
     94  N          3.8080   40.2490   -9.7670 N.3   231  HIS231     -0.1241
     95  CA         3.5480   39.9570   -8.3550 C.3   231  HIS231      0.1621
     96  C          2.0550   40.0480   -7.9800 C.2   231  HIS231      0.2264
     97  O          1.6650   39.6950   -6.8570 O.2   231  HIS231     -0.2867
     98  CB         4.3570   40.8730   -7.4290 C.3   231  HIS231      0.0745
     99  CG         5.8350   40.7360   -7.5900 C.ar  231  HIS231      0.0817
    100  ND1        6.5860   41.5940   -8.3700 N.ar  231  HIS231     -0.2268
    101  CD2        6.7030   39.8350   -7.0730 C.ar  231  HIS231      0.1154
    102  CE1        7.8550   41.2290   -8.3190 C.ar  231  HIS231      0.1986
    103  NE2        7.9530   40.1670   -7.5370 N.ar  231  HIS231     -0.2212
@<TRIPOS>BOND
     1    88    89    2
     2    88    87    1
     3    86    87    1
     4    87    90    1
     5    90    91    1
     6    91    93   ar
     7    91    92   ar
     8    94    95    1
     9   100   102   ar
    10   100    99   ar
    11    95    96    1
    12    95    98    1
    13   102   103   ar
    14    96    97    2
    15    99    98    1
    16    99   101   ar
    17   103   101   ar
    18    61    60    2
    19    51    50    2
    20    57    56   ar
    21    57    55   ar
    22    65    64   ar
    23    60    59    1
    24    56    54   ar
    25    55    53   ar
    26    59    62    1
    27    59    58    1
    28    50    58   am
    29    50    49    1
    30    54    53   ar
    31    64    66   ar
    32    64    63    1
    33    20    19    2
    34    16    14   am
    35    53    52    1
    36    62    63    1
    37    81    82    1
    38    81    80    1
    39    82    83    2
    40    84    83    1
    41    83    85    1
    42    19    18    1
    43    49    52    1
    44    49    48    1
    45    14    15    2
    46    14    13    1
    47    80    79    1
    48    13    10    1
    49    18    17    1
    50    18    21    1
    51    17    11   am
    52    79    76    1
    53    10    11    1
    54    10     9    1
    55    11    12    2
    56    74    72    1
    57    76    77    1
    58    76    75    1
    59     9     3   am
    60     4     3    2
    61    70    69    2
    62    72    73    1
    63    72    71    1
    64     3     2    1
    65    77    78    2
    66    75    69   am
    67    69    68    1
    68     1     2    1
    69    71    68    1
    70     2     5    1
    71     5     6    1
    72    68    67    1
    73    47    45    1
    74    38    39   ar
    75    38    36   ar
    76    39    37   ar
    77     8     6   am
    78     6     7    2
    79    44    45    1
    80    44    41    1
    81    45    46    1
    82    36    34   ar
    83    37    35   ar
    84    28    26    1
    85    43    42    2
    86    34    35   ar
    87    34    33    1
    88    42    41    1
    89    41    40    1
    90    26    27    1
    91    26    23    1
    92    33    30    1
    93    25    24    2
    94    23    24    1
    95    23    22    1
    96    24    29   am
    97    29    30    1
    98    30    31    1
    99    31    32    2
