@<TRIPOS>MOLECULE
tmp/5t9tB06.pdb
 77 74 0 0 0
SMALL
GASTEIGER

@<TRIPOS>ATOM
      1  N        -43.1450  194.8650  -77.0080 N.3   422  HIS422     -0.1241
      2  CA       -44.5440  194.4980  -76.8260 C.3   422  HIS422      0.1621
      3  C        -45.4660  195.2190  -77.8010 C.2   422  HIS422      0.2264
      4  O        -46.6000  194.7740  -78.0030 O.2   422  HIS422     -0.2867
      5  CB       -44.9810  194.7850  -75.3900 C.3   422  HIS422      0.0745
      6  CG       -44.2600  193.9690  -74.3600 C.ar  422  HIS422      0.0817
      7  ND1      -44.6530  193.9250  -73.0390 N.ar  422  HIS422     -0.2268
      8  CD2      -43.1710  193.1690  -74.4540 C.ar  422  HIS422      0.1154
      9  CE1      -43.8390  193.1320  -72.3650 C.ar  422  HIS422      0.1986
     10  NE2      -42.9310  192.6610  -73.2010 N.ar  422  HIS422     -0.2212
     11  N        -42.3060  205.1080  -71.7100 N.3   442  GLN442     -0.1231
     12  CA       -41.6400  203.8870  -71.2770 C.3   442  GLN442      0.1698
     13  C        -41.9110  202.7900  -72.2960 C.2   442  GLN442      0.2592
     14  O        -43.0700  202.5050  -72.6130 O.2   442  GLN442     -0.2718
     15  CB       -42.1110  203.4370  -69.8910 C.3   442  GLN442      0.0381
     16  CG       -41.3760  202.1960  -69.3900 C.3   442  GLN442      0.0905
     17  CD       -41.9580  201.6340  -68.1080 C.2   442  GLN442      0.2608
     18  OE1      -43.1050  201.9110  -67.7560 O.2   442  GLN442     -0.2717
     19  NE2      -41.1620  200.8430  -67.3970 N.am  442  GLN442     -0.0878
     20  N        -40.8440  202.1810  -72.7980 N.am  443  VAL443     -0.1966
     21  CA       -40.9480  201.0560  -73.7010 C.3   443  VAL443      0.1727
     22  C        -40.6710  199.7770  -72.9200 C.2   443  VAL443      0.2617
     23  O        -40.1850  199.8050  -71.7920 O.2   443  VAL443     -0.2715
     24  CB       -39.9930  201.1980  -74.9090 C.3   443  VAL443      0.0290
     25  CG1      -40.2520  202.5070  -75.6340 C.3   443  VAL443      0.0023
     26  CG2      -38.5470  201.1180  -74.4530 C.3   443  VAL443      0.0023
     27  N        -40.9850  198.6340  -73.5260 N.am  444  SER444     -0.1936
     28  CA       -40.7790  197.3550  -72.8640 C.3   444  SER444      0.2055
     29  C        -40.5570  196.2630  -73.8990 C.2   444  SER444      0.2643
     30  O        -41.0800  196.3250  -75.0150 O.2   444  SER444     -0.2714
     31  CB       -41.9620  196.9910  -71.9590 C.3   444  SER444      0.2130
     32  OG       -42.0220  197.8540  -70.8350 O.3   444  SER444     -0.2179
     33  N        -39.7770  195.2570  -73.5100 N.am  445  ALA445     -0.1963
     34  CA       -39.4660  194.1410  -74.3880 C.3   445  ALA445      0.1728
     35  C        -39.3100  192.8830  -73.5470 C.2   445  ALA445      0.2616
     36  O        -39.1450  192.9440  -72.3260 O.2   445  ALA445     -0.2715
     37  CB       -38.1980  194.4070  -75.2090 C.3   445  ALA445      0.0334
     38  N        -39.3660  191.7350  -74.2200 N.am  446  SER446     -0.1950
     39  CA       -39.2830  190.4460  -73.5510 C.3   446  SER446      0.1924
     40  C        -38.3420  189.5260  -74.3130 C.2   446  SER446      0.2314
     41  O        -38.2290  189.6000  -75.5390 O.2   446  SER446     -0.2863
     42  CB       -40.6640  189.7850  -73.4220 C.3   446  SER446      0.2116
     43  OG       -41.4720  190.4570  -72.4720 O.3   446  SER446     -0.2180
     44  N        -32.1230  192.1370  -70.9970 N.3   456  ILE456     -0.1245
     45  CA       -32.3920  193.1670  -71.9930 C.3   456  ILE456      0.1561
     46  C        -31.8010  194.4850  -71.5150 C.2   456  ILE456      0.2260
     47  O        -31.8930  194.8290  -70.3310 O.2   456  ILE456     -0.2867
     48  CB       -33.9030  193.3040  -72.2630 C.3   456  ILE456      0.0252
     49  CG1      -34.6750  193.3560  -70.9410 C.3   456  ILE456      0.0019
     50  CG2      -34.3990  192.1620  -73.1430 C.3   456  ILE456      0.0019
     51  CD1      -36.1770  193.3520  -71.1020 C.3   456  ILE456      0.0001
     52  N        -31.7490  198.5240  -73.0520 N.3   458  TYR458     -0.1241
     53  CA       -32.2750  199.4090  -74.0790 C.3   458  TYR458      0.1605
     54  C        -31.3050  200.5480  -74.3810 C.2   458  TYR458      0.2264
     55  O        -30.3910  200.8480  -73.6080 O.2   458  TYR458     -0.2867
     56  CB       -33.6250  199.9880  -73.6520 C.3   458  TYR458      0.0534
     57  CG       -34.6030  198.9800  -73.0920 C.ar  458  TYR458     -0.0201
     58  CD1      -35.4470  198.2600  -73.9290 C.ar  458  TYR458     -0.0009
     59  CD2      -34.6940  198.7610  -71.7250 C.ar  458  TYR458     -0.0009
     60  CE1      -36.3510  197.3450  -73.4170 C.ar  458  TYR458      0.0417
     61  CE2      -35.5940  197.8510  -71.2050 C.ar  458  TYR458      0.0417
     62  CZ       -36.4190  197.1450  -72.0540 C.ar  458  TYR458      0.1957
     63  OH       -37.3140  196.2390  -71.5320 O.3   458  TYR458     -0.2866
     64  N        -31.8970  199.9550  -67.8590 N.3   479  ASP479     -0.1225
     65  CA       -32.4180  198.8960  -67.0020 C.3   479  ASP479      0.1805
     66  C        -33.9440  198.8800  -66.9820 C.2   479  ASP479      0.2598
     67  O        -34.5550  197.8070  -67.0390 O.2   479  ASP479     -0.2718
     68  CB       -31.8610  199.0430  -65.5830 C.3   479  ASP479      0.1424
     69  CG       -30.4000  198.6270  -65.4790 C.2   479  ASP479      0.3668
     70  OD1      -29.8860  198.0000  -66.4310 O.co2 479  ASP479     -0.2456
     71  OD2      -29.7650  198.9240  -64.4430 O.co2 479  ASP479     -0.2456
     72  N        -34.5770  200.0520  -66.9120 N.am  480  SER480     -0.1952
     73  CA       -36.0260  200.1280  -66.7700 C.3   480  SER480      0.1924
     74  C        -36.7600  200.3520  -68.0850 C.2   480  SER480      0.2314
     75  O        -37.9450  200.0130  -68.1780 O.2   480  SER480     -0.2863
     76  CB       -36.4040  201.2450  -65.7880 C.3   480  SER480      0.2116
     77  OG       -35.8690  202.4910  -66.1950 O.3   480  SER480     -0.2180
@<TRIPOS>BOND
     1     4     3    2
     2     3     2    1
     3     1     2    1
     4     2     5    1
     5    25    24    1
     6    41    40    2
     7     5     6    1
     8    37    34    1
     9    30    29    2
    10    24    26    1
    11    24    21    1
    12     8     6   ar
    13     8    10   ar
    14    34    35    1
    15    34    33    1
    16    54    53    1
    17    54    55    2
    18     6     7   ar
    19    40    39    1
    20    38    39    1
    21    38    35   am
    22    53    56    1
    23    53    52    1
    24    58    60   ar
    25    58    57   ar
    26    29    33   am
    27    29    28    1
    28    21    22    1
    29    21    20    1
    30    56    57    1
    31    39    42    1
    32    35    36    2
    33    27    22   am
    34    27    28    1
    35    42    43    1
    36    60    62   ar
    37    10     9   ar
    38    50    48    1
    39    57    59   ar
    40     7     9   ar
    41    22    23    2
    42    28    31    1
    43    20    13   am
    44    14    13    2
    45    13    12    1
    46    48    45    1
    47    48    49    1
    48    62    63    1
    49    62    61   ar
    50    45    46    1
    51    45    44    1
    52    31    32    1
    53    59    61   ar
    54    11    12    1
    55    46    47    2
    56    12    15    1
    57    51    49    1
    58    15    16    1
    59    16    17    1
    60    75    74    2
    61    17    18    2
    62    17    19   am
    63    74    73    1
    64    64    65    1
    65    67    66    2
    66    65    66    1
    67    65    68    1
    68    66    72   am
    69    72    73    1
    70    73    76    1
    71    70    69   ar
    72    77    76    1
    73    68    69    1
    74    69    71   ar
