@<TRIPOS>MOLECULE
tmp/5t9uB01.pdb
 150 141 0 0 0
SMALL
GASTEIGER

@<TRIPOS>ATOM
      1  N         65.8470   62.2360   50.3010 N.3    54  ARG54      -0.1245
      2  CA        66.8620   61.4590   51.0010 C.3    54  ARG54       0.1563
      3  C         66.3420   60.0680   51.3190 C.2    54  ARG54       0.2260
      4  O         65.3450   59.9110   52.0320 O.2    54  ARG54      -0.2867
      5  CB        67.3160   62.1650   52.2970 C.3    54  ARG54       0.0307
      6  CG        68.6330   61.6030   52.8650 C.3    54  ARG54       0.0489
      7  CD        69.1770   62.4010   54.0610 C.3    54  ARG54       0.2205
      8  NE        69.4730   63.8030   53.7270 N.pl3  54  ARG54      -0.0865
      9  CZ        68.8080   64.8400   54.2400 C.cat  54  ARG54       0.5346
     10  NH1       67.8390   64.6390   55.1260 N.pl3  54  ARG54       0.1354
     11  NH2       69.1140   66.0820   53.8860 N.pl3  54  ARG54       0.1354
     12  N         67.8680   56.3250   52.6560 N.3    56  ILE56      -0.1245
     13  CA        68.9960   55.5400   53.1370 C.3    56  ILE56       0.1561
     14  C         68.5170   54.1390   53.4500 C.2    56  ILE56       0.2260
     15  O         67.8010   53.9420   54.4340 O.2    56  ILE56      -0.2867
     16  CB        69.6460   56.1770   54.3830 C.3    56  ILE56       0.0252
     17  CG1       70.1470   57.5880   54.0540 C.3    56  ILE56       0.0019
     18  CG2       70.7930   55.3060   54.9020 C.3    56  ILE56       0.0019
     19  CD1       70.5580   58.4150   55.2680 C.3    56  ILE56       0.0001
     20  N         67.4710   52.2870   56.7360 N.3    59  PHE59      -0.1227
     21  CA        67.2370   53.3420   57.7190 C.3    59  PHE59       0.1736
     22  C         65.8630   53.9920   57.4910 C.2    59  PHE59       0.2595
     23  O         64.9460   53.7580   58.2740 O.2    59  PHE59      -0.2718
     24  CB        68.4290   54.3330   57.6760 C.3    59  PHE59       0.0547
     25  CG        68.3320   55.5110   58.6340 C.ar   59  PHE59      -0.0202
     26  CD1       67.4510   55.5160   59.7150 C.ar   59  PHE59      -0.0042
     27  CD2       69.2370   56.5690   58.5040 C.ar   59  PHE59      -0.0042
     28  CE1       67.4000   56.6040   60.5790 C.ar   59  PHE59      -0.0003
     29  CE2       69.2130   57.6530   59.3740 C.ar   59  PHE59      -0.0003
     30  CZ        68.3060   57.6860   60.4130 C.ar   59  PHE59      -0.0000
     31  N         65.7040   54.7410   56.4050 N.am   60  MET60      -0.1979
     32  CA        64.5150   55.5790   56.2470 C.3    60  MET60       0.1605
     33  C         64.3520   56.2940   54.9200 C.2    60  MET60       0.2287
     34  O         65.3190   56.4730   54.1900 O.2    60  MET60      -0.2864
     35  CB        64.5220   56.6100   57.3390 C.3    60  MET60       0.0413
     36  CG        65.7530   57.4410   57.2090 C.3    60  MET60       0.0598
     37  SD        65.3910   59.1560   57.2460 S.3    60  MET60      -0.1393
     38  CE        65.1140   59.3530   55.5950 C.3    60  MET60       0.0692
     39  N         62.9260   59.9830   53.4290 N.3    62  GLN62      -0.1245
     40  CA        62.5240   61.3220   53.8390 C.3    62  GLN62       0.1566
     41  C         61.9980   62.1200   52.6460 C.2    62  GLN62       0.2260
     42  O         62.5990   62.1050   51.5680 O.2    62  GLN62      -0.2867
     43  CB        63.6890   62.0750   54.4850 C.3    62  GLN62       0.0367
     44  CG        63.3520   63.4620   55.0450 C.3    62  GLN62       0.0905
     45  CD        64.5110   64.0440   55.8590 C.2    62  GLN62       0.2608
     46  OE1       65.5060   63.3590   56.1380 O.2    62  GLN62      -0.2717
     47  NE2       64.3910   65.3080   56.2330 N.am   62  GLN62      -0.0878
     48  N         64.3700   71.1510   47.6970 N.3    70  ASN70      -0.1225
     49  CA        65.7940   70.8220   47.8070 C.3    70  ASN70       0.1785
     50  C         66.2200   70.2430   49.1680 C.2    70  ASN70       0.2598
     51  O         67.4070   70.0700   49.4240 O.2    70  ASN70      -0.2718
     52  CB        66.6490   72.0550   47.4770 C.3    70  ASN70       0.1169
     53  CG        66.5200   73.1770   48.5050 C.2    70  ASN70       0.2627
     54  OD1       65.8300   73.0630   49.5310 O.2    70  ASN70      -0.2716
     55  ND2       67.1970   74.2840   48.2230 N.am   70  ASN70      -0.0877
     56  N         65.2570   69.9410   50.0330 N.am   71  GLY71      -0.1942
     57  CA        65.5650   69.3040   51.3000 C.3    71  GLY71       0.2014
     58  C         65.6430   70.2600   52.4770 C.2    71  GLY71       0.2640
     59  O         65.7670   69.8270   53.6270 O.2    71  GLY71      -0.2714
     60  N         65.5640   71.5570   52.2030 N.am   72  THR72      -0.1936
     61  CA        65.6290   72.5520   53.2580 C.3    72  THR72       0.2028
     62  C         64.2670   73.1480   53.5690 C.2    72  THR72       0.2642
     63  O         64.0900   73.8100   54.5940 O.2    72  THR72      -0.2714
     64  CB        66.5850   73.7120   52.8890 C.3    72  THR72       0.1808
     65  OG1       66.0250   74.4600   51.8020 O.3    72  THR72      -0.2208
     66  CG2       67.9420   73.1690   52.4710 C.3    72  THR72       0.0379
     67  N         63.2960   72.9300   52.6880 N.am   73  GLY73      -0.1954
     68  CA        62.0350   73.6480   52.8100 C.3    73  GLY73       0.1869
     69  C         60.8780   72.9150   53.4610 C.2    73  GLY73       0.2309
     70  O         61.0430   71.9180   54.1770 O.2    73  GLY73      -0.2863
     71  N         60.2630   64.8850   60.5120 N.3   100  ALA100     -0.1231
     72  CA        61.6060   65.4240   60.4580 C.3   100  ALA100      0.1694
     73  C         61.6130   66.7890   61.1480 C.2   100  ALA100      0.2592
     74  O         60.5690   67.4320   61.2630 O.2   100  ALA100     -0.2718
     75  CB        62.0810   65.5330   59.0170 C.3   100  ALA100      0.0304
     76  N         62.7750   67.2360   61.6180 N.am  101  ASN101     -0.1960
     77  CA        62.8610   68.5820   62.2000 C.3   101  ASN101      0.1819
     78  C         64.2810   69.1610   62.1750 C.2   101  ASN101      0.2621
     79  O         65.2370   68.5120   61.7030 O.2   101  ASN101     -0.2715
     80  CB        62.3200   68.5920   63.6430 C.3   101  ASN101      0.1195
     81  CG        63.1030   67.6800   64.5680 C.2   101  ASN101      0.2630
     82  OD1       64.3070   67.8690   64.7560 O.2   101  ASN101     -0.2716
     83  ND2       62.4210   66.6980   65.1700 N.am  101  ASN101     -0.0877
     84  N         64.3980   70.3860   62.6850 N.am  102  ALA102     -0.1977
     85  CA        65.6730   71.0930   62.7500 C.3   102  ALA102      0.1597
     86  C         66.0330   71.4670   64.1890 C.2   102  ALA102      0.2287
     87  O         66.6280   72.5150   64.4370 O.2   102  ALA102     -0.2864
     88  CB        65.6220   72.3340   61.8900 C.3   102  ALA102      0.0319
     89  N         60.3040   72.3140   65.8850 N.3   106  THR106     -0.1218
     90  CA        60.4550   72.9060   64.5610 C.3   106  THR106      0.1862
     91  C         59.7960   72.0440   63.4750 C.2   106  THR106      0.2287
     92  O         60.3000   71.9370   62.3490 O.2   106  THR106     -0.2866
     93  CB        61.9490   73.1300   64.2050 C.3   106  THR106      0.1770
     94  OG1       62.6620   71.8740   64.2040 O.3   106  THR106     -0.2211
     95  CG2       62.5910   74.0990   65.2030 C.3   106  THR106      0.0375
     96  N         58.2090   68.2770   56.4470 N.3   110  GLN110     -0.1245
     97  CA        59.0730   67.1310   56.1560 C.3   110  GLN110      0.1566
     98  C         58.8300   66.0130   57.1520 C.2   110  GLN110      0.2260
     99  O         58.5590   66.2530   58.3240 O.2   110  GLN110     -0.2867
    100  CB        60.5530   67.5320   56.1410 C.3   110  GLN110      0.0367
    101  CG        60.9370   68.3670   54.9190 C.3   110  GLN110      0.0905
    102  CD        62.4420   68.4730   54.7230 C.2   110  GLN110      0.2608
    103  OE1       63.1660   67.4720   54.7770 O.2   110  GLN110     -0.2717
    104  NE2       62.9220   69.6900   54.5000 N.am  110  GLN110     -0.0878
    105  N         59.5290   61.3680   57.6600 N.3   112  PHE112     -0.1241
    106  CA        60.2470   60.2110   57.1270 C.3   112  PHE112      0.1605
    107  C         59.5070   58.9120   57.4580 C.2   112  PHE112      0.2264
    108  O         58.7290   58.8310   58.4050 O.2   112  PHE112     -0.2867
    109  CB        61.7360   60.1810   57.6280 C.3   112  PHE112      0.0534
    110  CG        61.8780   60.0960   59.1320 C.ar  112  PHE112     -0.0203
    111  CD1       61.7410   61.2260   59.9250 C.ar  112  PHE112     -0.0042
    112  CD2       62.1470   58.8820   59.7520 C.ar  112  PHE112     -0.0042
    113  CE1       61.8600   61.1460   61.3140 C.ar  112  PHE112     -0.0003
    114  CE2       62.2690   58.7930   61.1430 C.ar  112  PHE112     -0.0003
    115  CZ        62.1350   59.9260   61.9230 C.ar  112  PHE112     -0.0000
    116  N         65.9760   57.1590   67.5390 N.3   121  LEU121     -0.1245
    117  CA        65.2650   58.3820   67.1630 C.3   121  LEU121      0.1561
    118  C         64.1590   58.6900   68.1810 C.2   121  LEU121      0.2260
    119  O         63.6260   59.8010   68.2040 O.2   121  LEU121     -0.2867
    120  CB        64.6740   58.2600   65.7580 C.3   121  LEU121      0.0270
    121  CG        65.7320   58.2600   64.6330 C.3   121  LEU121      0.0019
    122  CD1       65.0910   58.2050   63.2550 C.3   121  LEU121      0.0001
    123  CD2       66.6320   59.4660   64.7210 C.3   121  LEU121      0.0001
    124  N         63.3770   62.1100   69.8050 N.3   124  LYS124     -0.1231
    125  CA        64.0020   63.1050   68.9310 C.3   124  LYS124      0.1693
    126  C         63.0550   63.5530   67.8020 C.2   124  LYS124      0.2592
    127  O         63.2350   64.6170   67.2030 O.2   124  LYS124     -0.2718
    128  CB        65.3070   62.5590   68.3110 C.3   124  LYS124      0.0285
    129  CG        66.3230   61.9670   69.2980 C.3   124  LYS124      0.0035
    130  CD        67.7560   62.1370   68.7660 C.3   124  LYS124      0.0206
    131  CE        68.7160   61.0060   69.1540 C.3   124  LYS124      0.1093
    132  NZ        68.5890   60.6050   70.5500 N.3   124  LYS124     -0.1314
    133  N         62.0640   62.7200   67.5130 N.am  125  HIS125     -0.1976
    134  CA        61.1310   62.9570   66.4190 C.3   125  HIS125      0.1656
    135  C         59.7480   62.4900   66.8330 C.2   125  HIS125      0.2291
    136  O         59.6220   61.4080   67.3980 O.2   125  HIS125     -0.2864
    137  CB        61.5590   62.2180   65.1450 C.3   125  HIS125      0.0771
    138  CG        62.8970   62.6180   64.6240 C.ar  125  HIS125      0.0820
    139  ND1       63.0760   63.7040   63.7860 N.ar  125  HIS125     -0.2267
    140  CD2       64.1240   62.0610   64.7790 C.ar  125  HIS125      0.1154
    141  CE1       64.3530   63.8120   63.4770 C.ar  125  HIS125      0.1986
    142  NE2       65.0130   62.8200   64.0600 N.ar  125  HIS125     -0.2212
    143  N         74.6650   57.4000   51.6260 N.3   148  ASN148     -0.1240
    144  CA        74.6550   58.8110   52.0160 C.3   148  ASN148      0.1653
    145  C         73.2630   59.4550   51.9100 C.2   148  ASN148      0.2266
    146  O         73.0000   60.4810   52.5390 O.2   148  ASN148     -0.2867
    147  CB        75.6450   59.6110   51.1750 C.3   148  ASN148      0.1155
    148  CG        75.2040   59.7510   49.7450 C.2   148  ASN148      0.2627
    149  OD1       74.3720   60.6060   49.4190 O.2   148  ASN148     -0.2716
    150  ND2       75.7600   58.9190   48.8730 N.am  148  ASN148     -0.0877
@<TRIPOS>BOND
     1    52    49    1
     2    52    53    1
     3    48    49    1
     4    49    50    1
     5    55    53   am
     6    53    54    2
     7   150   148   am
     8    50    51    2
     9    50    56   am
    10   149   148    2
    11   148   147    1
    12    56    57    1
    13     1     2    1
    14     2     3    1
    15     2     5    1
    16   147   144    1
    17    57    58    1
    18     3     4    2
    19    42    41    2
    20   143   144    1
    21    65    64    1
    22   145   144    1
    23   145   146    2
    24    60    58   am
    25    60    61    1
    26     5     6    1
    27    66    64    1
    28    58    59    2
    29    41    40    1
    30    12    13    1
    31    67    68    1
    32    67    62   am
    33    68    69    1
    34     6     7    1
    35    64    61    1
    36    13    14    1
    37    13    16    1
    38    61    62    1
    39    39    40    1
    40    14    15    2
    41    69    70    2
    42    62    63    2
    43     8     7    1
    44     8     9    2
    45    40    43    1
    46    11     9    1
    47    17    16    1
    48    17    19    1
    49    34    33    2
    50     9    10    1
    51    16    18    1
    52    43    44    1
    53   104   102   am
    54   102   103    2
    55   102   101    1
    56   101   100    1
    57    33    32    1
    58    44    45    1
    59    38    37    1
    60    45    46    2
    61    45    47   am
    62   100    97    1
    63    97    96    1
    64    97    98    1
    65    32    31    1
    66    32    35    1
    67    31    22   am
    68    20    21    1
    69   106   107    1
    70   106   109    1
    71   106   105    1
    72    98    99    2
    73    36    37    1
    74    36    35    1
    75   107   108    2
    76    22    21    1
    77    22    23    2
    78   109   110    1
    79    24    21    1
    80    24    25    1
    81    27    25   ar
    82    27    29   ar
    83    25    26   ar
    84    75    72    1
    85   110   112   ar
    86   110   111   ar
    87    29    30   ar
    88    26    28   ar
    89   112   114   ar
    90   111   113   ar
    91    30    28   ar
    92    72    71    1
    93    72    73    1
    94   114   115   ar
    95    73    74    2
    96    73    76   am
    97   113   115   ar
    98    76    77    1
    99    79    78    2
   100    88    85    1
   101    78    77    1
   102    78    84   am
   103    77    80    1
   104    92    91    2
   105    84    85    1
   106    85    86    1
   107   122   121    1
   108    91    90    1
   109   141   139   ar
   110   141   142   ar
   111    80    81    1
   112   139   138   ar
   113   142   140   ar
   114    86    87    2
   115    94    93    1
   116    93    90    1
   117    93    95    1
   118    90    89    1
   119    81    82    2
   120    81    83   am
   121   138   140   ar
   122   138   137    1
   123   121   123    1
   124   121   120    1
   125   137   134    1
   126   120   117    1
   127   134   135    1
   128   134   133    1
   129   135   136    2
   130   117   116    1
   131   117   118    1
   132   127   126    2
   133   133   126   am
   134   126   125    1
   135   118   119    2
   136   128   125    1
   137   128   129    1
   138   130   131    1
   139   130   129    1
   140   125   124    1
   141   131   132    1
