@<TRIPOS>MOLECULE
tmp/5t9wA00.pdb
 161 152 0 0 0
SMALL
GASTEIGER

@<TRIPOS>ATOM
      1  N         12.3730  -14.1610   -6.7640 N.3    53  HIS53      -0.1226
      2  CA        11.2980  -14.1880   -7.7510 C.3    53  HIS53       0.1752
      3  C          9.9420  -13.7640   -7.1790 C.2    53  HIS53       0.2595
      4  O          9.0210  -13.4220   -7.9220 O.2    53  HIS53      -0.2718
      5  CB        11.2130  -15.5650   -8.4160 C.3    53  HIS53       0.0759
      6  CG        10.9230  -16.6850   -7.4650 C.ar   53  HIS53       0.0818
      7  ND1       11.9020  -17.3060   -6.7240 N.ar   53  HIS53      -0.2268
      8  CD2        9.7560  -17.3000   -7.1500 C.ar   53  HIS53       0.1154
      9  CE1       11.3530  -18.2590   -5.9840 C.ar   53  HIS53       0.1986
     10  NE2       10.0570  -18.2770   -6.2260 N.ar   53  HIS53      -0.2212
     11  N          9.8200  -13.7750   -5.8570 N.am   54  ARG54      -0.1980
     12  CA         8.5640  -13.4080   -5.2390 C.3    54  ARG54       0.1597
     13  C          8.8220  -12.5860   -3.9850 C.2    54  ARG54       0.2287
     14  O          9.4520  -13.0580   -3.0430 O.2    54  ARG54      -0.2864
     15  CB         7.7350  -14.6570   -4.9070 C.3    54  ARG54       0.0334
     16  CG         6.3220  -14.3150   -4.4360 C.3    54  ARG54       0.0492
     17  CD         5.4620  -15.5530   -4.2330 C.3    54  ARG54       0.2205
     18  NE         5.3910  -16.3770   -5.4350 N.pl3  54  ARG54      -0.0865
     19  CZ         5.8460  -17.6230   -5.5060 C.cat  54  ARG54       0.5346
     20  NH1        6.3900  -18.1830   -4.4390 N.pl3  54  ARG54       0.1354
     21  NH2        5.7540  -18.3140   -6.6360 N.pl3  54  ARG54       0.1354
     22  N          6.6360  -10.2450   -1.3260 N.3    56  ILE56      -0.1245
     23  CA         5.3260   -9.7870   -0.8830 C.3    56  ILE56       0.1561
     24  C          5.5170   -8.9320    0.3600 C.2    56  ILE56       0.2260
     25  O          5.8500   -9.4450    1.4400 O.2    56  ILE56      -0.2867
     26  CB         4.3730  -10.9800   -0.6120 C.3    56  ILE56       0.0252
     27  CG1        4.1640  -11.7850   -1.8990 C.3    56  ILE56       0.0019
     28  CG2        3.0120  -10.4860   -0.0320 C.3    56  ILE56       0.0019
     29  CD1        3.2960  -13.0160   -1.7420 C.3    56  ILE56       0.0001
     30  N          5.1360   -9.7830    4.3560 N.3    59  PHE59      -0.1227
     31  CA         5.1020  -11.2360    4.5180 C.3    59  PHE59       0.1736
     32  C          6.5100  -11.8400    4.4160 C.2    59  PHE59       0.2595
     33  O          7.1080  -12.2290    5.4280 O.2    59  PHE59      -0.2718
     34  CB         4.1660  -11.8420    3.4600 C.3    59  PHE59       0.0547
     35  CG         3.9270  -13.3160    3.6120 C.ar   59  PHE59      -0.0202
     36  CD1        4.0750  -13.9470    4.8430 C.ar   59  PHE59      -0.0042
     37  CD2        3.5410  -14.0760    2.5140 C.ar   59  PHE59      -0.0042
     38  CE1        3.8440  -15.3180    4.9710 C.ar   59  PHE59      -0.0003
     39  CE2        3.3050  -15.4430    2.6350 C.ar   59  PHE59      -0.0003
     40  CZ         3.4600  -16.0660    3.8630 C.ar   59  PHE59      -0.0000
     41  N          7.0440  -11.9170    3.1990 N.am   60  MET60      -0.1979
     42  CA         8.3610  -12.5250    2.9920 C.3    60  MET60       0.1605
     43  C          8.9560  -12.2570    1.6140 C.2    60  MET60       0.2287
     44  O          8.2480  -11.8390    0.6930 O.2    60  MET60      -0.2864
     45  CB         8.2910  -14.0380    3.2310 C.3    60  MET60       0.0413
     46  CG         7.3120  -14.7730    2.3260 C.3    60  MET60       0.0598
     47  SD         8.0680  -15.2510    0.7510 S.3    60  MET60      -0.1393
     48  CE         6.9440  -14.5150   -0.4330 C.3    60  MET60       0.0692
     49  N         11.1000  -14.4370   -1.2410 N.3    62  GLN62      -0.1245
     50  CA        11.4580  -15.8100   -1.6040 C.3    62  GLN62       0.1566
     51  C         12.4390  -15.8800   -2.7710 C.2    62  GLN62       0.2260
     52  O         12.2890  -15.1630   -3.7640 O.2    62  GLN62      -0.2867
     53  CB        10.1900  -16.5960   -1.9470 C.3    62  GLN62       0.0367
     54  CG        10.4320  -18.0490   -2.3570 C.3    62  GLN62       0.0905
     55  CD         9.1250  -18.8030   -2.5660 C.2    62  GLN62       0.2608
     56  OE1        8.0610  -18.2970   -2.2310 O.2    62  GLN62      -0.2717
     57  NE2        9.2010  -20.0070   -3.1290 N.am   62  GLN62      -0.0878
     58  N         10.9670  -19.5670  -10.1980 N.3    71  GLY71      -0.1210
     59  CA        10.2840  -20.0690   -9.0220 C.3    71  GLY71       0.1956
     60  C          9.8620  -21.5220   -9.1260 C.2    71  GLY71       0.2613
     61  O          9.3180  -22.0730   -8.1700 O.2    71  GLY71      -0.2717
     62  N         10.1230  -22.1570  -10.2660 N.am   72  THR72      -0.1938
     63  CA         9.7650  -23.5600  -10.4280 C.3    72  THR72       0.2028
     64  C         10.9300  -24.5020  -10.1580 C.2    72  THR72       0.2642
     65  O         10.7300  -25.7090   -9.9850 O.2    72  THR72      -0.2714
     66  CB         9.2410  -23.8690  -11.8530 C.3    72  THR72       0.1808
     67  OG1       10.2700  -23.5940  -12.8150 O.3    72  THR72      -0.2208
     68  CG2        7.9950  -23.0430  -12.1700 C.3    72  THR72       0.0379
     69  N         12.1460  -23.9610  -10.1220 N.am   73  GLY73      -0.1954
     70  CA        13.3350  -24.7950  -10.0950 C.3    73  GLY73       0.1869
     71  C         14.1410  -24.7660   -8.8100 C.2    73  GLY73       0.2309
     72  O         13.6130  -24.5400   -7.7210 O.2    73  GLY73      -0.2863
     73  N         15.4650  -33.8700   -3.7950 N.3    81  LYS81      -0.1245
     74  CA        14.7950  -33.1240   -2.7290 C.3    81  LYS81       0.1561
     75  C         15.0010  -33.8850   -1.4200 C.2    81  LYS81       0.2260
     76  O         15.1230  -35.1140   -1.4260 O.2    81  LYS81      -0.2867
     77  CB        13.3050  -32.9640   -3.0350 C.3    81  LYS81       0.0271
     78  CG        13.0100  -32.2280   -4.3440 C.3    81  LYS81       0.0035
     79  CD        13.4610  -30.7720   -4.2790 C.3    81  LYS81       0.0206
     80  CE        13.1430  -30.0040   -5.5690 C.3    81  LYS81       0.1093
     81  NZ        14.1810  -30.1930   -6.6310 N.3    81  LYS81      -0.1314
     82  N         11.2870  -22.9750    1.5590 N.3   100  ALA100     -0.1231
     83  CA        10.1160  -23.0930    0.6990 C.3   100  ALA100      0.1694
     84  C          9.9780  -24.5550    0.2970 C.2   100  ALA100      0.2592
     85  O         10.9630  -25.2760    0.2510 O.2   100  ALA100     -0.2718
     86  CB        10.2870  -22.2200   -0.5440 C.3   100  ALA100      0.0304
     87  N          8.7640  -25.0050    0.0180 N.am  101  ASN101     -0.1960
     88  CA         8.5900  -26.3890   -0.3930 C.3   101  ASN101      0.1819
     89  C          7.2710  -26.6220   -1.1240 C.2   101  ASN101      0.2621
     90  O          6.4260  -25.7260   -1.2090 O.2   101  ASN101     -0.2715
     91  CB         8.7230  -27.3410    0.8050 C.3   101  ASN101      0.1195
     92  CG         7.5830  -27.1990    1.8000 C.2   101  ASN101      0.2630
     93  OD1        6.4140  -27.3820    1.4530 O.2   101  ASN101     -0.2716
     94  ND2        7.9200  -26.8970    3.0520 N.am  101  ASN101     -0.0877
     95  N          7.1100  -27.8320   -1.6490 N.am  102  ALA102     -0.1977
     96  CA         5.9180  -28.2090   -2.3970 C.3   102  ALA102      0.1597
     97  C          5.1670  -29.3240   -1.6740 C.2   102  ALA102      0.2287
     98  O          4.5990  -30.2130   -2.3020 O.2   102  ALA102     -0.2864
     99  CB         6.3090  -28.6530   -3.8150 C.3   102  ALA102      0.0319
    100  N          9.9850  -32.0830    0.6510 N.3   106  THR106     -0.1218
    101  CA        10.3360  -31.7270   -0.7190 C.3   106  THR106      0.1862
    102  C         11.2630  -30.5140   -0.7350 C.2   106  THR106      0.2287
    103  O         11.1520  -29.6500   -1.5990 O.2   106  THR106     -0.2866
    104  CB         9.0810  -31.4230   -1.5720 C.3   106  THR106      0.1770
    105  OG1        8.3790  -30.3130   -1.0050 O.3   106  THR106     -0.2211
    106  CG2        8.1480  -32.6250   -1.6320 C.3   106  THR106      0.0375
    107  N         15.0780  -23.5300   -2.8270 N.3   110  GLN110     -0.1245
    108  CA        14.2650  -22.3370   -2.5710 C.3   110  GLN110      0.1566
    109  C         14.0270  -22.0760   -1.0780 C.2   110  GLN110      0.2260
    110  O         13.7530  -22.9960   -0.3000 O.2   110  GLN110     -0.2867
    111  CB        12.9450  -22.4090   -3.3340 C.3   110  GLN110      0.0367
    112  CG        13.1110  -22.2430   -4.8450 C.3   110  GLN110      0.0905
    113  CD        11.7820  -22.0700   -5.5560 C.2   110  GLN110      0.2608
    114  OE1       10.9310  -21.3040   -5.1150 O.2   110  GLN110     -0.2717
    115  NE2       11.5990  -22.7840   -6.6610 N.am  110  GLN110     -0.0878
    116  N         12.8600  -18.6840    1.9350 N.3   112  PHE112     -0.1241
    117  CA        12.2870  -17.3550    2.0740 C.3   112  PHE112      0.1605
    118  C         12.7810  -16.6570    3.3310 C.2   112  PHE112      0.2264
    119  O         13.2200  -17.3080    4.2850 O.2   112  PHE112     -0.2867
    120  CB        10.7450  -17.3910    2.0240 C.3   112  PHE112      0.0534
    121  CG        10.1050  -18.2080    3.1180 C.ar  112  PHE112     -0.0203
    122  CD1        9.9810  -19.5860    2.9940 C.ar  112  PHE112     -0.0042
    123  CD2        9.5890  -17.5920    4.2510 C.ar  112  PHE112     -0.0042
    124  CE1        9.3700  -20.3380    3.9890 C.ar  112  PHE112     -0.0003
    125  CE2        8.9670  -18.3400    5.2570 C.ar  112  PHE112     -0.0003
    126  CZ         8.8630  -19.7130    5.1280 C.ar  112  PHE112     -0.0000
    127  N          3.2320  -20.5570    9.6600 N.3   121  LEU121     -0.1245
    128  CA         4.1300  -21.4030    8.8720 C.3   121  LEU121      0.1561
    129  C          4.8210  -22.4930    9.7020 C.2   121  LEU121      0.2260
    130  O          5.4420  -23.3930    9.1460 O.2   121  LEU121     -0.2867
    131  CB         5.1750  -20.5580    8.1310 C.3   121  LEU121      0.0270
    132  CG         4.5930  -19.4460    7.2550 C.3   121  LEU121      0.0019
    133  CD1        5.6950  -18.7340    6.4620 C.3   121  LEU121      0.0001
    134  CD2        3.5240  -19.9960    6.3240 C.3   121  LEU121      0.0001
    135  N          5.2440  -26.4500    8.9920 N.3   124  LYS124     -0.1231
    136  CA         5.0980  -26.6640    7.5530 C.3   124  LYS124      0.1693
    137  C          6.4030  -26.3590    6.8170 C.2   124  LYS124      0.2592
    138  O          6.7730  -27.0460    5.8600 O.2   124  LYS124     -0.2718
    139  CB         3.9480  -25.8060    6.9980 C.3   124  LYS124      0.0285
    140  CG         3.7820  -25.8430    5.4730 C.3   124  LYS124      0.0035
    141  CD         2.6110  -24.9510    5.0460 C.3   124  LYS124      0.0206
    142  CE         2.4740  -24.8710    3.5420 C.3   124  LYS124      0.1093
    143  NZ         2.2500  -26.2060    2.9210 N.3   124  LYS124     -0.1314
    144  N          7.0980  -25.3220    7.2740 N.am  125  HIS125     -0.1976
    145  CA         8.3540  -24.9030    6.6570 C.3   125  HIS125      0.1656
    146  C          9.4740  -24.9950    7.6690 C.2   125  HIS125      0.2291
    147  O          9.3410  -24.5120    8.7940 O.2   125  HIS125     -0.2864
    148  CB         8.2320  -23.4720    6.1220 C.3   125  HIS125      0.0771
    149  CG         7.2030  -23.3300    5.0510 C.ar  125  HIS125      0.0820
    150  ND1        7.4810  -23.5530    3.7120 N.ar  125  HIS125     -0.2267
    151  CD2        5.8830  -23.0300    5.1090 C.ar  125  HIS125      0.1154
    152  CE1        6.3880  -23.3710    3.0020 C.ar  125  HIS125      0.1986
    153  NE2        5.3960  -23.0570    3.8250 N.ar  125  HIS125     -0.2212
    154  N          0.8080   -9.4430   -5.2160 N.3   148  ASN148     -0.1240
    155  CA         0.8610  -10.7940   -5.7650 C.3   148  ASN148      0.1653
    156  C          2.2740  -11.3870   -5.8240 C.2   148  ASN148      0.2266
    157  O          2.4480  -12.5500   -6.1800 O.2   148  ASN148     -0.2867
    158  CB         0.1300  -10.8990   -7.1190 C.3   148  ASN148      0.1155
    159  CG         0.9740  -10.4370   -8.3010 C.2   148  ASN148      0.2627
    160  OD1        2.1240  -10.0340   -8.1500 O.2   148  ASN148     -0.2716
    161  ND2        0.3990  -10.5230   -9.4970 N.am  148  ASN148     -0.0877
@<TRIPOS>BOND
     1    67    66    1
     2    68    66    1
     3    66    63    1
     4    63    62    1
     5    63    64    1
     6    62    60   am
     7    58    59    1
     8    64    69   am
     9    64    65    2
    10    69    70    1
    11    70    71    1
    12   161   159   am
    13    60    59    1
    14    60    61    2
    15    71    72    2
    16     5     2    1
    17     5     6    1
    18   159   160    2
    19   159   158    1
    20     4     3    2
    21     2     3    1
    22     2     1    1
    23     6     8   ar
    24     6     7   ar
    25     3    11   am
    26     8    10   ar
    27   158   155    1
    28     7     9   ar
    29   115   113   am
    30    21    19    1
    31    81    80    1
    32    10     9   ar
    33   157   156    2
    34    11    12    1
    35   156   155    1
    36   155   154    1
    37    80    79    1
    38   113   114    2
    39   113   112    1
    40    19    18    2
    41    19    20    1
    42    18    17    1
    43    12    15    1
    44    12    13    1
    45    15    16    1
    46   112   111    1
    47    16    17    1
    48    78    79    1
    49    78    77    1
    50    13    14    2
    51    99    96    1
    52    73    74    1
    53    52    51    2
    54   111   108    1
    55    57    55   am
    56    77    74    1
    57   107   108    1
    58    51    50    1
    59    74    75    1
    60   108   109    1
    61    55    54    1
    62    55    56    2
    63    96    97    1
    64    96    95    1
    65    54    53    1
    66    98    97    2
    67    53    50    1
    68    27    29    1
    69    27    26    1
    70    95    89   am
    71   106   104    1
    72    50    49    1
    73   103   102    2
    74   104   105    1
    75   104   101    1
    76    76    75    2
    77    22    23    1
    78    90    89    2
    79    89    88    1
    80   109   110    2
    81    23    26    1
    82    23    24    1
    83   102   101    1
    84   101   100    1
    85    26    28    1
    86    86    83    1
    87    48    47    1
    88    88    87    1
    89    88    91    1
    90    87    84   am
    91    85    84    2
    92    84    83    1
    93    24    25    2
    94    44    43    2
    95    83    82    1
    96    47    46    1
    97    91    92    1
    98    93    92    2
    99    43    42    1
   100    92    94   am
   101   116   117    1
   102   120   117    1
   103   120   121    1
   104   117   118    1
   105    46    45    1
   106    37    39   ar
   107    37    35   ar
   108    39    40   ar
   109   143   142    1
   110    42    41    1
   111    42    45    1
   112   122   121   ar
   113   122   124   ar
   114   152   150   ar
   115   152   153   ar
   116   121   123   ar
   117    41    32   am
   118   118   119    2
   119    34    35    1
   120    34    31    1
   121   142   141    1
   122    35    36   ar
   123   150   149   ar
   124   153   151   ar
   125    40    38   ar
   126   124   126   ar
   127   123   125   ar
   128    30    31    1
   129    32    31    1
   130    32    33    2
   131    36    38   ar
   132   141   140    1
   133   149   151   ar
   134   149   148    1
   135   126   125   ar
   136   140   139    1
   137   138   137    2
   138   148   145    1
   139   134   132    1
   140   133   132    1
   141   145   144    1
   142   145   146    1
   143   137   144   am
   144   137   136    1
   145   139   136    1
   146   132   131    1
   147   136   135    1
   148   146   147    2
   149   131   128    1
   150   128   127    1
   151   128   129    1
   152   130   129    2
