@<TRIPOS>MOLECULE
tmp/5ta0A01.pdb
 110 105 0 0 0
SMALL
GASTEIGER

@<TRIPOS>ATOM
      1  N        -17.7320  -70.9100   -8.1040 N.3    29  HIS29      -0.1241
      2  CA       -16.7170  -70.6840   -7.0640 C.3    29  HIS29       0.1621
      3  C        -16.3100  -72.0250   -6.4810 C.2    29  HIS29       0.2264
      4  O        -16.7090  -72.3820   -5.3780 O.2    29  HIS29      -0.2867
      5  CB       -17.2980  -69.7380   -6.0060 C.3    29  HIS29       0.0745
      6  CG       -16.2970  -69.1900   -5.0350 C.ar   29  HIS29       0.0817
      7  ND1      -15.5150  -69.9790   -4.2170 N.ar   29  HIS29      -0.2268
      8  CD2      -15.9280  -67.9160   -4.7800 C.ar   29  HIS29       0.1154
      9  CE1      -14.7310  -69.2110   -3.4810 C.ar   29  HIS29       0.1986
     10  NE2      -14.9860  -67.9590   -3.7880 N.ar   29  HIS29      -0.2212
     11  N        -12.2830  -70.2970   -7.8270 N.3    60  ARG60      -0.1245
     12  CA       -11.6980  -69.4410   -6.7930 C.3    60  ARG60       0.1563
     13  C        -11.5740  -70.2570   -5.5380 C.2    60  ARG60       0.2260
     14  O        -12.4190  -71.1340   -5.2810 O.2    60  ARG60      -0.2867
     15  CB       -12.5850  -68.2060   -6.5520 C.3    60  ARG60       0.0307
     16  CG       -12.0940  -67.2060   -5.5080 C.3    60  ARG60       0.0489
     17  CD       -12.8240  -65.8930   -5.6980 C.3    60  ARG60       0.2205
     18  NE       -12.4290  -64.7980   -4.8060 N.pl3  60  ARG60      -0.0865
     19  CZ       -13.0140  -64.4770   -3.6550 C.cat  60  ARG60       0.5346
     20  NH1      -12.6520  -63.3680   -3.0230 N.pl3  60  ARG60       0.1354
     21  NH2      -13.9740  -65.2140   -3.1470 N.pl3  60  ARG60       0.1354
     22  N         -9.9430  -70.0090   -1.3070 N.3    62  THR62      -0.1203
     23  CA        -9.2850  -69.3140   -0.1980 C.3    62  THR62       0.1994
     24  C         -8.9600  -70.2040    0.9860 C.2    62  THR62       0.2618
     25  O         -8.2170  -69.8150    1.8820 O.2    62  THR62      -0.2717
     26  CB       -10.1290  -68.1450    0.3180 C.3    62  THR62       0.1784
     27  OG1      -11.2340  -68.6620    1.0660 O.3    62  THR62      -0.2211
     28  CG2      -10.6190  -67.2530   -0.8060 C.3    62  THR62       0.0376
     29  N         -9.5160  -71.4000    1.0420 N.am   63  GLY63      -0.1956
     30  CA        -9.3750  -72.2430    2.2170 C.3    63  GLY63       0.1869
     31  C         -8.0300  -72.9180    2.3750 C.2    63  GLY63       0.2309
     32  O         -7.5440  -73.0440    3.5040 O.2    63  GLY63      -0.2863
     33  N         -8.6320  -64.9080    2.8130 N.3   118  GLN118     -0.1245
     34  CA        -9.6420  -64.3990    3.7520 C.3   118  GLN118      0.1566
     35  C         -8.9980  -63.3540    4.6700 C.2   118  GLN118      0.2260
     36  O         -7.7770  -63.2870    4.8170 O.2   118  GLN118     -0.2867
     37  CB       -10.2270  -65.5380    4.5640 C.3   118  GLN118      0.0367
     38  CG       -11.0610  -66.4890    3.7390 C.3   118  GLN118      0.0905
     39  CD       -11.5510  -67.6700    4.5320 C.2   118  GLN118      0.2608
     40  OE1      -11.9840  -67.5330    5.7060 O.2   118  GLN118     -0.2717
     41  NE2      -11.4540  -68.8490    3.9400 N.am  118  GLN118     -0.0878
     42  N         -9.9140  -60.6660    0.9380 N.3   179  ASN179     -0.1225
     43  CA       -11.3610  -60.6800    0.7440 C.3   179  ASN179      0.1785
     44  C        -12.1180  -59.6940    1.6440 C.2   179  ASN179      0.2597
     45  O        -11.9690  -59.7390    2.8690 O.2   179  ASN179     -0.2718
     46  CB       -11.8740  -62.0910    1.0310 C.3   179  ASN179      0.1169
     47  CG       -13.3240  -62.2760    0.6830 C.2   179  ASN179      0.2627
     48  OD1      -13.6990  -62.2410   -0.4790 O.2   179  ASN179     -0.2716
     49  ND2      -14.1680  -62.5030    1.7030 N.am  179  ASN179     -0.0877
     50  N        -12.9170  -58.7900    1.0540 N.am  180  GLU180     -0.1979
     51  CA       -13.8640  -57.9290    1.7910 C.3   180  GLU180      0.1602
     52  C        -13.2640  -57.2890    3.0500 C.2   180  GLU180      0.2287
     53  O        -13.7870  -57.4090    4.1640 O.2   180  GLU180     -0.2864
     54  CB       -15.1230  -58.7380    2.1160 C.3   180  GLU180      0.0415
     55  CG       -15.8180  -59.2480    0.8580 C.3   180  GLU180      0.1163
     56  CD       -17.1780  -59.8590    1.0650 C.2   180  GLU180      0.3649
     57  OE1      -17.4870  -60.2420    2.2050 O.co2 180  GLU180     -0.2457
     58  OE2      -17.8950  -60.0000    0.0380 O.co2 180  GLU180     -0.2457
     59  N        -17.3020  -62.3700   -6.7050 N.3   302  GLN302     -0.1245
     60  CA       -18.5590  -62.9100   -6.1360 C.3   302  GLN302      0.1566
     61  C        -19.7020  -62.0080   -6.5570 C.2   302  GLN302      0.2260
     62  O        -19.6120  -60.7970   -6.3490 O.2   302  GLN302     -0.2867
     63  CB       -18.5560  -62.9310   -4.6090 C.3   302  GLN302      0.0367
     64  CG       -17.5580  -63.8860   -3.9560 C.3   302  GLN302      0.0905
     65  CD       -17.5500  -63.7920   -2.4380 C.2   302  GLN302      0.2608
     66  OE1      -18.5620  -63.3860   -1.7920 O.2   302  GLN302     -0.2717
     67  NE2      -16.4470  -64.1790   -1.8470 N.am  302  GLN302     -0.0878
     68  N        -21.5480  -66.3510   -7.2370 N.3   347  PHE347     -0.1241
     69  CA       -21.2410  -66.9630   -5.9580 C.3   347  PHE347      0.1605
     70  C        -22.1310  -68.1740   -5.7320 C.2   347  PHE347      0.2264
     71  O        -23.2210  -68.1070   -5.1820 O.2   347  PHE347     -0.2867
     72  CB       -21.2680  -66.0040   -4.7790 C.3   347  PHE347      0.0534
     73  CG       -20.7110  -66.6360   -3.5440 C.ar  347  PHE347     -0.0203
     74  CD1      -19.4060  -67.1390   -3.5400 C.ar  347  PHE347     -0.0042
     75  CD2      -21.5000  -66.8310   -2.4190 C.ar  347  PHE347     -0.0042
     76  CE1      -18.8820  -67.7540   -2.4240 C.ar  347  PHE347     -0.0003
     77  CE2      -20.9660  -67.4310   -1.2890 C.ar  347  PHE347     -0.0003
     78  CZ       -19.6610  -67.9160   -1.2970 C.ar  347  PHE347     -0.0000
     79  N        -21.0150  -72.2130   -4.6340 N.3   349  MET349     -0.1245
     80  CA       -19.9640  -73.1870   -4.3020 C.3   349  MET349      0.1570
     81  C        -20.4830  -74.5770   -4.6160 C.2   349  MET349      0.2261
     82  O        -21.6970  -74.7640   -4.7670 O.2   349  MET349     -0.2867
     83  CB       -19.5790  -73.0290   -2.8490 C.3   349  MET349      0.0387
     84  CG       -18.9720  -71.6520   -2.5690 C.3   349  MET349      0.0595
     85  SD       -18.1910  -71.4710   -0.9490 S.3   349  MET349     -0.1393
     86  CE       -16.6710  -72.3600   -1.2750 C.3   349  MET349      0.0692
     87  N        -18.4530  -77.9540    5.1110 N.3   354  TRP354     -0.1241
     88  CA       -17.8910  -77.1990    6.2400 C.3   354  TRP354      0.1605
     89  C        -18.7960  -76.0580    6.7220 C.2   354  TRP354      0.2264
     90  O        -18.6540  -75.5890    7.8520 O.2   354  TRP354     -0.2867
     91  CB       -16.4820  -76.6080    5.8930 C.3   354  TRP354      0.0550
     92  CG       -16.4870  -75.7820    4.6460 C.ar  354  TRP354      0.0003
     93  CD1      -16.0480  -76.1810    3.3940 C.ar  354  TRP354      0.0946
     94  CD2      -16.9670  -74.4380    4.4790 C.ar  354  TRP354      0.0152
     95  NE1      -16.2500  -75.1910    2.5030 N.ar  354  TRP354     -0.2442
     96  CE2      -16.8150  -74.1130    3.1130 C.ar  354  TRP354      0.0810
     97  CE3      -17.5200  -73.4820    5.3360 C.ar  354  TRP354      0.0012
     98  CZ2      -17.1810  -72.8630    2.6020 C.ar  354  TRP354      0.0191
     99  CZ3      -17.9020  -72.2340    4.8150 C.ar  354  TRP354      0.0001
    100  CH2      -17.7230  -71.9500    3.4550 C.ar  354  TRP354      0.0015
    101  N        -25.0290  -74.2430    4.0440 N.3   364  HIS364     -0.1241
    102  CA       -24.5250  -73.1090    3.2860 C.3   364  HIS364      0.1621
    103  C        -25.6080  -72.6180    2.3170 C.2   364  HIS364      0.2264
    104  O        -26.2910  -73.4150    1.6760 O.2   364  HIS364     -0.2867
    105  CB       -23.2610  -73.5330    2.5320 C.3   364  HIS364      0.0745
    106  CG       -22.4870  -72.4010    1.9560 C.ar  364  HIS364      0.0817
    107  ND1      -22.8490  -71.7810    0.7820 N.ar  364  HIS364     -0.2268
    108  CD2      -21.3580  -71.7900    2.3760 C.ar  364  HIS364      0.1154
    109  CE1      -21.9500  -70.8550    0.4860 C.ar  364  HIS364      0.1986
    110  NE2      -21.0590  -70.8150    1.4570 N.ar  364  HIS364     -0.2212
@<TRIPOS>BOND
     1     1     2    1
     2    11    12    1
     3    68    69    1
     4     2     3    1
     5     2     5    1
     6    12    15    1
     7    12    13    1
     8    59    60    1
     9    61    62    2
    10    61    60    1
    11    15    16    1
    12     3     4    2
    13    60    63    1
    14     5     6    1
    15    69    70    1
    16    69    72    1
    17    70    71    2
    18    17    16    1
    19    17    18    1
    20    13    14    2
    21     6     8   ar
    22     6     7   ar
    23    18    19    2
    24     8    10   ar
    25    72    73    1
    26    82    81    2
    27    79    80    1
    28    81    80    1
    29    63    64    1
    30    80    83    1
    31     7     9   ar
    32    64    65    1
    33    10     9   ar
    34    19    21    1
    35    19    20    1
    36    73    74   ar
    37    73    75   ar
    38    74    76   ar
    39    83    84    1
    40    84    85    1
    41    65    67   am
    42    65    66    2
    43    76    78   ar
    44    75    77   ar
    45    22    23    1
    46    78    77   ar
    47    86    85    1
    48    28    26    1
    49    48    47    2
    50    23    26    1
    51    23    24    1
    52    58    56   ar
    53    26    27    1
    54   109   107   ar
    55   109   110   ar
    56    47    46    1
    57    47    49   am
    58    43    42    1
    59    43    46    1
    60    43    44    1
    61   107   106   ar
    62    55    56    1
    63    55    54    1
    64    24    29   am
    65    24    25    2
    66    29    30    1
    67    50    44   am
    68    50    51    1
    69    56    57   ar
    70   110   108   ar
    71    44    45    2
    72   104   103    2
    73    51    54    1
    74    51    52    1
    75   106   108   ar
    76   106   105    1
    77    30    31    1
    78   103   102    1
    79    31    32    2
    80    95    96   ar
    81    95    93   ar
    82   105   102    1
    83    98    96   ar
    84    98   100   ar
    85    33    34    1
    86    52    53    2
    87    96    94   ar
    88   102   101    1
    89    93    92   ar
    90   100    99   ar
    91    38    39    1
    92    38    37    1
    93    34    37    1
    94    34    35    1
    95    41    39   am
    96    94    92   ar
    97    94    97   ar
    98    39    40    2
    99    92    91    1
   100    35    36    2
   101    99    97   ar
   102    87    88    1
   103    91    88    1
   104    88    89    1
   105    89    90    2
