@<TRIPOS>MOLECULE
tmp/5ta2A00.pdb
 143 134 0 0 0
SMALL
GASTEIGER

@<TRIPOS>ATOM
      1  N         13.2150   -0.1660   20.7710 N.3    54  ARG54      -0.1245
      2  CA        14.5590   -0.7230   20.7750 C.3    54  ARG54       0.1563
      3  C         15.5250    0.2950   20.1880 C.2    54  ARG54       0.2260
      4  O         15.4380    0.6360   19.0140 O.2    54  ARG54      -0.2867
      5  CB        14.6100   -2.0400   19.9850 C.3    54  ARG54       0.0307
      6  CG        15.9110   -2.8270   20.1560 C.3    54  ARG54       0.0489
      7  CD        15.8640   -4.1860   19.4590 C.3    54  ARG54       0.2205
      8  NE        14.8910   -5.0910   20.0740 N.pl3  54  ARG54      -0.0865
      9  CZ        13.8970   -5.6850   19.4250 C.cat  54  ARG54       0.5346
     10  NH1       13.7370   -5.5020   18.1210 N.pl3  54  ARG54       0.1354
     11  NH2       13.0700   -6.4820   20.0820 N.pl3  54  ARG54       0.1354
     12  N         19.6220    0.8900   19.9620 N.3    56  ILE56      -0.1245
     13  CA        20.9550    0.3460   20.1890 C.3    56  ILE56       0.1561
     14  C         21.9800    1.3260   19.6320 C.2    56  ILE56       0.2260
     15  O         22.1190    1.4600   18.4160 O.2    56  ILE56      -0.2867
     16  CB        21.1100   -1.0460   19.5390 C.3    56  ILE56       0.0252
     17  CG1       20.0770   -2.0130   20.1320 C.3    56  ILE56       0.0019
     18  CG2       22.5230   -1.5670   19.7390 C.3    56  ILE56       0.0019
     19  CD1       19.9710   -3.3500   19.4000 C.3    56  ILE56       0.0001
     20  N         24.0420    1.4410   16.1910 N.3    59  PHE59      -0.1227
     21  CA        23.3860    0.4880   15.2980 C.3    59  PHE59       0.1736
     22  C         22.1270    1.1030   14.6720 C.2    59  PHE59       0.2595
     23  O         22.1390    1.5200   13.5080 O.2    59  PHE59      -0.2718
     24  CB        23.0530   -0.7940   16.0800 C.3    59  PHE59       0.0547
     25  CG        22.4710   -1.9290   15.2460 C.ar   59  PHE59      -0.0202
     26  CD1       22.6480   -1.9940   13.8780 C.ar   59  PHE59      -0.0042
     27  CD2       21.7370   -2.9260   15.8630 C.ar   59  PHE59      -0.0042
     28  CE1       22.1230   -3.0630   13.1340 C.ar   59  PHE59      -0.0003
     29  CE2       21.1770   -3.9810   15.1310 C.ar   59  PHE59      -0.0003
     30  CZ        21.3760   -4.0390   13.7650 C.ar   59  PHE59      -0.0000
     31  N         21.0500    1.1310   15.4430 N.am   60  MET60      -0.1979
     32  CA        19.7780    1.5980   14.9090 C.3    60  MET60       0.1605
     33  C         18.7540    1.9520   15.9910 C.2    60  MET60       0.2287
     34  O         18.9240    1.5570   17.1000 O.2    60  MET60      -0.2864
     35  CB        19.2120    0.5480   13.8980 C.3    60  MET60       0.0413
     36  CG        18.9630   -0.8320   14.4970 C.3    60  MET60       0.0598
     37  SD        17.2080   -0.8620   15.2580 S.3    60  MET60      -0.1393
     38  CE        17.5970   -1.4670   17.0000 C.3    60  MET60       0.0692
     39  N         14.5860    1.4900   16.5310 N.3    62  GLN62      -0.1245
     40  CA        13.4470    0.7550   15.9840 C.3    62  GLN62       0.1566
     41  C         12.1280    1.1620   16.6480 C.2    62  GLN62       0.2260
     42  O         12.0530    1.2950   17.8670 O.2    62  GLN62      -0.2867
     43  CB        13.6770   -0.7500   16.1440 C.3    62  GLN62       0.0367
     44  CG        12.5220   -1.6240   15.6590 C.3    62  GLN62       0.0905
     45  CD        12.8560   -3.0940   15.7710 C.2    62  GLN62       0.2608
     46  OE1       14.0070   -3.4550   16.0450 O.2    62  GLN62      -0.2717
     47  NE2       11.8680   -3.9520   15.5480 N.am   62  GLN62      -0.0878
     48  N          4.4380   -3.7560   22.4810 N.3    70  ASN70      -0.1225
     49  CA         5.4040   -4.6140   23.1650 C.3    70  ASN70       0.1785
     50  C          6.4790   -5.1460   22.2220 C.2    70  ASN70       0.2598
     51  O          7.1450   -6.1380   22.5210 O.2    70  ASN70      -0.2718
     52  CB         4.6910   -5.7760   23.8710 C.3    70  ASN70       0.1169
     53  CG         4.0720   -6.7790   22.9030 C.2    70  ASN70       0.2627
     54  OD1        4.1830   -6.6500   21.6840 O.2    70  ASN70      -0.2716
     55  ND2        3.4260   -7.8010   23.4550 N.am   70  ASN70      -0.0877
     56  N          6.6310   -4.4870   21.0770 N.am   71  GLY71      -0.1942
     57  CA         7.6600   -4.8540   20.1200 C.3    71  GLY71       0.2014
     58  C          7.2920   -5.9870   19.1830 C.2    71  GLY71       0.2640
     59  O          8.0870   -6.3740   18.3280 O.2    71  GLY71      -0.2714
     60  N          6.0860   -6.5290   19.3250 N.am   72  THR72      -0.1936
     61  CA         5.6950   -7.6440   18.4720 C.3    72  THR72       0.2028
     62  C          4.6190   -7.2420   17.4690 C.2    72  THR72       0.2642
     63  O          4.3280   -7.9860   16.5330 O.2    72  THR72      -0.2714
     64  CB         5.1770   -8.8450   19.2990 C.3    72  THR72       0.1808
     65  OG1        3.9130   -8.5180   19.8900 O.3    72  THR72      -0.2208
     66  CG2        6.1670   -9.2050   20.3970 C.3    72  THR72       0.0379
     67  N          4.0410   -6.0600   17.6580 N.am   73  GLY73      -0.1954
     68  CA         2.8520   -5.6910   16.9110 C.3    73  GLY73       0.1869
     69  C          3.0280   -4.7040   15.7740 C.2    73  GLY73       0.2309
     70  O          4.1270   -4.5300   15.2220 O.2    73  GLY73      -0.2863
     71  N          0.2300   -8.1040    7.0760 N.3    81  LYS81      -0.1245
     72  CA         1.6050   -8.0710    6.5710 C.3    81  LYS81       0.1561
     73  C          1.6450   -8.0150    5.0480 C.2    81  LYS81       0.2260
     74  O          0.6850   -8.4210    4.3870 O.2    81  LYS81      -0.2867
     75  CB         2.3940   -9.2900    7.0600 C.3    81  LYS81       0.0271
     76  CG         2.5010   -9.4230    8.5700 C.3    81  LYS81       0.0035
     77  CD         3.0460   -8.1610    9.2240 C.3    81  LYS81       0.0206
     78  CE         3.4340   -8.4150   10.6780 C.3    81  LYS81       0.1093
     79  NZ         2.3080   -8.9830   11.4790 N.3    81  LYS81      -0.1314
     80  N         11.4710   -3.2730    9.5060 N.3   100  ALA100     -0.1231
     81  CA        11.7060   -4.3690   10.4360 C.3   100  ALA100      0.1694
     82  C         10.8400   -5.5470   10.0030 C.2   100  ALA100      0.2592
     83  O          9.8320   -5.3550    9.3390 O.2   100  ALA100     -0.2718
     84  CB        11.3850   -3.9440   11.8540 C.3   100  ALA100      0.0304
     85  N         11.2300   -6.7640   10.3530 N.am  101  ASN101     -0.1960
     86  CA        10.4010   -7.9180    9.9990 C.3   101  ASN101      0.1819
     87  C         10.7560   -9.1500   10.8150 C.2   101  ASN101      0.2621
     88  O         11.6870   -9.1220   11.6240 O.2   101  ASN101     -0.2715
     89  CB        10.5040   -8.2210    8.4920 C.3   101  ASN101      0.1195
     90  CG        11.8880   -8.6600    8.0610 C.2   101  ASN101      0.2630
     91  OD1       12.4840   -9.5570    8.6510 O.2   101  ASN101     -0.2716
     92  ND2       12.4050   -8.0240    7.0200 N.am  101  ASN101     -0.0877
     93  N         10.0110  -10.2320   10.5960 N.am  102  ALA102     -0.1977
     94  CA        10.2570  -11.4860   11.2960 C.3   102  ALA102      0.1597
     95  C         10.5810  -12.5860   10.2950 C.2   102  ALA102      0.2287
     96  O         10.2270  -13.7520   10.4970 O.2   102  ALA102     -0.2864
     97  CB         9.0540  -11.8680   12.1430 C.3   102  ALA102      0.0319
     98  N          6.4040   -1.8640   11.5990 N.3   110  GLN110     -0.1245
     99  CA         7.6590   -1.6120   12.3020 C.3   110  GLN110      0.1566
    100  C          8.7910   -1.2970   11.3360 C.2   110  GLN110      0.2260
    101  O          8.8910   -1.8720   10.2500 O.2   110  GLN110     -0.2867
    102  CB         8.0390   -2.7900   13.1980 C.3   110  GLN110      0.0367
    103  CG         7.2430   -2.8360   14.4940 C.3   110  GLN110      0.0905
    104  CD         7.8100   -3.8360   15.4790 C.2   110  GLN110      0.2608
    105  OE1        9.0150   -3.8320   15.7590 O.2   110  GLN110     -0.2717
    106  NE2        6.9500   -4.6970   16.0180 N.am  110  GLN110     -0.0878
    107  N         13.0550    0.6980   11.1600 N.3   112  PHE112     -0.1241
    108  CA        14.2100    1.1540   11.9220 C.3   112  PHE112      0.1605
    109  C         15.0070    2.1990   11.1570 C.2   112  PHE112      0.2264
    110  O         14.9780    2.2600    9.9210 O.2   112  PHE112     -0.2867
    111  CB        15.1090   -0.0240   12.3520 C.3   112  PHE112      0.0534
    112  CG        15.6790   -0.8380   11.2210 C.ar  112  PHE112     -0.0203
    113  CD1       14.9110   -1.7900   10.5750 C.ar  112  PHE112     -0.0042
    114  CD2       17.0060   -0.7000   10.8530 C.ar  112  PHE112     -0.0042
    115  CE1       15.4440   -2.5640    9.5540 C.ar  112  PHE112     -0.0003
    116  CE2       17.5500   -1.4740    9.8430 C.ar  112  PHE112     -0.0003
    117  CZ        16.7610   -2.4140    9.1920 C.ar  112  PHE112     -0.0000
    118  N         22.2860   -6.6130    6.7800 N.3   121  LEU121     -0.1245
    119  CA        20.8280   -6.5760    6.6550 C.3   121  LEU121      0.1561
    120  C         20.3680   -6.4400    5.2010 C.2   121  LEU121      0.2260
    121  O         19.1680   -6.5530    4.9140 O.2   121  LEU121     -0.2867
    122  CB        20.2500   -5.4340    7.4940 C.3   121  LEU121      0.0270
    123  CG        20.6200   -5.4960    8.9780 C.3   121  LEU121      0.0019
    124  CD1       19.9890   -4.3430    9.7270 C.3   121  LEU121      0.0001
    125  CD2       20.1960   -6.8270    9.5950 C.3   121  LEU121      0.0001
    126  N         16.0860   -6.8730    4.8000 N.3   125  HIS125     -0.1241
    127  CA        15.1640   -5.8030    5.1650 C.3   125  HIS125      0.1621
    128  C         15.0380   -4.8330    4.0020 C.2   125  HIS125      0.2264
    129  O         16.0360   -4.4860    3.3790 O.2   125  HIS125     -0.2867
    130  CB        15.6460   -5.0810    6.4270 C.3   125  HIS125      0.0745
    131  CG        15.6910   -5.9600    7.6380 C.ar  125  HIS125      0.0817
    132  ND1       14.6570   -6.0290    8.5440 N.ar  125  HIS125     -0.2268
    133  CD2       16.6370   -6.8270    8.0750 C.ar  125  HIS125      0.1154
    134  CE1       14.9660   -6.8940    9.4960 C.ar  125  HIS125      0.1986
    135  NE2       16.1660   -7.3850    9.2390 N.ar  125  HIS125     -0.2212
    136  N         21.4090   -3.8570   24.7630 N.3   148  ASN148     -0.1240
    137  CA        20.3850   -4.7980   24.3280 C.3   148  ASN148      0.1653
    138  C         19.1480   -4.1090   23.7660 C.2   148  ASN148      0.2266
    139  O         18.2240   -4.7800   23.3070 O.2   148  ASN148     -0.2867
    140  CB        19.9870   -5.7240   25.4750 C.3   148  ASN148      0.1155
    141  CG        21.1070   -6.6700   25.8720 C.2   148  ASN148      0.2627
    142  OD1       22.1110   -6.7910   25.1720 O.2   148  ASN148     -0.2716
    143  ND2       20.9230   -7.3620   26.9830 N.am  148  ASN148     -0.0877
@<TRIPOS>BOND
     1   129   128    2
     2   128   127    1
     3    74    73    2
     4   126   127    1
     5   121   120    2
     6    73    72    1
     7   127   130    1
     8   120   119    1
     9   130   131    1
    10    72    75    1
    11    72    71    1
    12   119   118    1
    13   119   122    1
    14    92    90   am
    15    75    76    1
    16   122   123    1
    17   131   133   ar
    18   131   132   ar
    19    90    89    1
    20    90    91    2
    21   133   135   ar
    22    89    86    1
    23   132   134   ar
    24    76    77    1
    25   123   125    1
    26   123   124    1
    27   117   115   ar
    28   117   116   ar
    29    77    78    1
    30   135   134   ar
    31    83    82    2
    32    80    81    1
    33   115   113   ar
    34   116   114   ar
    35   110   109    2
    36    86    85    1
    37    86    87    1
    38    82    85   am
    39    82    81    1
    40   101   100    2
    41    95    96    2
    42    95    94    1
    43    81    84    1
    44   113   112   ar
    45    93    87   am
    46    93    94    1
    47    78    79    1
    48    87    88    2
    49   114   112   ar
    50   109   108    1
    51   107   108    1
    52   112   111    1
    53    94    97    1
    54   100    99    1
    55    98    99    1
    56   108   111    1
    57    99   102    1
    58    28    30   ar
    59    28    26   ar
    60   102   103    1
    61    23    22    2
    62    30    29   ar
    63    26    25   ar
    64    35    36    1
    65    35    32    1
    66   103   104    1
    67    36    37    1
    68    22    21    1
    69    22    31   am
    70    32    31    1
    71    32    33    1
    72    29    27   ar
    73    70    69    2
    74    25    27   ar
    75    25    24    1
    76    37    38    1
    77    21    24    1
    78    21    20    1
    79   104   105    2
    80   104   106   am
    81    47    45   am
    82    44    45    1
    83    44    43    1
    84    45    46    2
    85    69    68    1
    86    40    43    1
    87    40    39    1
    88    40    41    1
    89    33    34    2
    90    63    62    2
    91    41    42    2
    92    68    67    1
    93    62    67   am
    94    62    61    1
    95    10     9    1
    96    59    58    2
    97    15    14    2
    98    61    64    1
    99    61    60    1
   100     4     3    2
   101    58    60   am
   102    58    57    1
   103    64    65    1
   104    64    66    1
   105    19    17    1
   106     9     8    2
   107     9    11    1
   108     7     8    1
   109     7     6    1
   110    16    18    1
   111    16    17    1
   112    16    13    1
   113    14    13    1
   114    12    13    1
   115     5     6    1
   116     5     2    1
   117    57    56    1
   118     3     2    1
   119     1     2    1
   120    56    50   am
   121    54    53    2
   122    50    51    2
   123    50    49    1
   124    48    49    1
   125    53    55   am
   126    53    52    1
   127    49    52    1
   128   139   138    2
   129   138   137    1
   130   137   136    1
   131   137   140    1
   132   142   141    2
   133   140   141    1
   134   141   143   am
