@<TRIPOS>MOLECULE
tmp/5ta4A00.pdb
 161 152 0 0 0
SMALL
GASTEIGER

@<TRIPOS>ATOM
      1  N          2.4860   13.8240   -6.2500 N.3    54  ARG54      -0.1245
      2  CA         2.6570   12.8220   -5.2070 C.3    54  ARG54       0.1563
      3  C          1.2810   12.3990   -4.7350 C.2    54  ARG54       0.2260
      4  O          0.5100   13.2210   -4.2310 O.2    54  ARG54      -0.2867
      5  CB         3.4940   13.3570   -4.0380 C.3    54  ARG54       0.0307
      6  CG         3.8410   12.2990   -3.0050 C.3    54  ARG54       0.0489
      7  CD         4.8010   12.8270   -1.9300 C.3    54  ARG54       0.2205
      8  NE         6.1120   13.1360   -2.4930 N.pl3  54  ARG54      -0.0865
      9  CZ         6.5890   14.3700   -2.6240 C.cat  54  ARG54       0.5346
     10  NH1        5.8700   15.4120   -2.2120 N.pl3  54  ARG54       0.1354
     11  NH2        7.7910   14.5670   -3.1490 N.pl3  54  ARG54       0.1354
     12  N         -0.5190    9.2710   -2.5410 N.3    56  ILE56      -0.1245
     13  CA        -0.3560    8.1070   -1.6830 C.3    56  ILE56       0.1561
     14  C         -1.7300    7.6060   -1.2390 C.2    56  ILE56       0.2260
     15  O         -2.4080    8.2660   -0.4480 O.2    56  ILE56      -0.2867
     16  CB         0.5140    8.4390   -0.4510 C.3    56  ILE56       0.0252
     17  CG1        1.9260    8.8470   -0.8810 C.3    56  ILE56       0.0019
     18  CG2        0.5600    7.2580    0.5040 C.3    56  ILE56       0.0019
     19  CD1        2.7800    9.4000    0.2460 C.3    56  ILE56       0.0001
     20  N         -3.9050    8.1830    2.1450 N.3    59  PHE59      -0.1227
     21  CA        -3.2440    9.2890    2.8180 C.3    59  PHE59       0.1736
     22  C         -3.6470   10.6270    2.1880 C.2    59  PHE59       0.2595
     23  O         -4.4420   11.3720    2.7680 O.2    59  PHE59      -0.2718
     24  CB        -1.7220    9.0670    2.7700 C.3    59  PHE59       0.0547
     25  CG        -0.8990   10.1050    3.5040 C.ar   59  PHE59      -0.0202
     26  CD1       -1.4600   10.9540    4.4430 C.ar   59  PHE59      -0.0042
     27  CD2        0.4550   10.2120    3.2470 C.ar   59  PHE59      -0.0042
     28  CE1       -0.6840   11.9050    5.0960 C.ar   59  PHE59      -0.0003
     29  CE2        1.2460   11.1460    3.9000 C.ar   59  PHE59      -0.0003
     30  CZ         0.6790   11.9910    4.8260 C.ar   59  PHE59      -0.0000
     31  N         -3.0960   10.9460    1.0200 N.am   60  MET60      -0.1979
     32  CA        -3.4080   12.2260    0.3950 C.3    60  MET60       0.1605
     33  C         -2.9440   12.3170   -1.0510 C.2    60  MET60       0.2287
     34  O         -2.1620   11.4880   -1.5250 O.2    60  MET60      -0.2864
     35  CB        -2.7740   13.3780    1.1860 C.3    60  MET60       0.0413
     36  CG        -1.3520   13.0950    1.5780 C.3    60  MET60       0.0598
     37  SD        -0.3840   14.4910    1.0960 S.3    60  MET60      -0.1393
     38  CE        -0.0690   13.9170   -0.5180 C.3    60  MET60       0.0692
     39  N         -1.1520   15.2750   -3.5080 N.3    62  GLN62      -0.1245
     40  CA        -0.4170   16.5390   -3.4060 C.3    62  GLN62       0.1566
     41  C         -0.1360   17.1180   -4.7830 C.2    62  GLN62       0.2260
     42  O          0.2720   16.3830   -5.6910 O.2    62  GLN62      -0.2867
     43  CB         0.8970   16.3150   -2.6540 C.3    62  GLN62       0.0367
     44  CG         1.7720   17.5420   -2.5220 C.3    62  GLN62       0.0905
     45  CD         3.0460   17.2400   -1.7630 C.2    62  GLN62       0.2608
     46  OE1        3.1850   16.1660   -1.1660 O.2    62  GLN62      -0.2717
     47  NE2        3.9910   18.1780   -1.7860 N.am   62  GLN62      -0.0878
     48  N          8.1850   19.5640  -11.0710 N.3    70  ASN70      -0.1225
     49  CA         8.9520   18.4030  -10.6420 C.3    70  ASN70       0.1785
     50  C          8.8540   18.1480   -9.1430 C.2    70  ASN70       0.2598
     51  O          9.6300   17.3690   -8.5880 O.2    70  ASN70      -0.2718
     52  CB        10.4210   18.5470  -11.0590 C.3    70  ASN70       0.1169
     53  CG        11.1370   19.6900  -10.3590 C.2    70  ASN70       0.2627
     54  OD1       10.6210   20.2990   -9.4250 O.2    70  ASN70      -0.2716
     55  ND2       12.3570   19.9730  -10.8030 N.am   70  ASN70      -0.0877
     56  N          7.9020   18.8120   -8.4940 N.am   71  GLY71      -0.1942
     57  CA         7.6910   18.6270   -7.0690 C.3    71  GLY71       0.2014
     58  C          8.5300   19.5030   -6.1480 C.2    71  GLY71       0.2640
     59  O          8.3390   19.4910   -4.9310 O.2    71  GLY71      -0.2714
     60  N          9.4560   20.2800   -6.7040 N.am   72  THR72      -0.1936
     61  CA        10.3060   21.1300   -5.8660 C.3    72  THR72       0.2028
     62  C          9.9200   22.5960   -5.9340 C.2    72  THR72       0.2642
     63  O         10.4550   23.4190   -5.1930 O.2    72  THR72      -0.2714
     64  CB        11.8120   21.0110   -6.2470 C.3    72  THR72       0.1808
     65  OG1       12.0360   21.6160   -7.5290 O.3    72  THR72      -0.2208
     66  CG2       12.2470   19.5590   -6.2950 C.3    72  THR72       0.0379
     67  N          8.9830   22.9270   -6.8100 N.am   73  GLY73      -0.1954
     68  CA         8.7180   24.3200   -7.0820 C.3    73  GLY73       0.1869
     69  C          7.4340   24.8600   -6.5130 C.2    73  GLY73       0.2309
     70  O          6.7600   24.2310   -5.6910 O.2    73  GLY73      -0.2863
     71  N          1.2080   22.2610    1.6530 N.3   100  ALA100     -0.1231
     72  CA         2.4560   21.5210    1.7140 C.3   100  ALA100      0.1694
     73  C          3.5730   22.4950    2.0960 C.2   100  ALA100      0.2592
     74  O          3.4220   23.6980    1.8960 O.2   100  ALA100     -0.2718
     75  CB         2.7280   20.8400    0.3550 C.3   100  ALA100      0.0304
     76  N          4.6720   21.9990    2.6580 N.am  101  ASN101     -0.1960
     77  CA         5.7770   22.9020    2.9840 C.3   101  ASN101      0.1819
     78  C          7.0690   22.1540    3.2300 C.2   101  ASN101      0.2621
     79  O          7.0890   20.9170    3.2400 O.2   101  ASN101     -0.2715
     80  CB         5.4110   23.7750    4.2060 C.3   101  ASN101      0.1195
     81  CG         5.2460   22.9710    5.4840 C.2   101  ASN101      0.2630
     82  OD1        6.1400   22.2060    5.8810 O.2   101  ASN101     -0.2716
     83  ND2        4.1020   23.1420    6.1470 N.am  101  ASN101     -0.0877
     84  N          8.1370   22.9210    3.4420 N.am  102  ALA102     -0.1977
     85  CA         9.4640   22.3720    3.6850 C.3   102  ALA102      0.1597
     86  C          9.9510   22.7860    5.0620 C.2   102  ALA102      0.2287
     87  O         11.1500   22.9530    5.2810 O.2   102  ALA102     -0.2864
     88  CB        10.4460   22.8440    2.6060 C.3   102  ALA102      0.0319
     89  N          7.1030   28.2480    5.3360 N.3   106  THR106     -0.1218
     90  CA         7.6100   28.1120    3.9770 C.3   106  THR106      0.1862
     91  C          6.5030   27.8060    2.9810 C.2   106  THR106      0.2287
     92  O          6.7410   27.1380    1.9760 O.2   106  THR106     -0.2866
     93  CB         8.6870   27.0050    3.8560 C.3   106  THR106      0.1770
     94  OG1        8.1510   25.7390    4.2750 O.3   106  THR106     -0.2211
     95  CG2        9.9020   27.3420    4.7010 C.3   106  THR106      0.0375
     96  N          2.2420   24.7850   -3.2490 N.3   110  GLN110     -0.1245
     97  CA         1.9200   23.3600   -3.1510 C.3   110  GLN110      0.1566
     98  C          0.9260   23.1050   -2.0250 C.2   110  GLN110      0.2260
     99  O          0.9540   23.7550   -0.9790 O.2   110  GLN110     -0.2867
    100  CB         3.1730   22.5080   -2.9640 C.3   110  GLN110      0.0367
    101  CG         4.0390   22.4280   -4.2190 C.3   110  GLN110      0.0905
    102  CD         5.0850   21.3460   -4.1060 C.2   110  GLN110      0.2608
    103  OE1        4.8180   20.2710   -3.5770 O.2   110  GLN110     -0.2717
    104  NE2        6.2910   21.6260   -4.5990 N.am  110  GLN110     -0.0878
    105  N         -2.1280   19.8830   -0.4450 N.3   112  PHE112     -0.1241
    106  CA        -2.6030   18.5190   -0.5790 C.3   112  PHE112      0.1605
    107  C         -4.0340   18.3600   -0.1250 C.2   112  PHE112      0.2264
    108  O         -4.5600   19.1860    0.6260 O.2   112  PHE112     -0.2867
    109  CB        -1.6810   17.5470    0.1820 C.3   112  PHE112      0.0534
    110  CG        -1.5770   17.8080    1.6560 C.ar  112  PHE112     -0.0203
    111  CD1       -0.7790   18.8470    2.1390 C.ar  112  PHE112     -0.0042
    112  CD2       -2.2400   16.9960    2.5770 C.ar  112  PHE112     -0.0042
    113  CE1       -0.6640   19.0800    3.4980 C.ar  112  PHE112     -0.0003
    114  CE2       -2.1320   17.2400    3.9420 C.ar  112  PHE112     -0.0003
    115  CZ        -1.3360   18.2770    4.4000 C.ar  112  PHE112     -0.0000
    116  N         -0.3470   15.4170   11.1370 N.3   121  LEU121     -0.1245
    117  CA         0.0560   16.6300   10.4370 C.3   121  LEU121      0.1561
    118  C         -0.4450   17.8970   11.1220 C.2   121  LEU121      0.2260
    119  O         -0.0490   19.0000   10.7500 O.2   121  LEU121     -0.2867
    120  CB        -0.4370   16.5920    8.9840 C.3   121  LEU121      0.0270
    121  CG         0.0690   15.4030    8.1780 C.3   121  LEU121      0.0019
    122  CD1       -0.4850   15.4640    6.7550 C.3   121  LEU121      0.0001
    123  CD2        1.5880   15.4110    8.1760 C.3   121  LEU121      0.0001
    124  N          1.5620   21.3120   11.8590 N.3   124  LYS124     -0.1231
    125  CA         2.6990   21.3940   10.9400 C.3   124  LYS124      0.1693
    126  C          2.3100   21.9200    9.5550 C.2   124  LYS124      0.2592
    127  O          3.0910   22.5980    8.8930 O.2   124  LYS124     -0.2718
    128  CB         3.3720   20.0320   10.7880 C.3   124  LYS124      0.0285
    129  CG         4.6870   20.1440   10.0100 C.3   124  LYS124      0.0035
    130  CD         5.3960   18.8120    9.8460 C.3   124  LYS124      0.0206
    131  CE         6.6530   18.9710    8.9870 C.3   124  LYS124      0.1093
    132  NZ         7.6130   19.9530    9.5740 N.3   124  LYS124     -0.1314
    133  N          1.0900   21.6170    9.1350 N.am  125  HIS125     -0.1976
    134  CA         0.5830   22.0740    7.8570 C.3   125  HIS125      0.1656
    135  C         -0.6710   22.8750    8.0940 C.2   125  HIS125      0.2291
    136  O         -1.5230   22.4610    8.8870 O.2   125  HIS125     -0.2864
    137  CB         0.3030   20.8860    6.9480 C.3   125  HIS125      0.0771
    138  CG         1.5280   20.1020    6.6160 C.ar  125  HIS125      0.0820
    139  ND1        2.2910   20.3680    5.5010 N.ar  125  HIS125     -0.2267
    140  CD2        2.1420   19.0840    7.2630 C.ar  125  HIS125      0.1154
    141  CE1        3.3230   19.5400    5.4730 C.ar  125  HIS125      0.1986
    142  NE2        3.2500   18.7460    6.5250 N.ar  125  HIS125     -0.2212
    143  N          2.5250    3.5820   -2.9180 N.3   147  ARG147     -0.1231
    144  CA         2.9320    3.7260   -1.5290 C.3   147  ARG147      0.1694
    145  C          4.0080    4.7900   -1.3180 C.2   147  ARG147      0.2592
    146  O          3.9920    5.4610   -0.2910 O.2   147  ARG147     -0.2718
    147  CB         3.4250    2.3920   -0.9730 C.3   147  ARG147      0.0321
    148  CG         2.3050    1.4340   -0.6300 C.3   147  ARG147      0.0489
    149  CD         2.8660    0.1890    0.0440 C.3   147  ARG147      0.2205
    150  NE         1.8070   -0.6770    0.5510 N.pl3 147  ARG147     -0.0865
    151  CZ         1.1490   -1.5560   -0.1950 C.cat 147  ARG147      0.5346
    152  NH1        1.4420   -1.6840   -1.4820 N.pl3 147  ARG147      0.1354
    153  NH2        0.1980   -2.3050    0.3460 N.pl3 147  ARG147      0.1354
    154  N          4.9180    4.9750   -2.2760 N.am  148  ASN148     -0.1974
    155  CA         5.9360    6.0210   -2.0940 C.3   148  ASN148      0.1688
    156  C          5.5670    7.3450   -2.7650 C.2   148  ASN148      0.2292
    157  O          6.3680    8.2870   -2.7790 O.2   148  ASN148     -0.2864
    158  CB         7.3160    5.5430   -2.5700 C.3   148  ASN148      0.1181
    159  CG         7.4310    5.4240   -4.0810 C.2   148  ASN148      0.2629
    160  OD1        6.4860    5.6710   -4.8320 O.2   148  ASN148     -0.2716
    161  ND2        8.6230    5.0450   -4.5380 N.am  148  ASN148     -0.0877
@<TRIPOS>BOND
     1    48    49    1
     2    52    49    1
     3    52    53    1
     4    55    53   am
     5    49    50    1
     6    53    54    2
     7    50    51    2
     8    50    56   am
     9    56    57    1
    10    65    64    1
    11    68    67    1
    12    68    69    1
    13    57    58    1
    14    67    62   am
    15    60    58   am
    16    60    61    1
    17    69    70    2
    18    66    64    1
    19     1     2    1
    20    64    61    1
    21    58    59    2
    22    62    61    1
    23    62    63    2
    24    42    41    2
    25     2     3    1
    26     2     5    1
    27   160   159    2
    28    41    40    1
    29     3     4    2
    30   104   102   am
    31   161   159   am
    32   101   102    1
    33   101   100    1
    34   102   103    2
    35   159   158    1
    36     5     6    1
    37    39    40    1
    38    40    43    1
    39    96    97    1
    40    97   100    1
    41    97    98    1
    42    11     9    1
    43     6     7    1
    44   143   144    1
    45   157   156    2
    46   156   155    1
    47    43    44    1
    48     9     8    2
    49     9    10    1
    50   158   155    1
    51    12    13    1
    52    44    45    1
    53     8     7    1
    54   154   155    1
    55   154   145   am
    56    98    99    2
    57    47    45   am
    58    45    46    2
    59    13    14    1
    60    13    16    1
    61   144   145    1
    62   144   147    1
    63    34    33    2
    64   152   151    1
    65   145   146    2
    66    14    15    2
    67    33    32    1
    68   147   148    1
    69    17    16    1
    70    17    19    1
    71   148   149    1
    72   106   105    1
    73   106   107    1
    74   106   109    1
    75    38    37    1
    76    16    18    1
    77   151   153    1
    78   151   150    2
    79   107   108    2
    80   149   150    1
    81   109   110    1
    82    75    72    1
    83    32    31    1
    84    32    35    1
    85    31    22   am
    86    37    36    1
    87    35    36    1
    88    71    72    1
    89   110   111   ar
    90   110   112   ar
    91    72    73    1
    92    74    73    2
    93    92    91    2
    94    73    76   am
    95   111   113   ar
    96    20    21    1
    97    22    23    2
    98    22    21    1
    99   112   114   ar
   100    88    85    1
   101    76    77    1
   102    24    21    1
   103    24    25    1
   104    91    90    1
   105    77    78    1
   106    77    80    1
   107    78    79    2
   108    78    84   am
   109    27    25   ar
   110    27    29   ar
   111    84    85    1
   112   113   115   ar
   113    25    26   ar
   114    85    86    1
   115    93    90    1
   116    93    94    1
   117    93    95    1
   118    29    30   ar
   119   114   115   ar
   120    90    89    1
   121    80    81    1
   122    26    28   ar
   123    30    28   ar
   124    86    87    2
   125   141   139   ar
   126   141   142   ar
   127    81    82    2
   128    81    83   am
   129   139   138   ar
   130   142   140   ar
   131   138   137    1
   132   138   140   ar
   133   122   121    1
   134   137   134    1
   135   134   135    1
   136   134   133    1
   137   135   136    2
   138   123   121    1
   139   121   120    1
   140   127   126    2
   141   120   117    1
   142   131   132    1
   143   131   130    1
   144   133   126   am
   145   126   125    1
   146   130   129    1
   147   129   128    1
   148   117   118    1
   149   117   116    1
   150   119   118    2
   151   128   125    1
   152   125   124    1
