@<TRIPOS>MOLECULE
tmp/5ta6A00.pdb
 186 177 0 0 0
SMALL
GASTEIGER

@<TRIPOS>ATOM
      1  N         22.7910   43.3750    9.9970 N.3    21  ARG21      -0.1231
      2  CA        22.4200   44.7930    9.8740 C.3    21  ARG21       0.1694
      3  C         21.3010   45.1910   10.8250 C.2    21  ARG21       0.2592
      4  O         20.2490   44.5550   10.8460 O.2    21  ARG21      -0.2718
      5  CB        21.9650   45.1330    8.4450 C.3    21  ARG21       0.0321
      6  CG        23.0860   45.3240    7.4340 C.3    21  ARG21       0.0489
      7  CD        22.6810   46.2550    6.2930 C.3    21  ARG21       0.2205
      8  NE        21.2840   46.0710    5.8800 N.pl3  21  ARG21      -0.0865
      9  CZ        20.2950   46.9600    6.0340 C.cat  21  ARG21       0.5346
     10  NH1       20.5000   48.1520    6.5920 N.pl3  21  ARG21       0.1354
     11  NH2       19.0730   46.6550    5.6120 N.pl3  21  ARG21       0.1354
     12  N         21.5300   46.2560   11.5890 N.am   22  PHE22      -0.1962
     13  CA        20.4710   46.9130   12.3610 C.3    22  PHE22       0.1771
     14  C         19.3680   47.4310   11.4320 C.2    22  PHE22       0.2619
     15  O         19.6500   47.9790   10.3690 O.2    22  PHE22      -0.2715
     16  CB        21.0600   48.0610   13.1910 C.3    22  PHE22       0.0574
     17  CG        20.0500   48.8020   14.0290 C.ar   22  PHE22      -0.0200
     18  CD1       19.2870   48.1360   14.9760 C.ar   22  PHE22      -0.0042
     19  CD2       19.8860   50.1740   13.8930 C.ar   22  PHE22      -0.0042
     20  CE1       18.3680   48.8200   15.7570 C.ar   22  PHE22      -0.0003
     21  CE2       18.9770   50.8640   14.6740 C.ar   22  PHE22      -0.0003
     22  CZ        18.2210   50.1880   15.6100 C.ar   22  PHE22      -0.0000
     23  N         18.1180   47.2280   11.8410 N.am   23  LEU23      -0.1963
     24  CA        16.9440   47.5910   11.0440 C.3    23  LEU23       0.1728
     25  C         16.1470   48.7530   11.6420 C.2    23  LEU23       0.2617
     26  O         15.4070   49.4220   10.9250 O.2    23  LEU23      -0.2715
     27  CB        16.0000   46.3850   10.9070 C.3    23  LEU23       0.0311
     28  CG        16.4650   45.1310   10.1600 C.3    23  LEU23       0.0022
     29  CD1       15.3500   44.0970   10.1680 C.3    23  LEU23       0.0001
     30  CD2       16.8740   45.4560    8.7350 C.3    23  LEU23       0.0001
     31  N         16.2670   48.9620   12.9530 N.am   24  GLY24      -0.1940
     32  CA        15.5620   50.0440   13.6430 C.3    24  GLY24       0.2014
     33  C         14.8620   49.5670   14.8970 C.2    24  GLY24       0.2639
     34  O         14.8080   48.3640   15.1730 O.2    24  GLY24      -0.2714
     35  N         14.3220   50.5230   15.6510 N.am   25  LYS25      -0.1963
     36  CA        13.5040   50.2330   16.8290 C.3    25  LYS25       0.1728
     37  C         12.1210   49.7210   16.4100 C.2    25  LYS25       0.2616
     38  O         11.6450   50.0130   15.3130 O.2    25  LYS25      -0.2715
     39  CB        13.3480   51.4780   17.7150 C.3    25  LYS25       0.0311
     40  CG        14.3470   51.5920   18.8620 C.3    25  LYS25       0.0038
     41  CD        15.7940   51.5240   18.3920 C.3    25  LYS25       0.0206
     42  CE        16.7480   52.3180   19.2890 C.3    25  LYS25       0.1093
     43  NZ        16.8390   51.8120   20.6890 N.3    25  LYS25      -0.1314
     44  N         11.4950   48.9470   17.2910 N.am   26  GLY26      -0.1955
     45  CA        10.1120   48.4960   17.1170 C.3    26  GLY26       0.1869
     46  C          9.4500   48.4800   18.4830 C.2    26  GLY26       0.2309
     47  O          9.1160   47.4190   19.0060 O.2    26  GLY26      -0.2863
     48  N         15.7770   45.8630   16.2660 N.3    31  CYS31      -0.1235
     49  CA        15.5660   44.8620   15.2260 C.3    31  CYS31       0.1677
     50  C         16.7680   44.7840   14.3000 C.2    31  CYS31       0.2270
     51  O         17.3510   45.8090   13.9680 O.2    31  CYS31      -0.2867
     52  CB        14.3050   45.1810   14.4270 C.3    31  CYS31       0.0956
     53  SG        12.8370   45.4070   15.4560 S.3    31  CYS31      -0.0801
     54  N         18.7460   42.2620   10.9210 N.3    33  GLU33      -0.1245
     55  CA        18.8490   41.1170   10.0280 C.3    33  GLU33       0.1567
     56  C         19.6570   40.0580   10.7740 C.2    33  GLU33       0.2260
     57  O         20.7690   40.3240   11.2240 O.2    33  GLU33      -0.2867
     58  CB        19.5540   41.4770    8.7090 C.3    33  GLU33       0.0388
     59  CG        18.6790   42.2120    7.7010 C.3    33  GLU33       0.1160
     60  CD        19.3680   42.5070    6.3710 C.2    33  GLU33       0.3649
     61  OE1       18.7150   43.1480    5.5230 O.co2  33  GLU33      -0.2457
     62  OE2       20.5440   42.1210    6.1600 O.co2  33  GLU33      -0.2457
     63  N         14.2580   38.4490   10.0200 N.3    44  ALA44      -0.1231
     64  CA        14.2000   39.6680   10.8080 C.3    44  ALA44       0.1694
     65  C         14.1000   39.2700   12.2800 C.2    44  ALA44       0.2593
     66  O         13.2010   38.5160   12.6820 O.2    44  ALA44      -0.2718
     67  CB        13.0130   40.5140   10.3860 C.3    44  ALA44       0.0304
     68  N         15.0360   39.7680   13.0770 N.am   45  GLY45      -0.1942
     69  CA        15.0770   39.4600   14.5060 C.3    45  GLY45       0.2014
     70  C         14.5930   40.6100   15.3640 C.2    45  GLY45       0.2638
     71  O         15.0010   41.7530   15.1720 O.2    45  GLY45      -0.2714
     72  N         13.7150   40.3070   16.3100 N.am   46  LYS46      -0.1977
     73  CA        13.1520   41.3200   17.1930 C.3    46  LYS46       0.1596
     74  C         13.7010   41.0540   18.5950 C.2    46  LYS46       0.2287
     75  O         13.3300   40.0840   19.2390 O.2    46  LYS46      -0.2864
     76  CB        11.6240   41.2530   17.1450 C.3    46  LYS46       0.0298
     77  CG        10.8920   42.3980   17.8290 C.3    46  LYS46       0.0038
     78  CD         9.6860   42.8280   16.9990 C.3    46  LYS46       0.0206
     79  CE         8.6700   43.6200   17.8000 C.3    46  LYS46       0.1093
     80  NZ         7.4830   42.7800   18.0980 N.3    46  LYS46      -0.1314
     81  N          1.2970   38.0360   22.2530 N.3    65  GLU65      -0.1245
     82  CA         1.7540   38.3390   20.9090 C.3    65  GLU65       0.1567
     83  C          2.3260   37.0840   20.2310 C.2    65  GLU65       0.2260
     84  O          1.9270   36.7350   19.1260 O.2    65  GLU65      -0.2867
     85  CB         2.8050   39.4440   20.9560 C.3    65  GLU65       0.0388
     86  CG         3.2690   39.9080   19.5980 C.3    65  GLU65       0.1160
     87  CD         4.2540   41.0450   19.6820 C.2    65  GLU65       0.3649
     88  OE1        4.8160   41.3710   18.6120 O.co2  65  GLU65      -0.2457
     89  OE2        4.4770   41.5900   20.7960 O.co2  65  GLU65      -0.2457
     90  N          0.7850   34.8190   17.2450 N.3    69  HIS69      -0.1241
     91  CA         1.5030   34.8520   15.9870 C.3    69  HIS69       0.1621
     92  C          2.0690   33.4810   15.6040 C.2    69  HIS69       0.2264
     93  O          2.0430   33.0950   14.4380 O.2    69  HIS69      -0.2867
     94  CB         2.6040   35.9060   16.0580 C.3    69  HIS69       0.0745
     95  CG         3.1260   36.3220   14.7240 C.ar   69  HIS69       0.0817
     96  ND1        3.9970   37.3810   14.5660 N.ar   69  HIS69      -0.2268
     97  CD2        2.8950   35.8320   13.4820 C.ar   69  HIS69       0.1154
     98  CE1        4.2980   37.5070   13.2850 C.ar   69  HIS69       0.1986
     99  NE2        3.6410   36.5800   12.6070 N.ar   69  HIS69      -0.2212
    100  N          3.0970   37.8890    8.0450 N.3    78  VAL78      -0.1245
    101  CA         4.5230   37.7650    8.2710 C.3    78  VAL78       0.1561
    102  C          4.8040   36.4010    8.9070 C.2    78  VAL78       0.2260
    103  O          4.2820   36.0890    9.9840 O.2    78  VAL78      -0.2867
    104  CB         5.0390   38.8750    9.2160 C.3    78  VAL78       0.0252
    105  CG1        6.4870   38.6140    9.6030 C.3    78  VAL78       0.0019
    106  CG2        4.9260   40.2420    8.5740 C.3    78  VAL78       0.0019
    107  N         11.4680   36.5220   12.7460 N.3    94  LEU94      -0.1231
    108  CA        10.3430   36.7820   11.8400 C.3    94  LEU94       0.1693
    109  C         10.7910   36.8320   10.3960 C.2    94  LEU94       0.2592
    110  O         11.9820   36.9240   10.1030 O.2    94  LEU94      -0.2718
    111  CB         9.6790   38.1060   12.1840 C.3    94  LEU94       0.0284
    112  CG         9.2240   38.2610   13.6280 C.3    94  LEU94       0.0019
    113  CD1        9.1040   39.7260   13.9960 C.3    94  LEU94       0.0001
    114  CD2        7.9210   37.5270   13.8770 C.3    94  LEU94       0.0001
    115  N          9.8170   36.7770    9.4960 N.am   95  GLU95      -0.1966
    116  CA        10.0870   36.8280    8.0800 C.3    95  GLU95       0.1733
    117  C         10.7030   38.1740    7.7470 C.2    95  GLU95       0.2616
    118  O         10.1760   39.2160    8.1410 O.2    95  GLU95      -0.2715
    119  CB         8.7990   36.6190    7.2800 C.3    95  GLU95       0.0429
    120  CG         9.0590   36.3820    5.7960 C.3    95  GLU95       0.1163
    121  CD         7.8050   36.2380    4.9580 C.2    95  GLU95       0.3649
    122  OE1        7.9440   36.1560    3.7190 O.co2  95  GLU95      -0.2457
    123  OE2        6.6900   36.1960    5.5150 O.co2  95  GLU95      -0.2457
    124  N         11.8340   38.1580    7.0520 N.am   96  LEU96      -0.1963
    125  CA        12.4150   39.4060    6.5570 C.3    96  LEU96       0.1728
    126  C         11.6550   39.8590    5.3030 C.2    96  LEU96       0.2616
    127  O         11.6100   39.1470    4.2950 O.2    96  LEU96      -0.2715
    128  CB        13.9110   39.2570    6.2580 C.3    96  LEU96       0.0311
    129  CG        14.6410   40.5420    5.8290 C.3    96  LEU96       0.0022
    130  CD1       14.6380   41.5970    6.9260 C.3    96  LEU96       0.0001
    131  CD2       16.0720   40.2360    5.4170 C.3    96  LEU96       0.0001
    132  N         11.0550   41.0410    5.3840 N.am   97  CYS97      -0.1954
    133  CA        10.3720   41.6370    4.2550 C.3    97  CYS97       0.1843
    134  C         11.2600   42.7540    3.7150 C.2    97  CYS97       0.2625
    135  O         11.3550   43.8450    4.2940 O.2    97  CYS97      -0.2714
    136  CB         9.0100   42.1410    4.6860 C.3    97  CYS97       0.0997
    137  SG         8.0590   40.8670    5.5280 S.3    97  CYS97      -0.0797
    138  N         11.9330   42.4580    2.6050 N.am   98  ARG98      -0.1977
    139  CA        13.0970   43.2430    2.1960 C.3    98  ARG98       0.1597
    140  C         12.7240   44.5830    1.5980 C.2    98  ARG98       0.2287
    141  O         13.5860   45.4290    1.4080 O.2    98  ARG98      -0.2864
    142  CB        13.9630   42.4530    1.2320 C.3    98  ARG98       0.0334
    143  CG        14.7070   41.3120    1.8990 C.3    98  ARG98       0.0492
    144  CD        15.6020   40.6030    0.9000 C.3    98  ARG98       0.2205
    145  NE        16.5710   39.7170    1.5480 N.pl3  98  ARG98      -0.0865
    146  CZ        17.6780   40.1210    2.1670 C.cat  98  ARG98       0.5346
    147  NH1       17.9760   41.4200    2.2680 N.pl3  98  ARG98       0.1354
    148  NH2       18.4920   39.2160    2.7050 N.pl3  98  ARG98       0.1354
    149  N         10.4860   46.4850    3.0750 N.3   100  ARG100     -0.1245
    150  CA        10.0170   47.2520    4.2120 C.3   100  ARG100      0.1563
    151  C          8.4930   47.2530    4.2760 C.2   100  ARG100      0.2260
    152  O          7.9030   46.1810    4.2710 O.2   100  ARG100     -0.2867
    153  CB        10.6380   48.6450    4.2030 C.3   100  ARG100      0.0307
    154  CG        12.1540   48.5670    4.1020 C.3   100  ARG100      0.0489
    155  CD        12.8070   49.9200    4.1990 C.3   100  ARG100      0.2205
    156  NE        12.6580   50.4580    5.5410 N.pl3 100  ARG100     -0.0865
    157  CZ        13.1150   51.6420    5.9250 C.cat 100  ARG100      0.5346
    158  NH1       13.7660   52.4200    5.0640 N.pl3 100  ARG100      0.1354
    159  NH2       12.9190   52.0450    7.1800 N.pl3 100  ARG100      0.1354
    160  N          2.6830   50.9100    8.4570 N.3   144  GLY144     -0.1225
    161  CA         3.9360   50.4640    9.0390 C.3   144  GLY144      0.1811
    162  C          3.9570   48.9780    9.3580 C.2   144  GLY144      0.2280
    163  O          5.0270   48.3870    9.4840 O.2   144  GLY144     -0.2866
    164  N          3.9580   44.9010    5.6750 N.3   147  PHE147     -0.1241
    165  CA         5.2720   44.7210    5.0940 C.3   147  PHE147      0.1605
    166  C          5.1860   44.1780    3.6640 C.2   147  PHE147      0.2264
    167  O          4.1600   43.6600    3.2300 O.2   147  PHE147     -0.2867
    168  CB         6.1210   43.8170    5.9850 C.3   147  PHE147      0.0534
    169  CG         6.2930   44.3400    7.3830 C.ar  147  PHE147     -0.0203
    170  CD1        5.3790   44.0300    8.3750 C.ar  147  PHE147     -0.0042
    171  CD2        7.3630   45.1480    7.7050 C.ar  147  PHE147     -0.0042
    172  CE1        5.5320   44.5230    9.6650 C.ar  147  PHE147     -0.0003
    173  CE2        7.5170   45.6440    8.9880 C.ar  147  PHE147     -0.0003
    174  CZ         6.6010   45.3300    9.9710 C.ar  147  PHE147     -0.0000
    175  N          2.0710   42.2440    9.7030 N.3   157  GLY157     -0.1210
    176  CA         2.9180   41.9690   10.8400 C.3   157  GLY157      0.1956
    177  C          2.5320   42.7240   12.0940 C.2   157  GLY157      0.2611
    178  O          1.5850   43.5190   12.1170 O.2   157  GLY157     -0.2717
    179  N          3.3030   42.4480   13.1420 N.am  158  ASP158     -0.1973
    180  CA         3.1930   43.0900   14.4450 C.3   158  ASP158      0.1709
    181  C          1.8670   42.8060   15.1180 C.2   158  ASP158      0.2293
    182  O          0.9070   43.5760   15.0310 O.2   158  ASP158     -0.2864
    183  CB         3.4640   44.5920   14.3480 C.3   158  ASP158      0.1436
    184  CG         3.8520   45.2020   15.6830 C.2   158  ASP158      0.3671
    185  OD1        3.6060   44.5840   16.7510 O.co2 158  ASP158     -0.2456
    186  OD2        4.4210   46.3110   15.6570 O.co2 158  ASP158     -0.2456
@<TRIPOS>BOND
     1   144   145    1
     2   144   143    1
     3   142   143    1
     4   142   139    1
     5   141   140    2
     6   145   146    2
     7   140   139    1
     8   146   147    1
     9   146   148    1
    10   139   138    1
    11   138   134   am
    12   149   150    1
    13   167   166    2
    14   166   165    1
    15   134   133    1
    16   134   135    2
    17   122   121   ar
    18   154   155    1
    19   154   153    1
    20   155   156    1
    21   153   150    1
    22   150   151    1
    23   133   136    1
    24   133   132    1
    25   152   151    2
    26   127   126    2
    27   136   137    1
    28   121   123   ar
    29   121   120    1
    30   158   157    1
    31   165   164    1
    32   165   168    1
    33   126   132   am
    34   126   125    1
    35   131   129    1
    36    61    60   ar
    37   156   157    2
    38    11     9    1
    39   120   119    1
    40   129   128    1
    41   129   130    1
    42     8     9    2
    43     8     7    1
    44   157   159    1
    45   168   169    1
    46     9    10    1
    47    62    60   ar
    48   128   125    1
    49     7     6    1
    50    60    59    1
    51   125   124    1
    52   124   117   am
    53   119   116    1
    54   169   171   ar
    55   169   170   ar
    56     6     5    1
    57    59    58    1
    58   171   173   ar
    59   117   116    1
    60   117   118    2
    61   100   101    1
    62   116   115    1
    63   101   102    1
    64   101   104    1
    65   170   172   ar
    66     5     2    1
    67   160   161    1
    68   106   104    1
    69    58    55    1
    70    30    28    1
    71   102   103    2
    72   173   174   ar
    73   161   162    1
    74   104   105    1
    75   162   163    2
    76   115   109   am
    77   172   174   ar
    78   175   176    1
    79     2     1    1
    80     2     3    1
    81    63    64    1
    82    55    56    1
    83    55    54    1
    84   110   109    2
    85    28    29    1
    86    28    27    1
    87    15    14    2
    88    67    64    1
    89   109   108    1
    90    56    57    2
    91    64    65    1
    92     3     4    2
    93     3    12   am
    94   176   177    1
    95    27    24    1
    96    26    25    2
    97    24    25    1
    98    24    23    1
    99    14    23   am
   100    14    13    1
   101    12    13    1
   102    25    31   am
   103   108   111    1
   104   108   107    1
   105   177   178    2
   106   177   179   am
   107   111   112    1
   108    65    66    2
   109    65    68   am
   110    13    16    1
   111    99    98   ar
   112    99    97   ar
   113    31    32    1
   114    68    69    1
   115   179   180    1
   116    16    17    1
   117    98    96   ar
   118    97    95   ar
   119   112   114    1
   120   112   113    1
   121    32    33    1
   122    19    17   ar
   123    19    21   ar
   124    51    50    2
   125    17    18   ar
   126    50    49    1
   127   183   180    1
   128   183   184    1
   129    52    49    1
   130    52    53    1
   131    93    92    2
   132   180   181    1
   133    69    70    1
   134    96    95   ar
   135    21    22   ar
   136    95    94    1
   137    33    34    2
   138    33    35   am
   139    18    20   ar
   140   182   181    2
   141    71    70    2
   142    49    48    1
   143    38    37    2
   144    70    72   am
   145    92    91    1
   146    22    20   ar
   147    35    36    1
   148   186   184   ar
   149   184   185   ar
   150    91    94    1
   151    91    90    1
   152    72    73    1
   153    37    36    1
   154    37    44   am
   155    36    39    1
   156    78    79    1
   157    78    77    1
   158    45    44    1
   159    45    46    1
   160    76    73    1
   161    76    77    1
   162    73    74    1
   163    39    40    1
   164    79    80    1
   165    41    40    1
   166    41    42    1
   167    46    47    2
   168    74    75    2
   169    88    87   ar
   170    84    83    2
   171    42    43    1
   172    86    87    1
   173    86    85    1
   174    87    89   ar
   175    83    82    1
   176    82    85    1
   177    82    81    1
