@<TRIPOS>MOLECULE
tmp/5ta8A00.pdb
 182 172 0 0 0
SMALL
GASTEIGER

@<TRIPOS>ATOM
      1  N          6.7840   16.2950   66.0890 N.3    21  ARG21      -0.1231
      2  CA         5.3700   15.8660   66.1290 C.3    21  ARG21       0.1694
      3  C          4.4340   16.6980   65.2430 C.2    21  ARG21       0.2592
      4  O          4.5650   17.9200   65.1680 O.2    21  ARG21      -0.2718
      5  CB         4.8370   15.8690   67.5660 C.3    21  ARG21       0.0321
      6  CG         5.3130   14.7210   68.4550 C.3    21  ARG21       0.0489
      7  CD         4.3190   14.4070   69.5750 C.3    21  ARG21       0.2205
      8  NE         4.0440   15.5600   70.4440 N.pl3  21  ARG21      -0.0865
      9  CZ         3.0220   16.4130   70.3040 C.cat  21  ARG21       0.5346
     10  NH1        2.1360   16.2760   69.3250 N.pl3  21  ARG21       0.1354
     11  NH2        2.8870   17.4190   71.1550 N.pl3  21  ARG21       0.1354
     12  N          3.4930   16.0280   64.5810 N.am   22  PHE22      -0.1962
     13  CA         2.4800   16.7030   63.7600 C.3    22  PHE22       0.1771
     14  C          1.4050   17.3730   64.6330 C.2    22  PHE22       0.2619
     15  O          0.7430   16.7070   65.4360 O.2    22  PHE22      -0.2715
     16  CB         1.8540   15.7080   62.7710 C.3    22  PHE22       0.0574
     17  CG         0.7490   16.2880   61.9220 C.ar   22  PHE22      -0.0200
     18  CD1        1.0360   17.1310   60.8490 C.ar   22  PHE22      -0.0042
     19  CD2       -0.5830   15.9780   62.1840 C.ar   22  PHE22      -0.0042
     20  CE1        0.0200   17.6610   60.0630 C.ar   22  PHE22      -0.0003
     21  CE2       -1.6030   16.5020   61.4000 C.ar   22  PHE22      -0.0003
     22  CZ        -1.3020   17.3440   60.3380 C.ar   22  PHE22      -0.0000
     23  N          1.2380   18.6870   64.4710 N.am   23  LEU23      -0.1963
     24  CA         0.2920   19.4690   65.2970 C.3    23  LEU23       0.1728
     25  C         -1.0910   19.6770   64.6690 C.2    23  LEU23       0.2617
     26  O         -2.0630   19.9630   65.3740 O.2    23  LEU23      -0.2715
     27  CB         0.8670   20.8470   65.6470 C.3    23  LEU23       0.0311
     28  CG         2.3510   21.0370   65.9350 C.3    23  LEU23       0.0022
     29  CD1        2.6440   22.5290   65.9350 C.3    23  LEU23       0.0001
     30  CD2        2.7490   20.3900   67.2520 C.3    23  LEU23       0.0001
     31  N         -1.1710   19.5700   63.3440 N.am   24  GLY24      -0.1940
     32  CA        -2.4430   19.7310   62.6540 C.3    24  GLY24       0.2014
     33  C         -2.3380   20.4530   61.3320 C.2    24  GLY24       0.2639
     34  O         -1.2520   20.8590   60.9130 O.2    24  GLY24      -0.2714
     35  N         -3.4840   20.6000   60.6760 N.am   25  LYS25      -0.1963
     36  CA        -3.5600   21.2400   59.3780 C.3    25  LYS25       0.1728
     37  C         -4.2160   22.6100   59.5380 C.2    25  LYS25       0.2616
     38  O         -5.4390   22.7140   59.6520 O.2    25  LYS25      -0.2715
     39  CB        -4.3330   20.3500   58.3960 C.3    25  LYS25       0.0311
     40  CG        -3.8980   20.4830   56.9440 C.3    25  LYS25       0.0038
     41  CD        -4.3100   19.2720   56.1170 C.3    25  LYS25       0.0206
     42  CE        -3.8680   19.4030   54.6620 C.3    25  LYS25       0.1093
     43  NZ        -4.1210   18.1700   53.8560 N.3    25  LYS25      -0.1314
     44  N         -3.3870   23.6540   59.5790 N.am   26  GLY26      -0.1955
     45  CA        -3.8610   25.0360   59.6680 C.3    26  GLY26       0.1869
     46  C         -4.1530   25.6410   58.3030 C.2    26  GLY26       0.2309
     47  O         -3.4140   26.5080   57.8260 O.2    26  GLY26      -0.2863
     48  N          1.2400   21.5870   59.9160 N.3    31  CYS31      -0.1235
     49  CA         2.0450   22.1740   60.9930 C.3    31  CYS31       0.1677
     50  C          2.6710   21.1200   61.9010 C.2    31  CYS31       0.2270
     51  O          2.0080   20.1600   62.3060 O.2    31  CYS31      -0.2867
     52  CB         1.2020   23.1470   61.8120 C.3    31  CYS31       0.0956
     53  SG         0.1230   24.1900   60.8050 S.3    31  CYS31      -0.0801
     54  N          5.7850   20.2870   65.1640 N.3    33  GLU33      -0.1245
     55  CA         6.8410   20.6450   66.1200 C.3    33  GLU33       0.1567
     56  C          8.1730   20.5340   65.3800 C.2    33  GLU33       0.2260
     57  O          8.4760   19.4870   64.8100 O.2    33  GLU33      -0.2867
     58  CB         6.8490   19.6890   67.3190 C.3    33  GLU33       0.0388
     59  CG         6.0380   20.1230   68.5340 C.3    33  GLU33       0.1160
     60  CD         6.0240   19.0830   69.6560 C.2    33  GLU33       0.3649
     61  OE1        5.5770   19.4150   70.7760 O.co2  33  GLU33      -0.2457
     62  OE2        6.4580   17.9300   69.4310 O.co2  33  GLU33      -0.2457
     63  N          7.0460   26.0270   66.1330 N.3    44  ALA44      -0.1245
     64  CA         5.9800   25.5170   65.2800 C.3    44  ALA44       0.1562
     65  C          6.3180   25.7960   63.8140 C.2    44  ALA44       0.2260
     66  O          6.6200   26.9410   63.4340 O.2    44  ALA44      -0.2867
     67  CB         4.6470   26.1420   65.6530 C.3    44  ALA44       0.0290
     68  N          5.0330   25.9820   60.0540 N.3    46  LYS46      -0.1245
     69  CA         3.9300   26.0640   59.1050 C.3    46  LYS46       0.1561
     70  C          4.4890   25.7070   57.7410 C.2    46  LYS46       0.2260
     71  O          5.2200   26.4950   57.1300 O.2    46  LYS46      -0.2867
     72  CB         3.3030   27.4660   59.0950 C.3    46  LYS46       0.0271
     73  CG         1.9280   27.5380   58.4440 C.3    46  LYS46       0.0035
     74  CD         1.3220   28.9320   58.5610 C.3    46  LYS46       0.0206
     75  CE        -0.1790   28.9160   58.3000 C.3    46  LYS46       0.1093
     76  NZ        -0.8310   30.1980   58.6850 N.3    46  LYS46      -0.1314
     77  N          3.5780   39.4640   59.0980 N.3    69  HIS69      -0.1241
     78  CA         3.9470   38.7880   60.3270 C.3    69  HIS69       0.1621
     79  C          5.3980   39.0390   60.7500 C.2    69  HIS69       0.2264
     80  O          5.6730   39.2270   61.9330 O.2    69  HIS69      -0.2867
     81  CB         3.6770   37.2940   60.2030 C.3    69  HIS69       0.0745
     82  CG         3.4070   36.6250   61.5110 C.ar   69  HIS69       0.0817
     83  ND1        2.6700   35.4640   61.6140 N.ar   69  HIS69      -0.2268
     84  CD2        3.7550   36.9660   62.7760 C.ar   69  HIS69       0.1154
     85  CE1        2.5930   35.1080   62.8850 C.ar   69  HIS69       0.1986
     86  NE2        3.2420   36.0040   63.6100 N.ar   69  HIS69      -0.2212
     87  N          1.9890   36.1690   67.9820 N.3    78  VAL78      -0.1245
     88  CA         2.7670   34.9620   67.7610 C.3    78  VAL78       0.1561
     89  C          4.1680   35.2860   67.2430 C.2    78  VAL78       0.2260
     90  O          4.3200   35.9390   66.2130 O.2    78  VAL78      -0.2867
     91  CB         2.0600   33.9930   66.7960 C.3    78  VAL78       0.0252
     92  CG1        2.9960   32.8570   66.4180 C.3    78  VAL78       0.0019
     93  CG2        0.8080   33.4300   67.4430 C.3    78  VAL78       0.0019
     94  N          7.5650   29.5480   63.4280 N.3    94  LEU94      -0.1231
     95  CA         6.7680   30.3740   64.3230 C.3    94  LEU94       0.1693
     96  C          6.9260   29.9430   65.7660 C.2    94  LEU94       0.2592
     97  O          7.4530   28.8630   66.0480 O.2    94  LEU94      -0.2718
     98  CB         5.2940   30.3070   63.9240 C.3    94  LEU94       0.0284
     99  CG         4.9330   30.8220   62.5260 C.3    94  LEU94       0.0019
    100  CD1        3.6560   30.1730   62.0210 C.3    94  LEU94       0.0001
    101  CD2        4.8120   32.3390   62.5030 C.3    94  LEU94       0.0001
    102  N          6.4720   30.8030   66.6770 N.am   95  GLU95      -0.1966
    103  CA         6.4710   30.5050   68.0990 C.3    95  GLU95       0.1733
    104  C          5.5590   29.3180   68.3770 C.2    95  GLU95       0.2616
    105  O          4.3820   29.3220   67.9960 O.2    95  GLU95      -0.2715
    106  CB         6.0090   31.7260   68.8940 C.3    95  GLU95       0.0429
    107  CG         5.9250   31.5000   70.3980 C.3    95  GLU95       0.1163
    108  CD         5.4340   32.7190   71.1650 C.2    95  GLU95       0.3649
    109  OE1        5.0330   32.5440   72.3340 O.co2  95  GLU95      -0.2457
    110  OE2        5.4480   33.8510   70.6210 O.co2  95  GLU95      -0.2457
    111  N          6.1100   28.2950   69.0210 N.am   96  LEU96      -0.1963
    112  CA         5.3080   27.1550   69.4340 C.3    96  LEU96       0.1728
    113  C          4.4190   27.5550   70.5980 C.2    96  LEU96       0.2616
    114  O          4.9110   27.8790   71.6840 O.2    96  LEU96      -0.2715
    115  CB         6.1830   25.9590   69.8160 C.3    96  LEU96       0.0311
    116  CG         5.4300   24.6770   70.2050 C.3    96  LEU96       0.0022
    117  CD1        4.4530   24.2360   69.1230 C.3    96  LEU96       0.0001
    118  CD2        6.4050   23.5510   70.5240 C.3    96  LEU96       0.0001
    119  N          3.1110   27.5460   70.3570 N.am   97  CYS97      -0.1954
    120  CA         2.1330   27.8720   71.3950 C.3    97  CYS97       0.1843
    121  C          1.5540   26.6020   72.0010 C.2    97  CYS97       0.2625
    122  O          0.5800   26.0270   71.5050 O.2    97  CYS97      -0.2714
    123  CB         1.0620   28.8000   70.8410 C.3    97  CYS97       0.0997
    124  SG         1.7740   30.3900   70.3630 S.3    97  CYS97      -0.0797
    125  N          2.1740   26.1830   73.0970 N.am   98  ARG98      -0.1977
    126  CA         2.0640   24.8130   73.5620 C.3    98  ARG98       0.1597
    127  C          0.6900   24.4680   74.1010 C.2    98  ARG98       0.2287
    128  O          0.2820   23.3090   74.0800 O.2    98  ARG98      -0.2864
    129  CB         3.1470   24.5340   74.5950 C.3    98  ARG98       0.0334
    130  CG         4.5490   24.6450   74.0220 C.3    98  ARG98       0.0492
    131  CD         5.5920   24.1890   75.0250 C.3    98  ARG98       0.2205
    132  NE         6.8530   23.7990   74.3960 N.pl3  98  ARG98      -0.0865
    133  CZ         7.1370   22.5730   73.9570 C.cat  98  ARG98       0.5346
    134  NH1        6.2470   21.5900   74.0560 N.pl3  98  ARG98       0.1354
    135  NH2        8.3180   22.3290   73.4080 N.pl3  98  ARG98       0.1354
    136  N         -2.0650   25.4590   72.8030 N.3   100  ARG100     -0.1245
    137  CA        -2.9830   25.4940   71.6530 C.3   100  ARG100      0.1563
    138  C         -3.6890   26.8480   71.4750 C.2   100  ARG100      0.2260
    139  O         -3.0230   27.8590   71.2340 O.2   100  ARG100     -0.2867
    140  CB        -3.9680   24.3070   71.6850 C.3   100  ARG100      0.0307
    141  CG        -3.2920   22.9560   71.9200 C.3   100  ARG100      0.0489
    142  CD        -4.2190   21.7770   71.6810 C.3   100  ARG100      0.2205
    143  NE        -4.5440   21.6160   70.2640 N.pl3 100  ARG100     -0.0865
    144  CZ        -5.2250   20.5910   69.7530 C.cat 100  ARG100      0.5346
    145  NH1       -5.6580   19.6070   70.5270 N.pl3 100  ARG100      0.1354
    146  NH2       -5.4700   20.5470   68.4520 N.pl3 100  ARG100      0.1354
    147  N         -9.7590   25.4540   71.4820 N.3   104  GLU104     -0.1245
    148  CA        -9.6840   24.1790   72.1940 C.3   104  GLU104      0.1567
    149  C        -10.1600   24.3490   73.6200 C.2   104  GLU104      0.2260
    150  O        -10.8580   23.4880   74.1620 O.2   104  GLU104     -0.2867
    151  CB        -8.2550   23.6330   72.2040 C.3   104  GLU104      0.0388
    152  CG        -7.7930   23.0630   70.8720 C.3   104  GLU104      0.1160
    153  CD        -7.3620   24.1340   69.8880 C.2   104  GLU104      0.3649
    154  OE1       -6.9350   25.2170   70.3390 O.co2 104  GLU104     -0.2457
    155  OE2       -7.4470   23.8860   68.6660 O.co2 104  GLU104     -0.2457
    156  N         -9.6630   30.1710   67.3070 N.3   144  GLY144     -0.1225
    157  CA        -8.5820   29.3950   66.7170 C.3   144  GLY144      0.1811
    158  C         -7.3050   30.1790   66.4370 C.2   144  GLY144      0.2280
    159  O         -6.2290   29.5850   66.2970 O.2   144  GLY144     -0.2866
    160  N         -3.7650   31.9780   70.2460 N.3   147  PHE147     -0.1241
    161  CA        -2.9740   30.8730   70.7260 C.3   147  PHE147      0.1605
    162  C         -2.5410   31.1230   72.1570 C.2   147  PHE147      0.2264
    163  O         -2.4030   32.2700   72.5770 O.2   147  PHE147     -0.2867
    164  CB        -1.7810   30.6820   69.8010 C.3   147  PHE147      0.0534
    165  CG        -2.1670   30.3290   68.3850 C.ar  147  PHE147     -0.0203
    166  CD1       -2.4260   31.3270   67.4470 C.ar  147  PHE147     -0.0042
    167  CD2       -2.2910   28.9950   67.9920 C.ar  147  PHE147     -0.0042
    168  CE1       -2.7920   31.0000   66.1470 C.ar  147  PHE147     -0.0003
    169  CE2       -2.6570   28.6630   66.6930 C.ar  147  PHE147     -0.0003
    170  CZ        -2.8960   29.6650   65.7700 C.ar  147  PHE147     -0.0000
    171  N         -2.3160   35.0100   66.2550 N.3   157  GLY157     -0.1210
    172  CA        -1.6230   34.4100   65.1150 C.3   157  GLY157      0.1956
    173  C         -2.4370   34.2420   63.8470 C.2   157  GLY157      0.2611
    174  O         -3.5790   34.6970   63.7630 O.2   157  GLY157     -0.2717
    175  N         -1.8360   33.5570   62.8710 N.am  158  ASP158     -0.1973
    176  CA        -2.3920   33.4040   61.5230 C.3   158  ASP158      0.1709
    177  C         -2.7860   34.7490   60.8990 C.2   158  ASP158      0.2293
    178  O         -3.9100   35.2290   61.0490 O.2   158  ASP158     -0.2864
    179  CB        -3.5540   32.3990   61.4860 C.3   158  ASP158      0.1436
    180  CG        -4.1030   32.1870   60.0740 C.2   158  ASP158      0.3671
    181  OD1       -3.3580   32.3940   59.0900 O.co2 158  ASP158     -0.2456
    182  OD2       -5.2890   31.8140   59.9480 O.co2 158  ASP158     -0.2456
@<TRIPOS>BOND
     1    43    42    1
     2    42    41    1
     3    41    40    1
     4    40    39    1
     5    71    70    2
     6    70    69    1
     7    47    46    2
     8    75    74    1
     9    75    76    1
    10    46    45    1
    11    39    36    1
    12    73    74    1
    13    73    72    1
    14   181   180   ar
    15    72    69    1
    16    77    78    1
    17    69    68    1
    18    36    37    1
    19    36    35    1
    20    37    44   am
    21    37    38    2
    22    44    45    1
    23    48    49    1
    24   182   180   ar
    25    20    22   ar
    26    20    18   ar
    27   180   179    1
    28    81    78    1
    29    81    82    1
    30    78    79    1
    31    22    21   ar
    32    35    33   am
    33    79    80    2
    34    53    52    1
    35    18    17   ar
    36   177   178    2
    37   177   176    1
    38    34    33    2
    39    49    52    1
    40    49    50    1
    41    33    32    1
    42    21    19   ar
    43   179   176    1
    44    82    83   ar
    45    82    84   ar
    46   176   175    1
    47    83    85   ar
    48    50    51    2
    49    17    19   ar
    50    17    16    1
    51   100    99    1
    52   101    99    1
    53    99    98    1
    54    32    31    1
    55    16    13    1
    56    84    86   ar
    57   175   173   am
    58    85    86   ar
    59    31    25   am
    60    94    95    1
    61    66    65    2
    62    13    12    1
    63    13    14    1
    64   174   173    2
    65    65    64    1
    66   173   172    1
    67    98    95    1
    68    95    96    1
    69    23    14   am
    70    23    24    1
    71    12     3   am
    72    14    15    2
    73    25    24    1
    74    25    26    2
    75    57    56    2
    76   172   171    1
    77    54    55    1
    78     4     3    2
    79     3     2    1
    80    64    67    1
    81    64    63    1
    82    24    27    1
    83    56    55    1
    84    27    28    1
    85    96    97    2
    86    96   102   am
    87   170   168   ar
    88   170   169   ar
    89    29    28    1
    90    28    30    1
    91     1     2    1
    92    55    58    1
    93     2     5    1
    94   168   166   ar
    95    90    89    2
    96   159   158    2
    97    92    91    1
    98   158   157    1
    99   102   103    1
   100   169   167   ar
   101   157   156    1
   102    91    93    1
   103    91    88    1
   104    89    88    1
   105    58    59    1
   106   166   165   ar
   107     5     6    1
   108    88    87    1
   109   167   165   ar
   110   105   104    2
   111   103   104    1
   112   103   106    1
   113   104   111   am
   114   165   164    1
   115   146   144    1
   116     6     7    1
   117    59    60    1
   118   155   153   ar
   119   106   107    1
   120   111   112    1
   121   117   116    1
   122    10     9    1
   123    62    60   ar
   124   112   115    1
   125   112   113    1
   126     7     8    1
   127    60    61   ar
   128   144   143    2
   129   144   145    1
   130   164   161    1
   131   115   116    1
   132   153   154   ar
   133   153   152    1
   134   116   118    1
   135   160   161    1
   136   143   142    1
   137     9     8    2
   138     9    11    1
   139   119   113   am
   140   119   120    1
   141   124   123    1
   142   107   108    1
   143   113   114    2
   144   110   108   ar
   145   161   162    1
   146   123   120    1
   147   152   151    1
   148   108   109   ar
   149   139   138    2
   150   120   121    1
   151   138   137    1
   152   147   148    1
   153   122   121    2
   154   137   140    1
   155   137   136    1
   156   142   141    1
   157   140   141    1
   158   121   125   am
   159   162   163    2
   160   148   151    1
   161   148   149    1
   162   125   126    1
   163   135   133    1
   164   126   127    1
   165   126   129    1
   166   149   150    2
   167   133   134    1
   168   133   132    2
   169   130   129    1
   170   130   131    1
   171   128   127    2
   172   132   131    1
