@<TRIPOS>MOLECULE
tmp/5tb6A00.pdb
 121 115 0 0 0
SMALL
GASTEIGER

@<TRIPOS>ATOM
      1  N         -2.3160   11.3490   15.7760 N.3    31  LEU31      -0.1231
      2  CA        -3.6080   11.6640   16.4100 C.3    31  LEU31       0.1678
      3  C         -3.4720   12.3940   17.7690 C.2    31  LEU31       0.2434
      4  O         -4.2190   13.3470   18.0130 O.2    31  LEU31      -0.2733
      5  CB        -4.5120   10.4440   16.5500 C.3    31  LEU31       0.0284
      6  CG        -4.9150    9.8100   15.1970 C.3    31  LEU31       0.0019
      7  CD1       -5.6390    8.4550   15.4030 C.3    31  LEU31       0.0001
      8  CD2       -5.7620   10.7440   14.3900 C.3    31  LEU31       0.0001
      9  N         -2.5330   11.9600   18.6440 N.am   32  PRO32      -0.2718
     10  CA        -2.3340   12.6910   19.9180 C.3    32  PRO32       0.1535
     11  C         -1.7370   14.0850   19.7880 C.2    32  PRO32       0.2598
     12  O         -1.7070   14.8070   20.7840 O.2    32  PRO32      -0.2715
     13  CB        -1.3810   11.7970   20.7130 C.3    32  PRO32       0.0310
     14  CG        -1.5880   10.4580   20.1800 C.3    32  PRO32       0.0237
     15  CD        -1.8190   10.6760   18.6850 C.3    32  PRO32       0.0939
     16  N         -1.2670   14.4510   18.5920 N.am   33  PHE33      -0.1974
     17  CA        -0.5880   15.7230   18.3100 C.3    33  PHE33       0.1639
     18  C         -1.4070   16.7200   17.4650 C.2    33  PHE33       0.2290
     19  O         -0.9730   17.8780   17.2310 O.2    33  PHE33      -0.2864
     20  CB         0.7220   15.4250   17.5960 C.3    33  PHE33       0.0560
     21  CG         1.6830   14.6260   18.4140 C.ar   33  PHE33      -0.0200
     22  CD1        2.6830   15.2600   19.1680 C.ar   33  PHE33      -0.0042
     23  CD2        1.6180   13.2210   18.4360 C.ar   33  PHE33      -0.0042
     24  CE1        3.5790   14.5010   19.9290 C.ar   33  PHE33      -0.0003
     25  CE2        2.4900   12.4690   19.2330 C.ar   33  PHE33      -0.0003
     26  CZ         3.4750   13.1220   19.9800 C.ar   33  PHE33      -0.0000
     27  N         -4.2690   18.3010   17.9930 N.3    35  GLN35      -0.1245
     28  CA        -4.9320   19.3510   18.7640 C.3    35  GLN35       0.1566
     29  C         -4.1140   19.6200   20.0400 C.2    35  GLN35       0.2260
     30  O         -3.4210   18.7200   20.5540 O.2    35  GLN35      -0.2867
     31  CB        -6.3660   18.9440   19.1800 C.3    35  GLN35       0.0367
     32  CG        -7.3230   18.7250   18.0060 C.3    35  GLN35       0.0905
     33  CD        -8.7140   18.2490   18.4310 C.2    35  GLN35       0.2608
     34  OE1       -9.2940   18.7620   19.3900 O.2    35  GLN35      -0.2717
     35  NE2       -9.2530   17.2690   17.7050 N.am   35  GLN35      -0.0878
     36  N         -3.0110   19.6830   23.7030 N.3    37  VAL37      -0.1245
     37  CA        -3.2640   18.8750   24.8900 C.3    37  VAL37       0.1561
     38  C         -4.2720   19.5880   25.7920 C.2    37  VAL37       0.2260
     39  O         -4.1100   20.7650   26.1360 O.2    37  VAL37      -0.2867
     40  CB        -1.9620   18.5390   25.6480 C.3    37  VAL37       0.0252
     41  CG1       -2.2590   17.8740   27.0140 C.3    37  VAL37       0.0019
     42  CG2       -1.0970   17.6060   24.7760 C.3    37  VAL37       0.0019
     43  N         -8.0480   15.0970   29.6510 N.3    42  LEU42      -0.1245
     44  CA        -7.1540   13.9490   29.8520 C.3    42  LEU42       0.1561
     45  C         -6.9280   13.6250   31.3480 C.2    42  LEU42       0.2260
     46  O         -6.2780   12.6330   31.6970 O.2    42  LEU42      -0.2867
     47  CB        -5.8230   14.1800   29.1130 C.3    42  LEU42       0.0270
     48  CG        -5.9300   14.2530   27.5660 C.3    42  LEU42       0.0019
     49  CD1       -4.6010   14.7460   26.9740 C.3    42  LEU42       0.0001
     50  CD2       -6.3720   12.9120   26.8890 C.3    42  LEU42       0.0001
     51  N         -5.0750   15.2510   33.5950 N.3    44  ILE44      -0.1245
     52  CA        -3.6800   15.4270   33.9510 C.3    44  ILE44       0.1561
     53  C         -3.4130   16.8990   34.3430 C.2    44  ILE44       0.2260
     54  O         -2.8000   17.6830   33.5590 O.2    44  ILE44      -0.2867
     55  CB        -2.8020   14.9540   32.8000 C.3    44  ILE44       0.0252
     56  CG1       -3.2160   15.5990   31.4520 C.3    44  ILE44       0.0019
     57  CG2       -2.8950   13.4180   32.6850 C.3    44  ILE44       0.0019
     58  CD1       -2.2750   15.3590   30.2390 C.3    44  ILE44       0.0001
     59  N         -0.1450   19.0270   33.7980 N.3    47  TYR47      -0.1241
     60  CA         0.4160   19.1490   32.4610 C.3    47  TYR47       0.1605
     61  C          1.0670   20.5080   32.2170 C.2    47  TYR47       0.2264
     62  O          2.2430   20.5760   31.8040 O.2    47  TYR47      -0.2867
     63  CB        -0.5890   18.8270   31.3570 C.3    47  TYR47       0.0534
     64  CG         0.0670   18.8720   29.9730 C.ar   47  TYR47      -0.0201
     65  CD1        0.0440   20.0470   29.2110 C.ar   47  TYR47      -0.0009
     66  CD2        0.7810   17.7920   29.4750 C.ar   47  TYR47      -0.0009
     67  CE1        0.6590   20.1150   27.9270 C.ar   47  TYR47       0.0417
     68  CE2        1.4010   17.8390   28.2060 C.ar   47  TYR47       0.0417
     69  CZ         1.3710   19.0370   27.4590 C.ar   47  TYR47       0.1957
     70  OH         1.9630   19.0380   26.2120 O.3    47  TYR47      -0.2866
     71  N          7.1580   20.7160   20.2120 N.3    82  MET82      -0.1245
     72  CA         6.0900   19.7230   20.2610 C.3    82  MET82       0.1570
     73  C          6.6190   18.3420   20.6550 C.2    82  MET82       0.2261
     74  O          6.0820   17.6820   21.5550 O.2    82  MET82      -0.2867
     75  CB         5.4120   19.6720   18.8990 C.3    82  MET82       0.0387
     76  CG         4.2500   18.7000   18.8200 C.3    82  MET82       0.0595
     77  SD         3.4320   18.6120   17.2300 S.3    82  MET82      -0.1393
     78  CE         4.7510   18.1270   16.1240 C.3    82  MET82       0.0692
     79  N          6.2790   16.3610   24.5190 N.3    86  ALA86      -0.1245
     80  CA         5.6720   15.0160   24.5960 C.3    86  ALA86       0.1562
     81  C          6.6180   14.0190   25.2670 C.2    86  ALA86       0.2260
     82  O          6.2240   13.2230   26.1190 O.2    86  ALA86      -0.2867
     83  CB         5.2940   14.5450   23.1760 C.3    86  ALA86       0.0290
     84  N          6.8300   15.0230   29.1290 N.3    89  TYR89      -0.1227
     85  CA         5.6370   14.8150   29.9570 C.3    89  TYR89       0.1736
     86  C          5.3300   13.3330   30.1160 C.2    89  TYR89       0.2595
     87  O          5.0480   12.8580   31.2270 O.2    89  TYR89      -0.2718
     88  CB         4.4050   15.5790   29.4160 C.3    89  TYR89       0.0548
     89  CG         3.2810   15.3970   30.3790 C.ar   89  TYR89      -0.0200
     90  CD1        3.2960   16.0680   31.6190 C.ar   89  TYR89      -0.0009
     91  CD2        2.3060   14.4150   30.1760 C.ar   89  TYR89      -0.0009
     92  CE1        2.2980   15.8270   32.6020 C.ar   89  TYR89       0.0417
     93  CE2        1.3130   14.1820   31.1410 C.ar   89  TYR89       0.0417
     94  CZ         1.3270   14.8930   32.3550 C.ar   89  TYR89       0.1957
     95  OH         0.3520   14.6490   33.2800 O.3    89  TYR89      -0.2866
     96  N          5.4540   12.6040   28.9990 N.am   90  ASN90      -0.1974
     97  CA         4.9520   11.2400   28.9170 C.3    90  ASN90       0.1688
     98  C          6.0170   10.2450   29.3370 C.2    90  ASN90       0.2292
     99  O          7.2240   10.4290   29.0920 O.2    90  ASN90      -0.2864
    100  CB         4.4420   10.9270   27.5090 C.3    90  ASN90       0.1181
    101  CG         3.2260   11.7440   27.1380 C.2    90  ASN90       0.2629
    102  OD1        2.1070   11.4210   27.5340 O.2    90  ASN90      -0.2716
    103  ND2        3.4540   12.8710   26.4440 N.am   90  ASN90      -0.0877
    104  N          2.3790    4.9020   25.0690 N.3    95  ARG95      -0.1231
    105  CA         1.9250    4.9400   23.6690 C.3    95  ARG95       0.1694
    106  C          2.2200    6.2910   23.0150 C.2    95  ARG95       0.2591
    107  O          2.7080    6.3320   21.9120 O.2    95  ARG95      -0.2718
    108  CB         0.4320    4.6650   23.5870 C.3    95  ARG95       0.0321
    109  CG        -0.1450    4.5460   22.1860 C.3    95  ARG95       0.0489
    110  CD        -1.5660    3.9790   22.3100 C.3    95  ARG95       0.2205
    111  NE        -2.2810    3.8580   21.0350 N.pl3  95  ARG95      -0.0865
    112  CZ        -2.8890    4.8490   20.3870 C.cat  95  ARG95       0.5346
    113  NH1       -2.8610    6.0820   20.8480 N.pl3  95  ARG95       0.1354
    114  NH2       -3.5080    4.5980   19.2470 N.pl3  95  ARG95       0.1354
    115  N          1.9680    7.3750   23.7330 N.am   96  VAL96      -0.1980
    116  CA         2.1800    8.7230   23.1970 C.3    96  VAL96       0.1595
    117  C          3.6740    8.9910   23.0080 C.2    96  VAL96       0.2287
    118  O          4.0640    9.5680   21.9910 O.2    96  VAL96      -0.2864
    119  CB         1.4620    9.8390   24.0700 C.3    96  VAL96       0.0276
    120  CG1        1.9590   11.2590   23.7040 C.3    96  VAL96       0.0022
    121  CG2       -0.1060    9.7080   23.9910 C.3    96  VAL96       0.0022
@<TRIPOS>BOND
     1     8     6    1
     2     6     7    1
     3     6     5    1
     4     1     2    1
     5    78    77    1
     6     2     5    1
     7     2     3    1
     8    77    76    1
     9    19    18    2
    10    18    17    1
    11    20    17    1
    12    20    21    1
    13    35    33   am
    14     3     4    2
    15     3     9   am
    16    27    28    1
    17    32    33    1
    18    32    31    1
    19    17    16    1
    20    21    23   ar
    21    21    22   ar
    22    33    34    2
    23    23    25   ar
    24    16    11   am
    25     9    15    1
    26     9    10    1
    27    15    14    1
    28    28    31    1
    29    28    29    1
    30    76    75    1
    31    75    72    1
    32    22    24   ar
    33    25    26   ar
    34   114   112    1
    35    11    10    1
    36    11    12    2
    37    10    13    1
    38    24    26   ar
    39    29    30    2
    40    14    13    1
    41    71    72    1
    42    72    73    1
    43   112   113    1
    44   112   111    2
    45    73    74    2
    46   111   110    1
    47   107   106    2
    48   118   117    2
    49   109   110    1
    50   109   108    1
    51   117   116    1
    52   106   105    1
    53   106   115   am
    54    83    80    1
    55   116   115    1
    56   116   119    1
    57   108   105    1
    58   105   104    1
    59    36    37    1
    60   120   119    1
    61   121   119    1
    62    79    80    1
    63    80    81    1
    64    42    40    1
    65    37    40    1
    66    37    38    1
    67    81    82    2
    68    40    41    1
    69    38    39    2
    70    70    69    1
    71   103   101   am
    72    50    48    1
    73    49    48    1
    74   101   100    1
    75   101   102    2
    76    69    67   ar
    77    69    68   ar
    78   100    97    1
    79    48    47    1
    80    67    65   ar
    81    68    66   ar
    82    97    96    1
    83    97    98    1
    84    96    86   am
    85    99    98    2
    86    47    44    1
    87    84    85    1
    88    65    64   ar
    89    88    85    1
    90    88    89    1
    91    66    64   ar
    92    43    44    1
    93    44    45    1
    94    85    86    1
    95    64    63    1
    96    86    87    2
    97    91    89   ar
    98    91    93   ar
    99    58    56    1
   100    89    90   ar
   101    93    94   ar
   102    45    46    2
   103    63    60    1
   104    56    55    1
   105    90    92   ar
   106    62    61    2
   107    61    60    1
   108    94    92   ar
   109    94    95    1
   110    60    59    1
   111    57    55    1
   112    55    52    1
   113    54    53    2
   114    51    52    1
   115    52    53    1
