@<TRIPOS>MOLECULE
tmp/5tbdJ00.pdb
 98 93 0 0 0
SMALL
GASTEIGER

@<TRIPOS>ATOM
      1  N         11.0720  -11.9770   26.3480 N.3    30  LYS30      -0.1231
      2  CA        11.7990  -13.0940   26.9350 C.3    30  LYS30       0.1693
      3  C         11.3140  -14.4220   26.3460 C.2    30  LYS30       0.2592
      4  O         12.0490  -15.4090   26.3380 O.2    30  LYS30      -0.2718
      5  CB        11.6450  -13.0910   28.4610 C.3    30  LYS30       0.0285
      6  CG        12.4800  -14.1390   29.1820 C.3    30  LYS30       0.0035
      7  CD        12.2290  -14.1250   30.6840 C.3    30  LYS30       0.0206
      8  CE        12.8460  -12.9040   31.3460 C.3    30  LYS30       0.1093
      9  NZ        14.3340  -12.9310   31.2970 N.3    30  LYS30      -0.1314
     10  N         10.0830  -14.4310   25.8370 N.am   31  ASP31      -0.1960
     11  CA         9.4870  -15.6340   25.2540 C.3    31  ASP31       0.1840
     12  C          9.8190  -15.8010   23.7680 C.2    31  ASP31       0.2622
     13  O          9.3940  -16.7700   23.1390 O.2    31  ASP31      -0.2715
     14  CB         7.9630  -15.6140   25.4200 C.3    31  ASP31       0.1450
     15  CG         7.5260  -15.5080   26.8700 C.2    31  ASP31       0.3671
     16  OD1        8.2120  -16.0640   27.7550 O.co2  31  ASP31      -0.2456
     17  OD2        6.4830  -14.8690   27.1220 O.co2  31  ASP31      -0.2456
     18  N         10.5680  -14.8540   23.2100 N.am   32  ASP32      -0.1957
     19  CA        10.8600  -14.8430   21.7770 C.3    32  ASP32       0.1840
     20  C         12.3450  -14.6720   21.4680 C.2    32  ASP32       0.2622
     21  O         13.1410  -14.3380   22.3450 O.2    32  ASP32      -0.2715
     22  CB        10.0900  -13.7140   21.0830 C.3    32  ASP32       0.1450
     23  CG         8.7140  -14.1340   20.6110 C.2    32  ASP32       0.3671
     24  OD1        7.9970  -14.8220   21.3670 O.co2  32  ASP32      -0.2456
     25  OD2        8.3500  -13.7670   19.4720 O.co2  32  ASP32      -0.2456
     26  N         12.7060  -14.9090   20.2100 N.am   33  TYR33      -0.1974
     27  CA        13.9600  -14.4030   19.6690 C.3    33  TYR33       0.1639
     28  C         13.6600  -13.0620   19.0130 C.2    33  TYR33       0.2290
     29  O         12.5960  -12.8870   18.4180 O.2    33  TYR33      -0.2864
     30  CB        14.5780  -15.3720   18.6580 C.3    33  TYR33       0.0560
     31  CG        15.3190  -16.5410   19.2710 C.ar   33  TYR33      -0.0198
     32  CD1       14.6920  -17.7630   19.4510 C.ar   33  TYR33      -0.0009
     33  CD2       16.6480  -16.4250   19.6570 C.ar   33  TYR33      -0.0009
     34  CE1       15.3590  -18.8380   20.0040 C.ar   33  TYR33       0.0417
     35  CE2       17.3280  -17.4980   20.2120 C.ar   33  TYR33       0.0417
     36  CZ        16.6750  -18.7020   20.3830 C.ar   33  TYR33       0.1957
     37  OH        17.3350  -19.7780   20.9340 O.3    33  TYR33      -0.2866
     38  N         14.8630  -10.4230   16.1780 N.3    35  HIS35      -0.1241
     39  CA        15.7020  -10.3010   14.9920 C.3    35  HIS35       0.1621
     40  C         15.8020   -8.8600   14.5050 C.2    35  HIS35       0.2264
     41  O         14.8940   -8.0580   14.7190 O.2    35  HIS35      -0.2867
     42  CB        15.1580  -11.1810   13.8640 C.3    35  HIS35       0.0745
     43  CG        15.0100  -12.6240   14.2330 C.ar   35  HIS35       0.0817
     44  ND1       15.7910  -13.6190   13.6810 N.ar   35  HIS35      -0.2268
     45  CD2       14.1680  -13.2460   15.0930 C.ar   35  HIS35       0.1154
     46  CE1       15.4390  -14.7850   14.1870 C.ar   35  HIS35       0.1986
     47  NE2       14.4560  -14.5870   15.0480 N.ar   35  HIS35      -0.2212
     48  N         20.1630  -12.0860   15.5850 N.3    50  ARG50      -0.1245
     49  CA        19.0880  -12.3040   16.5480 C.3    50  ARG50       0.1563
     50  C         19.6280  -12.3530   17.9730 C.2    50  ARG50       0.2260
     51  O         20.8180  -12.5880   18.1910 O.2    50  ARG50      -0.2867
     52  CB        18.3350  -13.5990   16.2380 C.3    50  ARG50       0.0307
     53  CG        19.1330  -14.8540   16.5480 C.3    50  ARG50       0.0489
     54  CD        18.2770  -16.1060   16.4760 C.3    50  ARG50       0.2205
     55  NE        18.9800  -17.2600   17.0290 N.pl3  50  ARG50      -0.0865
     56  CZ        18.5190  -18.5060   17.0030 C.cat  50  ARG50       0.5346
     57  NH1       17.3460  -18.7720   16.4440 N.pl3  50  ARG50       0.1354
     58  NH2       19.2340  -19.4880   17.5350 N.pl3  50  ARG50       0.1354
     59  N         18.5310  -13.6880   22.1720 N.3    52  ASP52      -0.1239
     60  CA        17.6610  -14.3490   23.1290 C.3    52  ASP52       0.1674
     61  C         17.6580  -13.5290   24.4140 C.2    52  ASP52       0.2266
     62  O         18.5600  -13.6690   25.2390 O.2    52  ASP52      -0.2867
     63  CB        18.1390  -15.7810   23.3900 C.3    52  ASP52       0.1410
     64  CG        17.1690  -16.5880   24.2360 C.2    52  ASP52       0.3668
     65  OD1       16.3340  -15.9910   24.9500 O.co2  52  ASP52      -0.2456
     66  OD2       17.2490  -17.8330   24.1900 O.co2  52  ASP52      -0.2456
     67  N         16.2030  -13.6860   27.1250 N.3    54  ALA54      -0.1245
     68  CA        16.2270  -14.4430   28.3710 C.3    54  ALA54       0.1562
     69  C         17.6450  -14.5830   28.9210 C.2    54  ALA54       0.2260
     70  O         17.8580  -14.4910   30.1300 O.2    54  ALA54      -0.2867
     71  CB        15.6010  -15.8170   28.1670 C.3    54  ALA54       0.0290
     72  N          9.8300  -10.0180   15.8100 N.3    98  ARG98      -0.1231
     73  CA         9.7410  -11.0260   16.8560 C.3    98  ARG98       0.1694
     74  C         10.0970  -12.3960   16.2850 C.2    98  ARG98       0.2593
     75  O         10.5980  -12.4940   15.1630 O.2    98  ARG98      -0.2718
     76  CB         8.3440  -11.0320   17.4940 C.3    98  ARG98       0.0321
     77  CG         7.1990  -11.4110   16.5670 C.3    98  ARG98       0.0489
     78  CD         5.8800  -11.4980   17.3390 C.3    98  ARG98       0.2205
     79  NE         6.0060  -12.3230   18.5410 N.pl3  98  ARG98      -0.0865
     80  CZ         5.0020  -12.6210   19.3610 C.cat  98  ARG98       0.5346
     81  NH1        3.7790  -12.1660   19.1200 N.pl3  98  ARG98       0.1354
     82  NH2        5.2220  -13.3800   20.4270 N.pl3  98  ARG98       0.1354
     83  N          9.8460  -13.4450   17.0620 N.am   99  GLY99      -0.1942
     84  CA        10.2780  -14.7880   16.7130 C.3    99  GLY99       0.2014
     85  C          9.8720  -15.2540   15.3300 C.2    99  GLY99       0.2639
     86  O          8.7070  -15.1430   14.9420 O.2    99  GLY99      -0.2714
     87  N         10.8490  -15.7690   14.5850 N.am  100  GLY100     -0.1954
     88  CA        10.6170  -16.3150   13.2590 C.3   100  GLY100      0.1869
     89  C         10.0690  -15.3030   12.2790 C.2   100  GLY100      0.2309
     90  O          9.3690  -15.6660   11.3320 O.2   100  GLY100     -0.2863
     91  N          7.7260  -13.3440   12.5120 N.3   102  LEU102     -0.1245
     92  CA         6.2680  -13.3930   12.4790 C.3   102  LEU102      0.1561
     93  C          5.6760  -12.0020   12.3180 C.2   102  LEU102      0.2260
     94  O          4.8860  -11.7530   11.4060 O.2   102  LEU102     -0.2867
     95  CB         5.7270  -14.0450   13.7500 C.3   102  LEU102      0.0270
     96  CG         4.2130  -13.9790   13.9540 C.3   102  LEU102      0.0019
     97  CD1        3.4870  -14.6820   12.8180 C.3   102  LEU102      0.0001
     98  CD2        3.8360  -14.5910   15.2940 C.3   102  LEU102      0.0001
@<TRIPOS>BOND
     1    90    89    2
     2    94    93    2
     3    89    88    1
     4    93    92    1
     5    92    91    1
     6    92    95    1
     7    97    96    1
     8    88    87    1
     9    44    46   ar
    10    44    43   ar
    11    95    96    1
    12    42    43    1
    13    42    39    1
    14    96    98    1
    15    46    47   ar
    16    43    45   ar
    17    40    41    2
    18    40    39    1
    19    87    85   am
    20    86    85    2
    21    39    38    1
    22    47    45   ar
    23    75    74    2
    24    85    84    1
    25    48    49    1
    26    72    73    1
    27    52    53    1
    28    52    49    1
    29    74    73    1
    30    74    83   am
    31    57    56    1
    32    54    53    1
    33    54    55    1
    34    49    50    1
    35    77    78    1
    36    77    76    1
    37    84    83    1
    38    73    76    1
    39    56    55    2
    40    56    58    1
    41    78    79    1
    42    50    51    2
    43    29    28    2
    44    79    80    2
    45    30    31    1
    46    30    27    1
    47    28    27    1
    48    81    80    1
    49    31    32   ar
    50    31    33   ar
    51    80    82    1
    52    32    34   ar
    53    25    23   ar
    54    33    35   ar
    55    27    26    1
    56    34    36   ar
    57    26    20   am
    58    35    36   ar
    59    36    37    1
    60    23    22    1
    61    23    24   ar
    62    22    19    1
    63    20    19    1
    64    20    21    2
    65    19    18    1
    66    59    60    1
    67    60    63    1
    68    60    61    1
    69    13    12    2
    70    18    12   am
    71    63    64    1
    72    12    11    1
    73    66    64   ar
    74    64    65   ar
    75    61    62    2
    76    11    14    1
    77    11    10    1
    78    14    15    1
    79    10     3   am
    80     4     3    2
    81     3     2    1
    82     1     2    1
    83    15    17   ar
    84    15    16   ar
    85     2     5    1
    86    67    68    1
    87    71    68    1
    88    68    69    1
    89     5     6    1
    90    69    70    2
    91     6     7    1
    92     7     8    1
    93     9     8    1
