@<TRIPOS>MOLECULE
tmp/5tbdH01.pdb
 111 106 0 0 0
SMALL
GASTEIGER

@<TRIPOS>ATOM
      1  N        -14.3270   -4.0210   57.5570 N.3    31  HIS31      -0.1241
      2  CA       -15.3440   -4.6120   56.7010 C.3    31  HIS31       0.1621
      3  C        -16.2620   -5.4920   57.5370 C.2    31  HIS31       0.2264
      4  O        -15.8780   -5.9610   58.6090 O.2    31  HIS31      -0.2867
      5  CB       -14.7010   -5.4220   55.5730 C.3    31  HIS31       0.0745
      6  CG       -15.6300   -5.7210   54.4360 C.ar   31  HIS31       0.0817
      7  ND1      -16.5050   -6.7850   54.4490 N.ar   31  HIS31      -0.2268
      8  CD2      -15.8170   -5.0940   53.2510 C.ar   31  HIS31       0.1154
      9  CE1      -17.1920   -6.8010   53.3200 C.ar   31  HIS31       0.1986
     10  NE2      -16.7940   -5.7860   52.5770 N.ar   31  HIS31      -0.2212
     11  N        -17.0690   -8.3880   56.9370 N.3    33  ASN33      -0.1240
     12  CA       -16.6010   -9.7690   56.9350 C.3    33  ASN33       0.1653
     13  C        -15.6120  -10.0220   58.0720 C.2    33  ASN33       0.2266
     14  O        -15.2250  -11.1610   58.3250 O.2    33  ASN33      -0.2867
     15  CB       -15.9800  -10.1480   55.5780 C.3    33  ASN33       0.1155
     16  CG       -14.7870   -9.2790   55.1920 C.2    33  ASN33       0.2627
     17  OD1      -14.1480   -8.6520   56.0330 O.2    33  ASN33      -0.2716
     18  ND2      -14.4800   -9.2540   53.9010 N.am   33  ASN33      -0.0877
     19  N        -12.5260   -8.3390   58.4610 N.3    35  LYS35      -0.1245
     20  CA       -11.1610   -7.9190   58.1530 C.3    35  LYS35       0.1561
     21  C        -11.0870   -6.4300   57.8130 C.2    35  LYS35       0.2260
     22  O        -12.0730   -5.8360   57.3820 O.2    35  LYS35      -0.2867
     23  CB       -10.5970   -8.7570   57.0000 C.3    35  LYS35       0.0271
     24  CG       -10.6210  -10.2610   57.2690 C.3    35  LYS35       0.0035
     25  CD        -9.7530  -11.0410   56.2880 C.3    35  LYS35       0.0206
     26  CE       -10.3510  -11.0770   54.8910 C.3    35  LYS35       0.1093
     27  NZ       -11.6750  -11.7690   54.8380 N.3    35  LYS35      -0.1314
     28  N         -9.3420   -3.9280   55.3710 N.3    37  TYR37      -0.1241
     29  CA        -8.5650   -3.8490   54.1390 C.3    37  TYR37       0.1605
     30  C         -7.8900   -2.4910   53.9570 C.2    37  TYR37       0.2264
     31  O         -8.2810   -1.7080   53.0910 O.2    37  TYR37      -0.2867
     32  CB        -9.4540   -4.1480   52.9280 C.3    37  TYR37       0.0534
     33  CG       -10.1360   -5.5010   52.9660 C.ar   37  TYR37      -0.0201
     34  CD1      -11.4100   -5.6440   53.5030 C.ar   37  TYR37      -0.0009
     35  CD2       -9.5100   -6.6320   52.4580 C.ar   37  TYR37      -0.0009
     36  CE1      -12.0390   -6.8730   53.5350 C.ar   37  TYR37       0.0417
     37  CE2      -10.1340   -7.8680   52.4860 C.ar   37  TYR37       0.0417
     38  CZ       -11.3970   -7.9810   53.0270 C.ar   37  TYR37       0.1957
     39  OH       -12.0240   -9.2050   53.0580 O.3    37  TYR37      -0.2866
     40  N         -4.1750   -0.8850   53.0360 N.3    39  ASN39      -0.1240
     41  CA        -2.8880   -1.2670   52.4780 C.3    39  ASN39       0.1653
     42  C         -1.9220   -0.0980   52.3580 C.2    39  ASN39       0.2266
     43  O         -2.3140    1.0600   52.4890 O.2    39  ASN39      -0.2867
     44  CB        -3.0880   -1.9140   51.1100 C.3    39  ASN39       0.1155
     45  CG        -4.2590   -2.8760   51.0890 C.2    39  ASN39       0.2627
     46  OD1       -4.0960   -4.0750   51.3020 O.2    39  ASN39      -0.2716
     47  ND2       -5.4510   -2.3490   50.8350 N.am   39  ASN39      -0.0877
     48  N          3.0350   -2.7410   46.4400 N.3    51  ARG51      -0.1245
     49  CA         2.3920   -2.9490   47.7290 C.3    51  ARG51       0.1563
     50  C          3.3960   -3.4650   48.7520 C.2    51  ARG51       0.2260
     51  O          4.1080   -4.4380   48.5020 O.2    51  ARG51      -0.2867
     52  CB         1.2170   -3.9220   47.5980 C.3    51  ARG51       0.0307
     53  CG         0.1890   -3.7890   48.7130 C.3    51  ARG51       0.0489
     54  CD        -0.9300   -4.8000   48.5660 C.3    51  ARG51       0.2205
     55  NE        -0.4730   -6.1630   48.8190 N.pl3  51  ARG51      -0.0865
     56  CZ        -1.2750   -7.2220   48.8470 C.cat  51  ARG51       0.5346
     57  NH1       -2.5760   -7.0740   48.6360 N.pl3  51  ARG51       0.1354
     58  NH2       -0.7800   -8.4280   49.0870 N.pl3  51  ARG51       0.1354
     59  N         -0.4270   -5.1350   53.6270 N.3    54  TYR54      -0.1227
     60  CA        -1.8540   -5.3700   53.4460 C.3    54  TYR54       0.1736
     61  C         -2.4660   -5.8280   54.7630 C.2    54  TYR54       0.2595
     62  O         -1.7440   -6.2470   55.6700 O.2    54  TYR54      -0.2718
     63  CB        -2.1010   -6.4050   52.3440 C.3    54  TYR54       0.0548
     64  CG        -1.5430   -7.7800   52.6380 C.ar   54  TYR54      -0.0200
     65  CD1       -2.3690   -8.8040   53.0790 C.ar   54  TYR54      -0.0009
     66  CD2       -0.1920   -8.0560   52.4680 C.ar   54  TYR54      -0.0009
     67  CE1       -1.8660  -10.0660   53.3460 C.ar   54  TYR54       0.0417
     68  CE2        0.3200   -9.3110   52.7320 C.ar   54  TYR54       0.0417
     69  CZ        -0.5220  -10.3140   53.1700 C.ar   54  TYR54       0.1957
     70  OH        -0.0190  -11.5700   53.4350 O.3    54  TYR54      -0.2866
     71  N         -3.7930   -5.7430   54.8610 N.am   55  LEU55      -0.1980
     72  CA        -4.5160   -6.0980   56.0800 C.3    55  LEU55       0.1596
     73  C         -3.8940   -5.4270   57.3110 C.2    55  LEU55       0.2287
     74  O         -3.6310   -6.0800   58.3220 O.2    55  LEU55      -0.2864
     75  CB        -4.5590   -7.6220   56.2550 C.3    55  LEU55       0.0297
     76  CG        -5.4440   -8.4000   55.2700 C.3    55  LEU55       0.0022
     77  CD1       -5.3580   -9.8980   55.5120 C.3    55  LEU55       0.0001
     78  CD2       -6.8910   -7.9330   55.3530 C.3    55  LEU55       0.0001
     79  N         -4.1480    3.0350   50.9850 N.3    94  TRP94      -0.1241
     80  CA        -5.3960    2.8720   50.2410 C.3    94  TRP94       0.1605
     81  C         -6.2840    1.7880   50.8380 C.2    94  TRP94       0.2264
     82  O         -5.7970    0.7940   51.3790 O.2    94  TRP94      -0.2867
     83  CB        -5.1160    2.5680   48.7650 C.3    94  TRP94       0.0550
     84  CG        -4.3800    1.2890   48.5020 C.ar   94  TRP94       0.0003
     85  CD1       -3.0270    1.1150   48.4670 C.ar   94  TRP94       0.0946
     86  CD2       -4.9560    0.0080   48.2050 C.ar   94  TRP94       0.0152
     87  NE1       -2.7230   -0.1960   48.1770 N.ar   94  TRP94      -0.2442
     88  CE2       -3.8900   -0.8950   48.0100 C.ar   94  TRP94       0.0810
     89  CE3       -6.2680   -0.4620   48.0920 C.ar   94  TRP94       0.0012
     90  CZ2       -4.0960   -2.2400   47.7150 C.ar   94  TRP94       0.0191
     91  CZ3       -6.4700   -1.8010   47.7930 C.ar   94  TRP94       0.0001
     92  CH2       -5.3910   -2.6730   47.6090 C.ar   94  TRP94       0.0015
     93  N         -9.4160   -1.0650   50.6020 N.3    96  GLY96      -0.1210
     94  CA       -10.1260   -1.9840   49.7340 C.3    96  GLY96       0.1956
     95  C        -11.3910   -2.4980   50.3890 C.2    96  GLY96       0.2612
     96  O        -11.9640   -3.4980   49.9580 O.2    96  GLY96      -0.2717
     97  N        -11.8260   -1.8060   51.4370 N.am   97  THR97      -0.1952
     98  CA       -13.0180   -2.1910   52.1830 C.3    97  THR97       0.1897
     99  C        -14.2910   -1.7430   51.4780 C.2    97  THR97       0.2313
    100  O        -15.2300   -2.5220   51.3100 O.2    97  THR97      -0.2863
    101  CB       -13.0080   -1.5940   53.6050 C.3    97  THR97       0.1794
    102  OG1      -11.9200   -2.1500   54.3540 O.3    97  THR97      -0.2208
    103  CG2      -14.3190   -1.8880   54.3200 C.3    97  THR97       0.0378
    104  N        -12.3910    1.5010   45.4980 N.3   101  ILE101     -0.1245
    105  CA       -11.0650    1.6430   46.0860 C.3   101  ILE101      0.1561
    106  C        -10.5860    3.0900   45.9990 C.2   101  ILE101      0.2260
    107  O        -10.6810    3.7180   44.9460 O.2   101  ILE101     -0.2867
    108  CB       -10.0500    0.7140   45.3870 C.3   101  ILE101      0.0252
    109  CG1      -10.3790   -0.7490   45.6910 C.3   101  ILE101      0.0019
    110  CG2       -8.6240    1.0500   45.8030 C.3   101  ILE101      0.0019
    111  CD1       -9.6310   -1.7410   44.8260 C.3   101  ILE101      0.0001
@<TRIPOS>BOND
     1   111   109    1
     2   107   106    2
     3   108   109    1
     4   108   110    1
     5   108   105    1
     6   104   105    1
     7   106   105    1
     8    48    49    1
     9    52    49    1
    10    52    53    1
    11    92    90   ar
    12    92    91   ar
    13    90    88   ar
    14    49    50    1
    15    91    89   ar
    16    88    87   ar
    17    88    86   ar
    18    89    86   ar
    19    87    85   ar
    20    86    84   ar
    21    85    84   ar
    22    84    83    1
    23    51    50    2
    24    54    53    1
    25    54    55    1
    26    57    56    1
    27    83    80    1
    28    55    56    2
    29    56    58    1
    30    94    95    1
    31    94    93    1
    32    96    95    2
    33    80    81    1
    34    80    79    1
    35    95    97   am
    36    47    45   am
    37    81    82    2
    38    45    44    1
    39    45    46    2
    40    44    41    1
    41   100    99    2
    42    97    98    1
    43    99    98    1
    44    98   101    1
    45    63    64    1
    46    63    60    1
    47    42    41    1
    48    42    43    2
    49    35    37   ar
    50    35    33   ar
    51    66    64   ar
    52    66    68   ar
    53    41    40    1
    54    37    38   ar
    55    10     8   ar
    56    10     9   ar
    57    64    65   ar
    58    68    69   ar
    59    32    33    1
    60    32    29    1
    61    33    34   ar
    62    38    39    1
    63    38    36   ar
    64    65    67   ar
    65    31    30    2
    66    69    67   ar
    67    69    70    1
    68     8     6   ar
    69     9     7   ar
    70    60    59    1
    71    60    61    1
    72    34    36   ar
    73   101   103    1
    74   101   102    1
    75    18    16   am
    76    30    29    1
    77    29    28    1
    78     6     7   ar
    79     6     5    1
    80    61    71   am
    81    61    62    2
    82    27    26    1
    83    71    72    1
    84    26    25    1
    85    16    15    1
    86    16    17    2
    87    76    78    1
    88    76    77    1
    89    76    75    1
    90     5     2    1
    91    15    12    1
    92    72    75    1
    93    72    73    1
    94    25    24    1
    95     2     3    1
    96     2     1    1
    97    12    11    1
    98    12    13    1
    99    23    24    1
   100    23    20    1
   101    73    74    2
   102    22    21    2
   103     3     4    2
   104    21    20    1
   105    13    14    2
   106    20    19    1
