@<TRIPOS>MOLECULE
tmp/5tbpA01.pdb
 145 139 0 0 0
SMALL
GASTEIGER

@<TRIPOS>ATOM
      1  N         -3.4680   14.4210   16.4660 N.3     3  VAL3       -0.1245
      2  CA        -2.0780   13.9840   16.3540 C.3     3  VAL3        0.1561
      3  C         -1.1420   15.1860   16.3080 C.2     3  VAL3        0.2260
      4  O         -0.1310   15.2350   17.0190 O.2     3  VAL3       -0.2867
      5  CB        -1.9020   13.0800   15.1200 C.3     3  VAL3        0.0252
      6  CG1       -0.4430   12.6770   14.9480 C.3     3  VAL3        0.0019
      7  CG2       -2.7800   11.8400   15.2450 C.3     3  VAL3        0.0019
      8  N         -0.6800   16.7660   19.6720 N.3     6  ILE6       -0.1231
      9  CA         0.0690   15.9960   20.6590 C.3     6  ILE6        0.1692
     10  C          1.5640   16.0750   20.3770 C.2     6  ILE6        0.2592
     11  O          2.3820   16.1190   21.3030 O.2     6  ILE6       -0.2718
     12  CB        -0.4370   14.5430   20.6850 C.3     6  ILE6        0.0266
     13  CG1       -1.9120   14.5260   21.1070 C.3     6  ILE6        0.0019
     14  CG2        0.4130   13.6920   21.6290 C.3     6  ILE6        0.0020
     15  CD1       -2.5510   13.1610   21.1180 C.3     6  ILE6        0.0001
     16  N          1.9460   16.0950   19.1000 N.am    7  CYS7       -0.1970
     17  CA         3.3560   16.2490   18.7590 C.3     7  CYS7        0.1712
     18  C          3.8660   17.6260   19.1650 C.2     7  CYS7        0.2296
     19  O          4.9850   17.7560   19.6730 O.2     7  CYS7       -0.2864
     20  CB         3.5580   16.0100   17.2630 C.3     7  CYS7        0.0983
     21  SG         3.0450   14.3630   16.7200 S.3     7  CYS7       -0.0798
     22  N          2.5510   19.4050   21.6100 N.3     9  ALA9       -0.1231
     23  CA         2.5780   19.3650   23.0670 C.3     9  ALA9        0.1694
     24  C          3.8440   18.6880   23.5740 C.2     9  ALA9        0.2591
     25  O          4.4590   19.1480   24.5420 O.2     9  ALA9       -0.2718
     26  CB         1.3380   18.6450   23.5940 C.3     9  ALA9        0.0304
     27  N          4.2500   17.5920   22.9280 N.am   10  ALA10      -0.1980
     28  CA         5.4620   16.8930   23.3430 C.3    10  ALA10       0.1597
     29  C          6.6880   17.7870   23.2070 C.2    10  ALA10       0.2287
     30  O          7.5720   17.7770   24.0710 O.2    10  ALA10      -0.2864
     31  CB         5.6370   15.6180   22.5190 C.3    10  ALA10       0.0319
     32  N          6.7570   19.9470   26.0660 N.3    13  GLN13      -0.1245
     33  CA         7.1630   19.1260   27.1990 C.3    13  GLN13       0.1566
     34  C          8.6580   18.8330   27.1550 C.2    13  GLN13       0.2260
     35  O          9.3400   18.8830   28.1850 O.2    13  GLN13      -0.2867
     36  CB         6.3540   17.8300   27.2050 C.3    13  GLN13       0.0367
     37  CG         6.2830   17.1400   28.5560 C.3    13  GLN13       0.0905
     38  CD         5.3460   17.8480   29.5140 C.2    13  GLN13       0.2608
     39  OE1        4.7840   18.8950   29.1890 O.2    13  GLN13      -0.2717
     40  NE2        5.1690   17.2780   30.7000 N.am   13  GLN13      -0.0878
     41  N          9.3560   11.7400   33.3310 N.3    47  LEU47      -0.1245
     42  CA         7.9710   12.0590   32.9990 C.3    47  LEU47       0.1561
     43  C          6.9980   11.2860   33.8800 C.2    47  LEU47       0.2260
     44  O          6.0240   11.8560   34.3840 O.2    47  LEU47      -0.2867
     45  CB         7.6960   11.7520   31.5280 C.3    47  LEU47       0.0270
     46  CG         8.4260   12.5680   30.4650 C.3    47  LEU47       0.0019
     47  CD1        7.9470   12.1010   29.1020 C.3    47  LEU47       0.0001
     48  CD2        8.2070   14.0620   30.6460 C.3    47  LEU47       0.0001
     49  N          6.6090   12.8200   37.0830 N.3    50  SER50      -0.1202
     50  CA         5.9160   14.1030   37.0360 C.3    50  SER50       0.2020
     51  C          4.4030   13.9170   37.0430 C.2    50  SER50       0.2618
     52  O          3.7070   14.4640   37.9060 O.2    50  SER50      -0.2717
     53  CB         6.3600   14.8970   35.8060 C.3    50  SER50       0.2103
     54  OG         7.6380   15.4690   36.0110 O.3    50  SER50      -0.2182
     55  N          3.8650   13.1500   36.0870 N.am   51  PHE51      -0.1975
     56  CA         2.4130   13.0230   36.0170 C.3    51  PHE51       0.1639
     57  C          1.8560   12.1140   37.1040 C.2    51  PHE51       0.2290
     58  O          0.6540   12.1710   37.3780 O.2    51  PHE51      -0.2864
     59  CB         1.9600   12.5510   34.6230 C.3    51  PHE51       0.0560
     60  CG         2.3320   11.1270   34.2670 C.ar   51  PHE51      -0.0200
     61  CD1        1.8050   10.0450   34.9570 C.ar   51  PHE51      -0.0042
     62  CD2        3.1550   10.8760   33.1800 C.ar   51  PHE51      -0.0042
     63  CE1        2.1330    8.7490   34.6040 C.ar   51  PHE51      -0.0003
     64  CE2        3.4800    9.5810   32.8180 C.ar   51  PHE51      -0.0003
     65  CZ         2.9680    8.5170   33.5320 C.ar   51  PHE51      -0.0000
     66  N          1.5730   14.7800   39.7540 N.3    54  ARG54      -0.1245
     67  CA         0.5000   15.6590   39.3080 C.3    54  ARG54       0.1563
     68  C         -0.8710   15.0240   39.4930 C.2    54  ARG54       0.2260
     69  O         -1.8720   15.7450   39.5730 O.2    54  ARG54      -0.2867
     70  CB         0.7050   16.0250   37.8360 C.3    54  ARG54       0.0307
     71  CG        -0.2700   17.0650   37.3040 C.3    54  ARG54       0.0489
     72  CD        -0.0910   17.3040   35.8110 C.3    54  ARG54       0.2205
     73  NE         1.3130   17.4840   35.4410 N.pl3  54  ARG54      -0.0865
     74  CZ         1.9970   16.6910   34.6190 C.cat  54  ARG54       0.5346
     75  NH1        1.4250   15.6420   34.0400 N.pl3  54  ARG54       0.1354
     76  NH2        3.2680   16.9560   34.3630 N.pl3  54  ARG54       0.1354
     77  N         -2.3510   14.0620   32.5770 N.3    64  LEU64      -0.1231
     78  CA        -1.2310   14.3800   31.7060 C.3    64  LEU64       0.1693
     79  C         -1.0270   15.8940   31.6380 C.2    64  LEU64       0.2592
     80  O         -1.8640   16.6860   32.0810 O.2    64  LEU64      -0.2718
     81  CB        -1.4550   13.7960   30.3120 C.3    64  LEU64       0.0284
     82  CG        -1.3000   12.2740   30.2140 C.3    64  LEU64       0.0019
     83  CD1       -2.5390   11.5500   30.7250 C.3    64  LEU64       0.0001
     84  CD2       -0.9850   11.8450   28.7870 C.3    64  LEU64       0.0001
     85  N          0.1160   16.2930   31.0730 N.am   65  ALA65      -0.1966
     86  CA         0.4890   17.7040   31.0690 C.3    65  ALA65       0.1728
     87  C         -0.4810   18.5490   30.2520 C.2    65  ALA65       0.2616
     88  O         -0.6100   19.7530   30.5010 O.2    65  ALA65      -0.2715
     89  CB         1.9100   17.8680   30.5320 C.3    65  ALA65       0.0334
     90  N         -1.1670   17.9470   29.2830 N.am   66  THR66      -0.1951
     91  CA        -2.1210   18.6580   28.4410 C.3    66  THR66       0.1897
     92  C         -3.4940   18.8020   29.0890 C.2    66  THR66       0.2313
     93  O         -4.4820   19.0150   28.3750 O.2    66  THR66      -0.2863
     94  CB        -2.2670   17.9420   27.0950 C.3    66  THR66       0.1794
     95  OG1       -2.7720   16.6170   27.3080 O.3    66  THR66      -0.2208
     96  CG2       -0.9270   17.8630   26.3770 C.3    66  THR66       0.0378
     97  N          3.1150    1.9160   26.5940 N.3   175  PHE175     -0.1227
     98  CA         2.0960    2.5130   27.4510 C.3   175  PHE175      0.1736
     99  C          1.6520    3.8740   26.9280 C.2   175  PHE175      0.2595
    100  O          0.4550    4.1740   26.8760 O.2   175  PHE175     -0.2718
    101  CB         2.6530    2.6290   28.8720 C.3   175  PHE175      0.0547
    102  CG         1.6570    3.1000   29.8880 C.ar  175  PHE175     -0.0202
    103  CD1        0.6650    2.2530   30.3490 C.ar  175  PHE175     -0.0042
    104  CD2        1.7330    4.3810   30.4060 C.ar  175  PHE175     -0.0042
    105  CE1       -0.2440    2.6800   31.2940 C.ar  175  PHE175     -0.0003
    106  CE2        0.8280    4.8150   31.3530 C.ar  175  PHE175     -0.0003
    107  CZ        -0.1610    3.9620   31.7990 C.ar  175  PHE175     -0.0000
    108  N          2.6110    4.7090   26.5260 N.am  176  PHE176     -0.1962
    109  CA         2.2850    6.0700   26.1080 C.3   176  PHE176      0.1771
    110  C          1.3830    6.0670   24.8810 C.2   176  PHE176      0.2619
    111  O          0.3930    6.8050   24.8190 O.2   176  PHE176     -0.2715
    112  CB         3.5700    6.8470   25.8210 C.3   176  PHE176      0.0574
    113  CG         4.6150    6.6920   26.8820 C.ar  176  PHE176     -0.0200
    114  CD1        4.3840    7.1430   28.1700 C.ar  176  PHE176     -0.0042
    115  CD2        5.8290    6.0920   26.5930 C.ar  176  PHE176     -0.0042
    116  CE1        5.3410    6.9980   29.1480 C.ar  176  PHE176     -0.0003
    117  CE2        6.7900    5.9460   27.5690 C.ar  176  PHE176     -0.0003
    118  CZ         6.5430    6.4010   28.8480 C.ar  176  PHE176     -0.0000
    119  N          1.7130    5.2380   23.8900 N.am  177  PHE177     -0.1974
    120  CA         0.9610    5.2360   22.6410 C.3   177  PHE177      0.1639
    121  C         -0.4480    4.6890   22.8360 C.2   177  PHE177      0.2290
    122  O         -1.4160    5.2580   22.3200 O.2   177  PHE177     -0.2864
    123  CB         1.7160    4.4230   21.5880 C.3   177  PHE177      0.0560
    124  CG         0.8610    3.9720   20.4400 C.ar  177  PHE177     -0.0200
    125  CD1        0.5780    4.8290   19.3900 C.ar  177  PHE177     -0.0042
    126  CD2        0.3490    2.6850   20.4060 C.ar  177  PHE177     -0.0042
    127  CE1       -0.2070    4.4140   18.3330 C.ar  177  PHE177     -0.0003
    128  CE2       -0.4370    2.2630   19.3500 C.ar  177  PHE177     -0.0003
    129  CZ        -0.7150    3.1280   18.3130 C.ar  177  PHE177     -0.0000
    130  N         -2.3510    4.5750   25.4670 N.3   179  LEU179     -0.1231
    131  CA        -3.2530    5.3180   26.3420 C.3   179  LEU179      0.1693
    132  C         -4.0540    6.3540   25.5650 C.2   179  LEU179      0.2591
    133  O         -5.2270    6.5980   25.8710 O.2   179  LEU179     -0.2718
    134  CB        -2.4700    6.0080   27.4580 C.3   179  LEU179      0.0284
    135  CG        -2.2670    5.2990   28.7970 C.3   179  LEU179      0.0019
    136  CD1       -1.6650    6.2990   29.7740 C.3   179  LEU179      0.0001
    137  CD2       -3.5600    4.7170   29.3600 C.3   179  LEU179      0.0001
    138  N         -3.4380    6.9730   24.5610 N.am  180  ILE180     -0.1980
    139  CA        -4.0390    8.1020   23.8610 C.3   180  ILE180      0.1595
    140  C         -4.1180    7.8160   22.3690 C.2   180  ILE180      0.2287
    141  O         -4.9960    8.3380   21.6740 O.2   180  ILE180     -0.2864
    142  CB        -3.2460    9.3950   24.1260 C.3   180  ILE180      0.0276
    143  CG1       -1.7830    9.2490   23.6810 C.3   180  ILE180      0.0022
    144  CG2       -3.3080    9.7600   25.5980 C.3   180  ILE180      0.0022
    145  CD1       -1.5150    9.6830   22.2530 C.3   180  ILE180      0.0001
@<TRIPOS>BOND
     1     6     5    1
     2     5     7    1
     3     5     2    1
     4     3     2    1
     5     3     4    2
     6     2     1    1
     7    21    20    1
     8    20    17    1
     9   129   127   ar
    10   129   128   ar
    11   127   125   ar
    12    17    16    1
    13    17    18    1
    14    16    10   am
    15    18    19    2
    16   128   126   ar
    17   125   124   ar
    18     8     9    1
    19    10     9    1
    20    10    11    2
    21   126   124   ar
    22   124   123    1
    23     9    12    1
    24    12    13    1
    25    12    14    1
    26    13    15    1
    27   123   120    1
    28    22    23    1
    29   141   140    2
    30   145   143    1
    31   122   121    2
    32   140   139    1
    33    31    28    1
    34   120   121    1
    35   120   119    1
    36    27    28    1
    37    27    24   am
    38    23    24    1
    39    23    26    1
    40    29    28    1
    41    29    30    2
    42    24    25    2
    43   143   142    1
    44   139   142    1
    45   139   138    1
    46   119   110   am
    47   142   144    1
    48   138   132   am
    49   111   110    2
    50   110   109    1
    51   130   131    1
    52   132   133    2
    53   132   131    1
    54   112   109    1
    55   112   113    1
    56    32    33    1
    57   109   108    1
    58   131   134    1
    59    96    94    1
    60   108    99   am
    61   115   113   ar
    62   115   117   ar
    63    97    98    1
    64   100    99    2
    65   113   114   ar
    66    99    98    1
    67    94    95    1
    68    94    91    1
    69    34    33    1
    70    34    35    2
    71    33    36    1
    72    36    37    1
    73    98   101    1
    74   134   135    1
    75   117   118   ar
    76   114   116   ar
    77    93    92    2
    78    91    92    1
    79    91    90    1
    80    37    38    1
    81    84    82    1
    82   135   137    1
    83   135   136    1
    84   118   116   ar
    85   101   102    1
    86    47    46    1
    87    39    38    2
    88    90    87   am
    89    38    40   am
    90   102   103   ar
    91   102   104   ar
    92    82    81    1
    93    82    83    1
    94    87    88    2
    95    87    86    1
    96    81    78    1
    97   103   105   ar
    98   104   106   ar
    99    46    48    1
   100    46    45    1
   101    89    86    1
   102    86    85    1
   103    85    79   am
   104   105   107   ar
   105   106   107   ar
   106    45    42    1
   107    79    78    1
   108    79    80    2
   109    78    77    1
   110    64    62   ar
   111    64    65   ar
   112    42    41    1
   113    42    43    1
   114    62    60   ar
   115    65    63   ar
   116    43    44    2
   117    75    74    1
   118    60    59    1
   119    60    61   ar
   120    76    74    1
   121    63    61   ar
   122    74    73    2
   123    59    56    1
   124    73    72    1
   125    53    54    1
   126    53    50    1
   127    72    71    1
   128    56    55    1
   129    56    57    1
   130    55    51   am
   131    50    51    1
   132    50    49    1
   133    51    52    2
   134    57    58    2
   135    71    70    1
   136    70    67    1
   137    67    68    1
   138    67    66    1
   139    68    69    2
