@<TRIPOS>MOLECULE
tmp/5tbsA00.pdb
 99 92 0 0 0
SMALL
GASTEIGER

@<TRIPOS>ATOM
      1  N        102.9010  -76.2350   75.1270 N.3   116  LEU116     -0.1231
      2  CA       102.3370  -74.9110   74.8750 C.3   116  LEU116      0.1693
      3  C        100.8790  -75.0630   74.4260 C.2   116  LEU116      0.2592
      4  O        100.5710  -75.9730   73.6630 O.2   116  LEU116     -0.2718
      5  CB       103.1190  -74.1990   73.7650 C.3   116  LEU116      0.0284
      6  CG       104.4740  -73.5050   73.9890 C.3   116  LEU116      0.0019
      7  CD1      104.3650  -72.3820   74.9940 C.3   116  LEU116      0.0001
      8  CD2      105.5360  -74.4510   74.3590 C.3   116  LEU116      0.0001
      9  N         99.9980  -74.1450   74.8560 N.am  117  ALA117     -0.1966
     10  CA        98.5610  -74.2920   74.6050 C.3   117  ALA117      0.1728
     11  C         97.8800  -72.9250   74.5670 C.2   117  ALA117      0.2616
     12  O         98.4360  -71.9100   75.0230 O.2   117  ALA117     -0.2715
     13  CB        97.9070  -75.2050   75.6730 C.3   117  ALA117      0.0334
     14  N         96.6800  -72.8830   73.9850 N.am  118  GLY118     -0.1955
     15  CA        95.8890  -71.6520   73.9930 C.3   118  GLY118      0.1869
     16  C         94.9610  -71.6010   75.2030 C.2   118  GLY118      0.2309
     17  O         94.4230  -72.6150   75.6200 O.2   118  GLY118     -0.2863
     18  N         92.8760  -80.6410   70.2210 N.3   195  ASN195     -0.1240
     19  CA        92.5870  -80.2900   68.8210 C.3   195  ASN195      0.1653
     20  C         93.6850  -80.9160   67.9660 C.2   195  ASN195      0.2266
     21  O         94.8560  -80.5790   68.1380 O.2   195  ASN195     -0.2867
     22  CB        92.5530  -78.7510   68.6210 C.3   195  ASN195      0.1155
     23  CG        92.7830  -78.2840   67.1340 C.2   195  ASN195      0.2627
     24  OD1       92.4460  -78.9870   66.1950 O.2   195  ASN195     -0.2716
     25  ND2       93.3610  -77.0710   66.9450 N.am  195  ASN195     -0.0877
     26  N         95.7940  -73.3630   64.1600 N.3   200  TYR200     -0.1227
     27  CA        95.3030  -72.8800   65.4450 C.3   200  TYR200      0.1736
     28  C         93.7680  -72.8870   65.4260 C.2   200  TYR200      0.2595
     29  O         93.1460  -72.8110   64.3650 O.2   200  TYR200     -0.2718
     30  CB        95.8030  -71.4340   65.7100 C.3   200  TYR200      0.0548
     31  CG        97.3150  -71.3860   65.9860 C.ar  200  TYR200     -0.0200
     32  CD1       97.8470  -71.9400   67.1350 C.ar  200  TYR200     -0.0009
     33  CD2       98.1820  -70.7700   65.0960 C.ar  200  TYR200     -0.0009
     34  CE1       99.2150  -71.9290   67.3750 C.ar  200  TYR200      0.0417
     35  CE2       99.5590  -70.7590   65.3260 C.ar  200  TYR200      0.0417
     36  CZ       100.0580  -71.3440   66.4690 C.ar  200  TYR200      0.1957
     37  OH       101.4260  -71.3240   66.7000 O.3   200  TYR200     -0.2866
     38  N         93.1490  -72.9260   66.6120 N.am  201  GLU201     -0.1979
     39  CA        91.6900  -72.8800   66.7150 C.3   201  GLU201      0.1602
     40  C         91.1400  -71.5930   66.0890 C.2   201  GLU201      0.2287
     41  O         91.6570  -70.5010   66.3390 O.2   201  GLU201     -0.2864
     42  CB        91.2720  -73.0060   68.1970 C.3   201  GLU201      0.0415
     43  CG        91.7960  -71.9260   69.2210 C.3   201  GLU201      0.1163
     44  CD        93.2440  -72.0750   69.6750 C.2   201  GLU201      0.3649
     45  OE1       93.9340  -72.9510   69.1290 O.co2 201  GLU201     -0.2457
     46  OE2       93.7050  -71.2830   70.5580 O.co2 201  GLU201     -0.2457
     47  N         93.3520  -75.3430   75.2500 N.3   217  VAL217     -0.1231
     48  CA        93.3020  -76.1900   74.0480 C.3   217  VAL217      0.1692
     49  C         94.7170  -76.3480   73.4750 C.2   217  VAL217      0.2593
     50  O         95.4760  -75.3800   73.3900 O.2   217  VAL217     -0.2718
     51  CB        92.3350  -75.6170   72.9800 C.3   217  VAL217      0.0266
     52  CG1       92.7730  -74.1620   72.5550 C.3   217  VAL217      0.0020
     53  CG2       92.2510  -76.5820   71.7230 C.3   217  VAL217      0.0020
     54  N         95.0730  -77.5630   73.0550 N.am  218  GLY218     -0.1942
     55  CA        96.3640  -77.7360   72.3980 C.3   218  GLY218      0.2014
     56  C         96.3590  -78.9560   71.4830 C.2   218  GLY218      0.2638
     57  O         95.3360  -79.6420   71.3460 O.2   218  GLY218     -0.2714
     58  N         97.5510  -79.2550   70.9030 N.am  219  MET219     -0.1976
     59  CA        97.7150  -80.2220   69.8050 C.3   219  MET219      0.1605
     60  C         98.5480  -81.4460   70.1970 C.2   219  MET219      0.2287
     61  O         98.9990  -82.1950   69.3010 O.2   219  MET219     -0.2864
     62  CB        98.3700  -79.5360   68.5880 C.3   219  MET219      0.0413
     63  CG        97.6020  -78.3520   68.0240 C.3   219  MET219      0.0598
     64  SD        98.5020  -77.5630   66.6490 S.3   219  MET219     -0.1393
     65  CE        97.6350  -75.9920   66.6070 C.3   219  MET219      0.0692
     66  N        100.1260  -69.5580   75.9240 N.3   242  ALA242     -0.1231
     67  CA       100.7310  -68.5760   75.0070 C.3   242  ALA242      0.1694
     68  C         99.8950  -67.2970   74.8300 C.2   242  ALA242      0.2592
     69  O        100.4470  -66.2120   74.5910 O.2   242  ALA242     -0.2718
     70  CB       100.9550  -69.2130   73.6210 C.3   242  ALA242      0.0304
     71  N         98.5850  -67.3970   74.9170 N.am  243  ASN243     -0.1974
     72  CA        97.6710  -66.3050   74.5970 C.3   243  ASN243      0.1688
     73  C         96.3190  -66.7510   75.1210 C.2   243  ASN243      0.2292
     74  O         96.1120  -67.9440   75.3910 O.2   243  ASN243     -0.2864
     75  CB        97.5900  -66.0340   73.0920 C.3   243  ASN243      0.1181
     76  CG        96.8060  -67.1480   72.3420 C.2   243  ASN243      0.2629
     77  OD1       97.1500  -68.3200   72.4180 O.2   243  ASN243     -0.2716
     78  ND2       95.7410  -66.7660   71.6450 N.am  243  ASN243     -0.0877
     79  N         92.7870  -67.0730   73.6500 N.3   245  SER245     -0.1217
     80  CA        92.1790  -67.0230   72.3190 C.3   245  SER245      0.1889
     81  C         90.8370  -66.3190   72.3220 C.2   245  SER245      0.2288
     82  O         90.4370  -65.7640   71.2900 O.2   245  SER245     -0.2866
     83  CB        92.0030  -68.4480   71.7690 C.3   245  SER245      0.2089
     84  OG        93.2790  -69.0410   71.7100 O.3   245  SER245     -0.2183
     85  N         97.2810  -65.0190   66.4170 N.3   255  ILE255     -0.1245
     86  CA        98.3100  -65.8200   67.0900 C.3   255  ILE255      0.1561
     87  C         99.2460  -66.4010   66.0310 C.2   255  ILE255      0.2260
     88  O         98.8160  -66.7380   64.9180 O.2   255  ILE255     -0.2867
     89  CB        97.7000  -66.9210   67.9870 C.3   255  ILE255      0.0252
     90  CG1       98.7810  -67.6390   68.8190 C.3   255  ILE255      0.0019
     91  CG2       96.8960  -67.9380   67.1750 C.3   255  ILE255      0.0019
     92  CD1       99.7350  -66.6720   69.6200 C.3   255  ILE255      0.0001
     93  N        104.3440  -67.5040   70.1540 N.3   260  VAL260     -0.1245
     94  CA       104.3590  -68.6650   71.0330 C.3   260  VAL260      0.1561
     95  C        105.7600  -68.9010   71.5850 C.2   260  VAL260      0.2260
     96  O        105.9350  -69.1580   72.7800 O.2   260  VAL260     -0.2867
     97  CB       103.8500  -69.9090   70.2770 C.3   260  VAL260      0.0252
     98  CG1      104.1280  -71.1790   71.0940 C.3   260  VAL260      0.0019
     99  CG2      102.3310  -69.7570   69.9620 C.3   260  VAL260      0.0019
@<TRIPOS>BOND
     1    26    27    1
     2    29    28    2
     3    88    87    2
     4    33    35   ar
     5    33    31   ar
     6    35    36   ar
     7    28    27    1
     8    28    38   am
     9    27    30    1
    10    30    31    1
    11    31    32   ar
    12    87    86    1
    13    40    41    2
    14    40    39    1
    15    24    23    2
    16    85    86    1
    17    36    37    1
    18    36    34   ar
    19    65    64    1
    20    38    39    1
    21    64    63    1
    22    39    42    1
    23    25    23   am
    24    86    89    1
    25    23    22    1
    26    32    34   ar
    27    91    89    1
    28    20    21    2
    29    20    19    1
    30    89    90    1
    31    63    62    1
    32    42    43    1
    33    62    59    1
    34    22    19    1
    35    90    92    1
    36    19    18    1
    37    45    44   ar
    38    43    44    1
    39    61    60    2
    40    44    46   ar
    41    59    60    1
    42    59    58    1
    43    99    97    1
    44    93    94    1
    45    97    94    1
    46    97    98    1
    47    58    56   am
    48    94    95    1
    49    82    81    2
    50    57    56    2
    51    56    55    1
    52    95    96    2
    53    78    76   am
    54    84    83    1
    55    53    51    1
    56    83    80    1
    57    80    81    1
    58    80    79    1
    59    76    77    2
    60    76    75    1
    61    55    54    1
    62    52    51    1
    63    51    48    1
    64    54    49   am
    65    75    72    1
    66    50    49    2
    67    49    48    1
    68    70    67    1
    69     4     3    2
    70     5     6    1
    71     5     2    1
    72    14    15    1
    73    14    11   am
    74     6     8    1
    75     6     7    1
    76    15    16    1
    77    48    47    1
    78     3     9   am
    79     3     2    1
    80    11    10    1
    81    11    12    2
    82    69    68    2
    83    72    71    1
    84    72    73    1
    85    10     9    1
    86    10    13    1
    87    68    71   am
    88    68    67    1
    89     2     1    1
    90    67    66    1
    91    73    74    2
    92    16    17    2
