@<TRIPOS>MOLECULE
tmp/5tbtA00.pdb
 145 138 0 0 0
SMALL
GASTEIGER

@<TRIPOS>ATOM
      1  N        107.1120  177.1110   77.3640 N.3    31  SER31      -0.1217
      2  CA       107.9360  176.2920   78.2430 C.3    31  SER31       0.1889
      3  C        108.6200  175.1800   77.4600 C.2    31  SER31       0.2288
      4  O        107.9630  174.3990   76.7650 O.2    31  SER31      -0.2866
      5  CB       107.0740  175.7050   79.3590 C.3    31  SER31       0.2089
      6  OG       106.4420  176.7330   80.1040 O.3    31  SER31      -0.2183
      7  N        104.0290  185.3520   83.4230 N.3    84  HIS84      -0.1241
      8  CA       102.6700  184.8330   83.4620 C.3    84  HIS84       0.1621
      9  C        101.8940  185.5130   84.5810 C.2    84  HIS84       0.2264
     10  O        102.4470  185.7980   85.6470 O.2    84  HIS84      -0.2867
     11  CB       102.6670  183.3200   83.6690 C.3    84  HIS84       0.0745
     12  CG       103.2460  182.5530   82.5230 C.ar   84  HIS84       0.0817
     13  ND1      104.3960  181.8020   82.6330 N.ar   84  HIS84      -0.2268
     14  CD2      102.8340  182.4230   81.2410 C.ar   84  HIS84       0.1154
     15  CE1      104.6660  181.2400   81.4680 C.ar   84  HIS84       0.1986
     16  NE2      103.7330  181.6010   80.6060 N.ar   84  HIS84      -0.2212
     17  N         99.4630  184.3490   86.4070 N.3    86  TYR86      -0.1241
     18  CA        99.2080  183.5320   87.5870 C.3    86  TYR86       0.1605
     19  C        100.3270  183.6560   88.6140 C.2    86  TYR86       0.2264
     20  O        100.1330  183.2780   89.7740 O.2    86  TYR86      -0.2867
     21  CB        98.9950  182.0600   87.2000 C.3    86  TYR86       0.0534
     22  CG       100.1370  181.4000   86.4490 C.ar   86  TYR86      -0.0201
     23  CD1      101.3460  181.1210   87.0780 C.ar   86  TYR86      -0.0009
     24  CD2       99.9890  181.0220   85.1220 C.ar   86  TYR86      -0.0009
     25  CE1      102.3810  180.5130   86.4000 C.ar   86  TYR86       0.0417
     26  CE2      101.0190  180.4080   84.4370 C.ar   86  TYR86       0.0417
     27  CZ       102.2110  180.1560   85.0800 C.ar   86  TYR86       0.1957
     28  OH       103.2390  179.5460   84.4000 O.3    86  TYR86      -0.2866
     29  N        103.0360  178.6020   72.8650 N.3   113  ASN113     -0.1225
     30  CA       102.6570  178.2010   74.2100 C.3   113  ASN113      0.1785
     31  C        102.3430  176.7120   74.2180 C.2   113  ASN113      0.2597
     32  O        102.1880  176.0810   73.1690 O.2   113  ASN113     -0.2718
     33  CB       101.4570  179.0070   74.7290 C.3   113  ASN113      0.1169
     34  CG       100.1890  178.7830   73.9120 C.2   113  ASN113      0.2627
     35  OD1       99.6800  177.6640   73.8160 O.2   113  ASN113     -0.2716
     36  ND2       99.6600  179.8580   73.3430 N.am  113  ASN113     -0.0877
     37  N        102.2560  176.1590   75.4250 N.am  114  LEU114     -0.1966
     38  CA       101.7370  174.8180   75.6620 C.3   114  LEU114      0.1728
     39  C        100.3040  174.9340   76.1580 C.2   114  LEU114      0.2616
     40  O         99.9790  175.8380   76.9330 O.2   114  LEU114     -0.2715
     41  CB       102.5750  174.0630   76.6980 C.3   114  LEU114      0.0311
     42  CG       103.7680  173.2110   76.2570 C.3   114  LEU114      0.0022
     43  CD1      103.3250  171.9970   75.4470 C.3   114  LEU114      0.0001
     44  CD2      104.7800  174.0370   75.4850 C.3   114  LEU114      0.0001
     45  N         99.4450  174.0210   75.7140 N.am  115  ALA115     -0.1963
     46  CA        98.0350  174.1540   76.0400 C.3   115  ALA115      0.1728
     47  C         97.3570  172.7920   76.0260 C.2   115  ALA115      0.2616
     48  O         97.8880  171.8090   75.5020 O.2   115  ALA115     -0.2715
     49  CB        97.3380  175.1140   75.0750 C.3   115  ALA115      0.0334
     50  N         96.1690  172.7520   76.6240 N.am  116  GLY116     -0.1955
     51  CA        95.3620  171.5470   76.6430 C.3   116  GLY116      0.1869
     52  C         94.3610  171.5450   75.5020 C.2   116  GLY116      0.2309
     53  O         93.8170  172.5800   75.1290 O.2   116  GLY116     -0.2863
     54  N         92.5420  180.4750   80.5410 N.3   193  ASN193     -0.1240
     55  CA        92.3200  180.0940   81.9290 C.3   193  ASN193      0.1653
     56  C         93.3960  180.7480   82.7850 C.2   193  ASN193      0.2266
     57  O         94.5910  180.5350   82.5550 O.2   193  ASN193     -0.2867
     58  CB        92.3350  178.5750   82.0840 C.3   193  ASN193      0.1155
     59  CG        92.5640  178.1370   83.5160 C.2   193  ASN193      0.2627
     60  OD1       92.0300  178.7250   84.4550 O.2   193  ASN193     -0.2716
     61  ND2       93.3770  177.0990   83.6900 N.am  193  ASN193     -0.0877
     62  N         95.4140  173.3730   86.4710 N.3   198  TYR198     -0.1227
     63  CA        94.9520  172.9410   85.1620 C.3   198  TYR198      0.1736
     64  C         93.4290  172.9520   85.1150 C.2   198  TYR198      0.2595
     65  O         92.7480  172.8850   86.1420 O.2   198  TYR198     -0.2718
     66  CB        95.4710  171.5430   84.8320 C.3   198  TYR198      0.0548
     67  CG        96.9670  171.4710   84.6450 C.ar  198  TYR198     -0.0200
     68  CD1       97.5730  172.0190   83.5240 C.ar  198  TYR198     -0.0009
     69  CD2       97.7710  170.8440   85.5860 C.ar  198  TYR198     -0.0009
     70  CE1       98.9390  171.9520   83.3470 C.ar  198  TYR198      0.0417
     71  CE2       99.1360  170.7710   85.4190 C.ar  198  TYR198      0.0417
     72  CZ        99.7160  171.3280   84.2990 C.ar  198  TYR198      0.1957
     73  OH       101.0790  171.2570   84.1250 O.3   198  TYR198     -0.2866
     74  N         92.8940  173.0460   83.9000 N.am  199  GLU199     -0.1979
     75  CA        91.4500  173.0190   83.7220 C.3   199  GLU199      0.1602
     76  C         90.8770  171.7320   84.3010 C.2   199  GLU199      0.2287
     77  O         91.3720  170.6330   84.0290 O.2   199  GLU199     -0.2864
     78  CB        91.0910  173.1510   82.2380 C.3   199  GLU199      0.0415
     79  CG        91.5860  172.0190   81.3480 C.3   199  GLU199      0.1163
     80  CD        93.0110  172.2090   80.8740 C.2   199  GLU199      0.3649
     81  OE1       93.6640  173.1730   81.3200 O.co2 199  GLU199     -0.2457
     82  OE2       93.4710  171.3980   80.0460 O.co2 199  GLU199     -0.2457
     83  N         92.7910  175.4230   75.5120 N.3   215  VAL215     -0.1231
     84  CA        92.7750  176.1880   76.7560 C.3   215  VAL215      0.1692
     85  C         94.1910  176.2660   77.3180 C.2   215  VAL215      0.2593
     86  O         94.9170  175.2650   77.3500 O.2   215  VAL215     -0.2718
     87  CB        91.7980  175.5730   77.7830 C.3   215  VAL215      0.0266
     88  CG1       92.1260  174.1100   78.0290 C.3   215  VAL215      0.0020
     89  CG2       91.8190  176.3670   79.0810 C.3   215  VAL215      0.0020
     90  N         94.5810  177.4650   77.7610 N.am  216  GLY216     -0.1942
     91  CA        95.9000  177.6810   78.3220 C.3   216  GLY216      0.2014
     92  C         95.9130  178.8880   79.2350 C.2   216  GLY216      0.2639
     93  O         94.9110  179.5890   79.3940 O.2   216  GLY216     -0.2714
     94  N         97.0860  179.1370   79.8200 N.am  217  MET217     -0.1963
     95  CA        97.2400  180.1080   80.8970 C.3   217  MET217      0.1736
     96  C         98.0280  181.3520   80.4990 C.2   217  MET217      0.2617
     97  O         98.4640  182.0990   81.3840 O.2   217  MET217     -0.2715
     98  CB        97.9210  179.4580   82.1040 C.3   217  MET217      0.0427
     99  CG        97.2290  178.2250   82.6580 C.3   217  MET217      0.0599
    100  SD        98.1720  177.4900   84.0140 S.3   217  MET217     -0.1393
    101  CE        97.3620  175.9000   84.1700 C.3   217  MET217      0.0692
    102  N         98.2320  181.6020   79.2110 N.am  218  SER218     -0.1950
    103  CA        99.1280  182.6810   78.8000 C.3   218  SER218      0.1924
    104  C         98.6000  183.3140   77.5160 C.2   218  SER218      0.2314
    105  O         97.4310  183.1510   77.1460 O.2   218  SER218     -0.2863
    106  CB       100.5620  182.1440   78.6350 C.3   218  SER218      0.2116
    107  OG       100.6770  181.3300   77.4810 O.3   218  SER218     -0.2180
    108  N         99.5600  169.6190   74.6070 N.3   240  ALA240     -0.1231
    109  CA       100.1890  168.6980   75.5480 C.3   240  ALA240      0.1694
    110  C         99.3530  167.4440   75.7630 C.2   240  ALA240      0.2592
    111  O         99.9080  166.3670   76.0060 O.2   240  ALA240     -0.2718
    112  CB       100.4340  169.3970   76.8870 C.3   240  ALA240      0.0304
    113  N         98.0330  167.5620   75.6630 N.am  241  ASN241     -0.1974
    114  CA        97.1150  166.4750   75.9720 C.3   241  ASN241      0.1688
    115  C         95.7320  166.8710   75.4800 C.2   241  ASN241      0.2292
    116  O         95.4710  168.0440   75.1990 O.2   241  ASN241     -0.2864
    117  CB        97.0760  166.1890   77.4750 C.3   241  ASN241      0.1181
    118  CG        96.3790  167.2920   78.2570 C.2   241  ASN241      0.2629
    119  OD1       96.9180  168.3880   78.4260 O.2   241  ASN241     -0.2716
    120  ND2       95.1740  167.0060   78.7350 N.am  241  ASN241     -0.0877
    121  N         97.0480  165.0310   84.5550 N.3   253  ILE253     -0.1245
    122  CA        97.9580  165.9430   83.8760 C.3   253  ILE253      0.1561
    123  C         99.0060  166.3920   84.8830 C.2   253  ILE253      0.2260
    124  O         98.7280  166.4980   86.0820 O.2   253  ILE253     -0.2867
    125  CB        97.2160  167.1660   83.2880 C.3   253  ILE253      0.0252
    126  CG1       95.8650  166.7480   82.7110 C.3   253  ILE253      0.0019
    127  CG2       98.0580  167.8450   82.2200 C.3   253  ILE253      0.0019
    128  CD1       94.9470  167.9150   82.4100 C.3   253  ILE253      0.0001
    129  N        103.0510  168.8270   84.9510 N.3   255  HIS255     -0.1241
    130  CA       104.0240  169.6240   84.2120 C.3   255  HIS255      0.1621
    131  C        105.1660  168.7900   83.6480 C.2   255  HIS255      0.2264
    132  O        105.7890  169.2060   82.6640 O.2   255  HIS255     -0.2867
    133  CB       104.5860  170.7250   85.1100 C.3   255  HIS255      0.0745
    134  CG       105.3990  171.7460   84.3760 C.ar  255  HIS255      0.0817
    135  ND1      104.9570  172.3590   83.2240 N.ar  255  HIS255     -0.2268
    136  CD2      106.6260  172.2620   84.6290 C.ar  255  HIS255      0.1154
    137  CE1      105.8760  173.2070   82.7990 C.ar  255  HIS255      0.1986
    138  NE2      106.8980  173.1690   83.6350 N.ar  255  HIS255     -0.2212
    139  N        103.9130  167.6140   80.4030 N.3   258  VAL258     -0.1245
    140  CA       103.8520  168.7510   79.4880 C.3   258  VAL258      0.1561
    141  C        105.2290  169.0340   78.9020 C.2   258  VAL258      0.2260
    142  O        105.3780  169.2470   77.6930 O.2   258  VAL258     -0.2867
    143  CB       103.2830  169.9840   80.2110 C.3   258  VAL258      0.0252
    144  CG1      103.4810  171.2340   79.3670 C.3   258  VAL258      0.0019
    145  CG2      101.8100  169.7780   80.5280 C.3   258  VAL258      0.0019
@<TRIPOS>BOND
     1    29    30    1
     2    32    31    2
     3    36    34   am
     4    35    34    2
     5    34    33    1
     6    30    31    1
     7    30    33    1
     8    31    37   am
     9   108   109    1
    10    49    46    1
    11    53    52    2
    12   116   115    2
    13    37    38    1
    14    43    42    1
    15   115   114    1
    16    44    42    1
    17    52    51    1
    18    48    47    2
    19    83    84    1
    20   109   110    1
    21   109   112    1
    22    38    39    1
    23    38    41    1
    24   113   110   am
    25   113   114    1
    26    45    46    1
    27    45    39   am
    28   110   111    2
    29   114   117    1
    30    47    46    1
    31    47    50   am
    32    39    40    2
    33    42    41    1
    34    50    51    1
    35    84    85    1
    36    84    87    1
    37     4     3    2
    38   105   104    2
    39    85    86    2
    40    85    90   am
    41     1     2    1
    42     3     2    1
    43   117   118    1
    44   107   106    1
    45   104   103    1
    46   142   141    2
    47    90    91    1
    48    87    88    1
    49    87    89    1
    50     2     5    1
    51   118   119    2
    52   118   120   am
    53    91    92    1
    54   106   103    1
    55   103   102    1
    56   141   140    1
    57   102    96   am
    58    92    93    2
    59    92    94   am
    60     5     6    1
    61   144   143    1
    62   140   143    1
    63   140   139    1
    64    94    95    1
    65    82    80   ar
    66   143   145    1
    67    96    95    1
    68    96    97    2
    69    54    55    1
    70    16    14   ar
    71    16    15   ar
    72    80    81   ar
    73    80    79    1
    74    95    98    1
    75    14    12   ar
    76    79    78    1
    77    15    13   ar
    78    55    58    1
    79    55    56    1
    80    58    59    1
    81    98    99    1
    82   127   125    1
    83    78    75    1
    84   128   126    1
    85    12    13   ar
    86    12    11    1
    87    57    56    2
    88    99   100    1
    89   132   131    2
    90   126   125    1
    91   137   135   ar
    92   137   138   ar
    93   135   134   ar
    94   125   122    1
    95    70    68   ar
    96    70    72   ar
    97     7     8    1
    98     8    11    1
    99     8     9    1
   100    59    61   am
   101    59    60    2
   102    68    67   ar
   103   138   136   ar
   104   131   130    1
   105    75    74    1
   106    75    76    1
   107   122   121    1
   108   122   123    1
   109    74    64   am
   110   100   101    1
   111    77    76    2
   112    73    72    1
   113   130   129    1
   114   130   133    1
   115    72    71   ar
   116   134   136   ar
   117   134   133    1
   118    28    27    1
   119    26    27   ar
   120    26    24   ar
   121     9    10    2
   122    67    66    1
   123    67    69   ar
   124    66    63    1
   125   123   124    2
   126    27    25   ar
   127    64    63    1
   128    64    65    2
   129    24    22   ar
   130    63    62    1
   131    71    69   ar
   132    25    23   ar
   133    17    18    1
   134    22    23   ar
   135    22    21    1
   136    21    18    1
   137    18    19    1
   138    19    20    2
