@<TRIPOS>MOLECULE
tmp/5tbuA00.pdb
 91 85 0 0 0
SMALL
GASTEIGER

@<TRIPOS>ATOM
      1  N          0.5960  -22.8330   -0.1410 N.3   114  LEU114     -0.1231
      2  CA        -0.7300  -23.3710   -0.4080 C.3   114  LEU114      0.1693
      3  C         -0.5900  -24.8080   -0.8950 C.2   114  LEU114      0.2592
      4  O          0.3630  -25.1390   -1.6080 O.2   114  LEU114     -0.2718
      5  CB        -1.4680  -22.5340   -1.4580 C.3   114  LEU114      0.0284
      6  CG        -2.1060  -21.1890   -1.0830 C.3   114  LEU114      0.0019
      7  CD1       -3.0870  -21.3670    0.0640 C.3   114  LEU114      0.0001
      8  CD2       -1.0700  -20.1220   -0.7560 C.3   114  LEU114      0.0001
      9  N         -1.5370  -25.6600   -0.5110 N.am  115  ALA115     -0.1966
     10  CA        -1.4530  -27.0690   -0.8700 C.3   115  ALA115      0.1728
     11  C         -2.8330  -27.7040   -0.7600 C.2   115  ALA115      0.2616
     12  O         -3.7920  -27.0860   -0.2920 O.2   115  ALA115     -0.2715
     13  CB        -0.4370  -27.8010    0.0100 C.3   115  ALA115      0.0334
     14  N         -2.9170  -28.9540   -1.2070 N.am  116  GLY116     -0.1955
     15  CA        -4.1420  -29.7250   -1.1410 C.3   116  GLY116      0.1869
     16  C         -4.0930  -30.7740   -0.0440 C.2   116  GLY116      0.2309
     17  O         -3.0330  -31.3000    0.2890 O.2   116  GLY116     -0.2863
     18  N         -2.2800  -29.9190  -11.2110 N.3   198  TYR198     -0.1227
     19  CA        -2.8240  -30.4670   -9.9780 C.3   198  TYR198      0.1736
     20  C         -2.8750  -31.9870  -10.0750 C.2   198  TYR198      0.2595
     21  O         -2.9470  -32.5610  -11.1660 O.2   198  TYR198     -0.2718
     22  CB        -4.2220  -29.9040   -9.6980 C.3   198  TYR198      0.0548
     23  CG        -4.2500  -28.4230   -9.3740 C.ar  198  TYR198     -0.0200
     24  CD1       -3.7020  -27.9390   -8.1900 C.ar  198  TYR198     -0.0009
     25  CD2       -4.8360  -27.5120  -10.2440 C.ar  198  TYR198     -0.0009
     26  CE1       -3.7280  -26.5870   -7.8880 C.ar  198  TYR198      0.0417
     27  CE2       -4.8690  -26.1580   -9.9490 C.ar  198  TYR198      0.0417
     28  CZ        -4.3120  -25.7020   -8.7710 C.ar  198  TYR198      0.1957
     29  OH        -4.3400  -24.3560   -8.4750 O.3   198  TYR198     -0.2866
     30  N         -2.8110  -32.6420   -8.9200 N.am  199  GLU199     -0.1979
     31  CA        -2.8530  -34.0970   -8.8940 C.3   199  GLU199      0.1602
     32  C         -4.1680  -34.5920   -9.4840 C.2   199  GLU199      0.2287
     33  O         -5.2400  -34.0500   -9.1980 O.2   199  GLU199     -0.2864
     34  CB        -2.6940  -34.6170   -7.4630 C.3   199  GLU199      0.0415
     35  CG        -1.4230  -34.1690   -6.7430 C.3   199  GLU199      0.1163
     36  CD        -1.4830  -32.7220   -6.2810 C.2   199  GLU199      0.3649
     37  OE1       -0.4730  -32.0050   -6.4450 O.co2 199  GLU199     -0.2457
     38  OE2       -2.5430  -32.3010   -5.7680 O.co2 199  GLU199     -0.2457
     39  N         -0.2020  -32.4540   -0.0700 N.3   215  VAL215     -0.1231
     40  CA         0.5660  -32.4710   -1.3130 C.3   215  VAL215      0.1692
     41  C          0.6250  -31.0520   -1.8690 C.2   215  VAL215      0.2593
     42  O         -0.3900  -30.3490   -1.9030 O.2   215  VAL215     -0.2718
     43  CB        -0.0310  -33.4460   -2.3510 C.3   215  VAL215      0.0266
     44  CG1       -1.4980  -33.1310   -2.6210 C.3   215  VAL215      0.0020
     45  CG2        0.7780  -33.4140   -3.6430 C.3   215  VAL215      0.0020
     46  N          1.8180  -30.6250   -2.2860 N.am  216  GLY216     -0.1942
     47  CA         2.0200  -29.3040   -2.8420 C.3   216  GLY216      0.2014
     48  C          3.1710  -29.3210   -3.8260 C.2   216  GLY216      0.2638
     49  O          3.7980  -30.3570   -4.0550 O.2   216  GLY216     -0.2714
     50  N          3.4600  -28.1510   -4.4020 N.am  217  MET217     -0.1976
     51  CA         4.4220  -28.0480   -5.4940 C.3   217  MET217      0.1605
     52  C          5.6550  -27.2190   -5.1370 C.2   217  MET217      0.2287
     53  O          6.3290  -26.7120   -6.0400 O.2   217  MET217     -0.2864
     54  CB         3.7510  -27.4570   -6.7380 C.3   217  MET217      0.0413
     55  CG         2.4410  -28.1180   -7.1440 C.3   217  MET217      0.0598
     56  SD         1.7320  -27.3460   -8.6190 S.3   217  MET217     -0.1393
     57  CE         0.1110  -28.1100   -8.6810 C.3   217  MET217      0.0692
     58  N         -6.1020  -25.5400    0.7820 N.3   240  ALA240     -0.1231
     59  CA        -7.0970  -24.8920   -0.0610 C.3   240  ALA240      0.1694
     60  C         -8.2880  -25.7910   -0.3610 C.2   240  ALA240      0.2592
     61  O         -9.3930  -25.2860   -0.5900 O.2   240  ALA240     -0.2718
     62  CB        -6.4580  -24.4330   -1.3750 C.3   240  ALA240      0.0304
     63  N         -8.0910  -27.1070   -0.3480 N.am  241  ASN241     -0.1974
     64  CA        -9.1350  -28.0660   -0.6800 C.3   241  ASN241      0.1688
     65  C         -8.6280  -29.4570   -0.3410 C.2   241  ASN241      0.2292
     66  O         -7.4210  -29.6800   -0.2080 O.2   241  ASN241     -0.2864
     67  CB        -9.5200  -27.9890   -2.1590 C.3   241  ASN241      0.1181
     68  CG        -8.3360  -28.2300   -3.0770 C.2   241  ASN241      0.2629
     69  OD1       -7.4900  -27.3530   -3.2560 O.2   241  ASN241     -0.2716
     70  ND2       -8.2660  -29.4240   -3.6590 N.am  241  ASN241     -0.0877
     71  N         -8.4720  -32.9200   -2.0310 N.3   243  SER243     -0.1217
     72  CA        -8.6340  -33.5410   -3.3410 C.3   243  SER243      0.1889
     73  C         -9.2530  -34.9300   -3.2570 C.2   243  SER243      0.2288
     74  O         -9.7720  -35.4250   -4.2630 O.2   243  SER243     -0.2866
     75  CB        -7.2870  -33.6140   -4.0560 C.3   243  SER243      0.2089
     76  OG        -6.7020  -32.3280   -4.1720 O.3   243  SER243     -0.2183
     77  N        -10.6650  -28.3850   -9.3830 N.3   253  ILE253     -0.1245
     78  CA        -9.5970  -27.7120   -8.6510 C.3   253  ILE253      0.1561
     79  C         -8.9840  -26.6800   -9.5880 C.2   253  ILE253      0.2260
     80  O         -8.5040  -27.0330  -10.6710 O.2   253  ILE253     -0.2867
     81  CB        -8.5270  -28.7040   -8.1650 C.3   253  ILE253      0.0252
     82  CG1       -9.1770  -29.9200   -7.4970 C.3   253  ILE253      0.0019
     83  CG2       -7.5500  -28.0220   -7.2190 C.3   253  ILE253      0.0019
     84  CD1       -8.2220  -31.0730   -7.2730 C.3   253  ILE253      0.0001
     85  N         -8.1230  -21.4610   -5.1260 N.3   258  VAL258     -0.1245
     86  CA        -7.0040  -21.5450   -4.1940 C.3   258  VAL258      0.1561
     87  C         -6.6650  -20.1650   -3.6410 C.2   258  VAL258      0.2260
     88  O         -6.4840  -19.9920   -2.4310 O.2   258  VAL258     -0.2867
     89  CB        -5.7880  -22.1980   -4.8750 C.3   258  VAL258      0.0252
     90  CG1       -4.5680  -22.1300   -3.9700 C.3   258  VAL258      0.0019
     91  CG2       -6.1040  -23.6420   -5.2440 C.3   258  VAL258      0.0019
@<TRIPOS>BOND
     1    18    19    1
     2    21    20    2
     3    80    79    2
     4    25    27   ar
     5    25    23   ar
     6    20    19    1
     7    20    30   am
     8    19    22    1
     9    27    28   ar
    10    22    23    1
    11    79    78    1
    12    32    33    2
    13    32    31    1
    14    77    78    1
    15    23    24   ar
    16    30    31    1
    17    31    34    1
    18    28    29    1
    19    28    26   ar
    20    57    56    1
    21    78    81    1
    22    56    55    1
    23    24    26   ar
    24    81    82    1
    25    81    83    1
    26    82    84    1
    27    34    35    1
    28    55    54    1
    29    35    36    1
    30    54    51    1
    31    37    36   ar
    32    36    38   ar
    33    53    52    2
    34    51    52    1
    35    51    50    1
    36    91    89    1
    37    85    86    1
    38    89    86    1
    39    89    90    1
    40    50    48   am
    41    74    73    2
    42    86    87    1
    43    76    75    1
    44    75    72    1
    45    49    48    2
    46    48    47    1
    47    70    68   am
    48    45    43    1
    49    87    88    2
    50    72    73    1
    51    72    71    1
    52    69    68    2
    53    68    67    1
    54    47    46    1
    55    44    43    1
    56    43    40    1
    57    46    41   am
    58    67    64    1
    59    42    41    2
    60    41    40    1
    61     4     3    2
    62     5     6    1
    63     5     2    1
    64    62    59    1
    65    40    39    1
    66    14    15    1
    67    14    11   am
    68    15    16    1
    69     6     8    1
    70     6     7    1
    71     3     9   am
    72     3     2    1
    73    10    11    1
    74    10     9    1
    75    10    13    1
    76    11    12    2
    77    64    63    1
    78    64    65    1
    79    61    60    2
    80     2     1    1
    81    60    63   am
    82    60    59    1
    83    65    66    2
    84    59    58    1
    85    16    17    2
