@<TRIPOS>MOLECULE
tmp/5tbvA00.pdb
 147 140 0 0 0
SMALL
GASTEIGER

@<TRIPOS>ATOM
      1  N         11.3000  -26.6710   13.3310 N.3    31  SER31      -0.1217
      2  CA        12.2340  -27.3970   14.1970 C.3    31  SER31       0.1889
      3  C         13.0190  -26.4650   15.1160 C.2    31  SER31       0.2288
      4  O         13.8120  -25.6390   14.6480 O.2    31  SER31      -0.2866
      5  CB        13.2250  -28.2290   13.3550 C.3    31  SER31       0.2089
      6  OG        12.6190  -29.4000   12.8200 O.3    31  SER31      -0.2183
      7  N          4.8400  -34.1000   10.5480 N.3    84  HIS84      -0.1241
      8  CA         5.4650  -34.2970    9.2430 C.3    84  HIS84       0.1621
      9  C          5.0230  -35.6180    8.6230 C.2    84  HIS84       0.2264
     10  O          4.8070  -36.6070    9.3310 O.2    84  HIS84      -0.2867
     11  CB         7.0110  -34.3270    9.3390 C.3    84  HIS84       0.0745
     12  CG         7.6030  -33.2090   10.1410 C.ar   84  HIS84       0.0817
     13  ND1        7.5610  -33.1730   11.5230 N.ar   84  HIS84      -0.2268
     14  CD2        8.3060  -32.1120    9.7570 C.ar   84  HIS84       0.1154
     15  CE1        8.1850  -32.0880   11.9540 C.ar   84  HIS84       0.1986
     16  NE2        8.6490  -31.4280   10.9060 N.ar   84  HIS84      -0.2212
     17  N          6.9080  -37.7010    6.8300 N.3    86  TYR86      -0.1241
     18  CA         7.8820  -38.7820    7.0540 C.3    86  TYR86       0.1605
     19  C          7.6710  -39.5130    8.3750 C.2    86  TYR86       0.2264
     20  O          8.2250  -40.6100    8.5540 O.2    86  TYR86      -0.2867
     21  CB         9.3420  -38.2810    6.9800 C.3    86  TYR86       0.0534
     22  CG         9.7100  -37.1780    7.9700 C.ar   86  TYR86      -0.0201
     23  CD1        9.8000  -37.4380    9.3380 C.ar   86  TYR86      -0.0009
     24  CD2        9.9730  -35.8770    7.5300 C.ar   86  TYR86      -0.0009
     25  CE1       10.1410  -36.4430   10.2430 C.ar   86  TYR86       0.0417
     26  CE2       10.3030  -34.8630    8.4310 C.ar   86  TYR86       0.0417
     27  CZ        10.3830  -35.1580    9.7790 C.ar   86  TYR86       0.1957
     28  OH        10.6960  -34.1830   10.6960 O.3    86  TYR86      -0.2866
     29  N         12.8110  -24.9860    9.0700 N.3   114  LEU114     -0.1231
     30  CA        14.2500  -25.1180    8.8270 C.3   114  LEU114      0.1693
     31  C         14.4690  -25.8780    7.5200 C.2   114  LEU114      0.2592
     32  O         13.8040  -26.8780    7.2690 O.2   114  LEU114     -0.2718
     33  CB        14.9420  -25.8750    9.9700 C.3   114  LEU114      0.0284
     34  CG        15.3320  -25.1520   11.2730 C.3   114  LEU114      0.0019
     35  CD1       16.5800  -24.2840   11.0660 C.3   114  LEU114      0.0001
     36  CD2       14.1980  -24.3060   11.8040 C.3   114  LEU114      0.0001
     37  N         15.4350  -25.4450    6.7140 N.am  115  ALA115     -0.1966
     38  CA        15.5590  -26.0080    5.3740 C.3   115  ALA115      0.1728
     39  C         17.0130  -25.9860    4.9130 C.2   115  ALA115      0.2616
     40  O         17.8620  -25.2870    5.4730 O.2   115  ALA115     -0.2715
     41  CB        14.6910  -25.2440    4.3710 C.3   115  ALA115      0.0334
     42  N         17.2960  -26.7420    3.8570 N.am  116  GLY116     -0.1955
     43  CA        18.5990  -26.6570    3.2140 C.3   116  GLY116      0.1869
     44  C         18.6000  -25.6100    2.1020 C.2   116  GLY116      0.2309
     45  O         17.6350  -25.5010    1.3420 O.2   116  GLY116     -0.2863
     46  N         10.4790  -23.1070   -2.7780 N.3   190  TYR190     -0.1241
     47  CA        10.6780  -24.2010   -1.8180 C.3   190  TYR190      0.1605
     48  C         10.3470  -25.5520   -2.4660 C.2   190  TYR190      0.2264
     49  O          9.2110  -25.7630   -2.9100 O.2   190  TYR190     -0.2867
     50  CB         9.7870  -23.9830   -0.5800 C.3   190  TYR190      0.0534
     51  CG         9.8510  -25.0200    0.5530 C.ar  190  TYR190     -0.0201
     52  CD1        9.0540  -26.1750    0.5290 C.ar  190  TYR190     -0.0009
     53  CD2       10.6440  -24.8010    1.6880 C.ar  190  TYR190     -0.0009
     54  CE1        9.0730  -27.0940    1.5750 C.ar  190  TYR190      0.0417
     55  CE2       10.6770  -25.7340    2.7530 C.ar  190  TYR190      0.0417
     56  CZ         9.8930  -26.8780    2.6830 C.ar  190  TYR190      0.1957
     57  OH         9.9070  -27.8010    3.7140 O.3   190  TYR190     -0.2866
     58  N         18.2390  -36.8560    4.3050 N.3   198  TYR198     -0.1227
     59  CA        18.6310  -35.5920    3.6800 C.3   198  TYR198      0.1736
     60  C         18.8580  -35.8120    2.1850 C.2   198  TYR198      0.2595
     61  O         19.1530  -36.9200    1.7470 O.2   198  TYR198     -0.2718
     62  CB        19.9110  -35.0460    4.3400 C.3   198  TYR198      0.0548
     63  CG        19.6640  -34.6150    5.7840 C.ar  198  TYR198     -0.0200
     64  CD1       18.8290  -33.5290    6.0720 C.ar  198  TYR198     -0.0009
     65  CD2       20.2640  -35.2950    6.8560 C.ar  198  TYR198     -0.0009
     66  CE1       18.5760  -33.1320    7.3980 C.ar  198  TYR198      0.0417
     67  CE2       20.0270  -34.8960    8.1850 C.ar  198  TYR198      0.0417
     68  CZ        19.1890  -33.8090    8.4380 C.ar  198  TYR198      0.1957
     69  OH        18.9500  -33.4370    9.7370 O.3   198  TYR198     -0.2866
     70  N         18.6960  -34.7510    1.3910 N.am  199  GLU199     -0.1979
     71  CA        18.9750  -34.8460   -0.0490 C.3   199  GLU199      0.1602
     72  C         20.3800  -35.3590   -0.3000 C.2   199  GLU199      0.2287
     73  O         21.3400  -34.8920    0.3150 O.2   199  GLU199     -0.2864
     74  CB        18.8220  -33.4820   -0.7360 C.3   199  GLU199      0.0415
     75  CG        17.4230  -32.9000   -0.6050 C.3   199  GLU199      0.1163
     76  CD        17.0960  -32.4620    0.8330 C.2   199  GLU199      0.3649
     77  OE1       18.0090  -31.9170    1.5010 O.co2 199  GLU199     -0.2457
     78  OE2       15.9380  -32.6850    1.2810 O.co2 199  GLU199     -0.2457
     79  N         15.0790  -26.4780    0.0620 N.3   215  VAL215     -0.1231
     80  CA        14.4310  -27.7880    0.1220 C.3   215  VAL215      0.1692
     81  C         14.1650  -28.1540    1.5820 C.2   215  VAL215      0.2593
     82  O         15.0110  -27.9260    2.4540 O.2   215  VAL215     -0.2718
     83  CB        15.2980  -28.8650   -0.5850 C.3   215  VAL215      0.0266
     84  CG1       16.7080  -28.9640    0.0460 C.3   215  VAL215      0.0020
     85  CG2       14.6020  -30.2250   -0.5550 C.3   215  VAL215      0.0020
     86  N         12.9870  -28.7180    1.8560 N.am  216  GLY216     -0.1942
     87  CA        12.7250  -29.2380    3.1910 C.3   216  GLY216      0.2014
     88  C         11.6250  -30.2850    3.1500 C.2   216  GLY216      0.2639
     89  O         11.1250  -30.6320    2.0790 O.2   216  GLY216     -0.2714
     90  N         11.2390  -30.7810    4.3410 N.am  217  MET217     -0.1963
     91  CA        10.3420  -31.9380    4.4640 C.3   217  MET217      0.1736
     92  C          8.9810  -31.5900    5.0750 C.2   217  MET217      0.2617
     93  O          8.2980  -32.4780    5.6230 O.2   217  MET217     -0.2715
     94  CB        10.9990  -33.0540    5.2860 C.3   217  MET217      0.0427
     95  CG        12.4490  -33.3710    4.9260 C.3   217  MET217      0.0599
     96  SD        13.2110  -34.6300    5.9770 S.3   217  MET217     -0.1393
     97  CE        14.8730  -34.5850    5.2670 C.3   217  MET217      0.0692
     98  N          8.5520  -30.3370    4.9790 N.am  218  SER218     -0.1950
     99  CA         7.3110  -29.9240    5.6380 C.3   218  SER218      0.1924
    100  C          6.6430  -28.8550    4.7850 C.2   218  SER218      0.2314
    101  O          6.9360  -28.7320    3.5870 O.2   218  SER218     -0.2863
    102  CB         7.5970  -29.4380    7.0760 C.3   218  SER218      0.2116
    103  OG         8.2130  -28.1510    7.0600 O.3   218  SER218     -0.2180
    104  N         19.3970  -23.8800    7.4130 N.3   240  ALA240     -0.1231
    105  CA        20.2760  -24.6070    8.3310 C.3   240  ALA240      0.1694
    106  C         21.6670  -24.8270    7.7580 C.2   240  ALA240      0.2592
    107  O         22.6500  -24.8440    8.5070 O.2   240  ALA240     -0.2718
    108  CB        19.6700  -25.9730    8.6980 C.3   240  ALA240      0.0304
    109  N         21.7760  -24.9800    6.4470 N.am  241  ASN241     -0.1974
    110  CA        23.0310  -25.3420    5.8010 C.3   241  ASN241      0.1688
    111  C         22.8490  -25.0660    4.3170 C.2   241  ASN241      0.2292
    112  O         21.7170  -24.9920    3.8300 O.2   241  ASN241     -0.2864
    113  CB        23.3510  -26.8210    6.0410 C.3   241  ASN241      0.1181
    114  CG        22.3620  -27.7530    5.3130 C.2   241  ASN241      0.2629
    115  OD1       21.1720  -27.8490    5.6620 O.2   241  ASN241     -0.2716
    116  ND2       22.8510  -28.4250    4.2820 N.am  241  ASN241     -0.0877
    117  N         23.2670  -27.0200    1.0520 N.3   243  SER243     -0.1217
    118  CA        23.5150  -28.4040    0.6410 C.3   243  SER243      0.1889
    119  C         24.5050  -28.5030   -0.5150 C.2   243  SER243      0.2288
    120  O         25.2360  -29.4980   -0.6080 O.2   243  SER243     -0.2866
    121  CB        22.2060  -29.0940    0.2400 C.3   243  SER243      0.2089
    122  OG        21.1960  -28.9140    1.2210 O.3   243  SER243     -0.2183
    123  N         25.4810  -33.0750    7.2140 N.3   253  ILE253     -0.1245
    124  CA        24.3750  -32.3800    7.8560 C.3   253  ILE253      0.1561
    125  C         23.7440  -33.3450    8.8430 C.2   253  ILE253      0.2260
    126  O         23.7480  -34.5710    8.6380 O.2   253  ILE253     -0.2867
    127  CB        23.3460  -31.8410    6.8300 C.3   253  ILE253      0.0252
    128  CG1       22.1720  -31.1400    7.5330 C.3   253  ILE253      0.0019
    129  CG2       22.8830  -32.9420    5.8790 C.3   253  ILE253      0.0019
    130  CD1       22.6170  -30.0490    8.5520 C.3   253  ILE253      0.0001
    131  N         20.7340  -33.4100   12.5030 N.3   255  HIS255     -0.1241
    132  CA        19.6420  -32.6750   13.1520 C.3   255  HIS255      0.1621
    133  C         20.1350  -31.8240   14.3220 C.2   255  HIS255      0.2264
    134  O         19.4810  -30.8290   14.6720 O.2   255  HIS255     -0.2867
    135  CB        18.5410  -33.6510   13.6140 C.3   255  HIS255      0.0745
    136  CG        17.2240  -32.9930   13.9440 C.ar  255  HIS255      0.0817
    137  ND1       16.5330  -32.1980   13.0510 N.ar  255  HIS255     -0.2268
    138  CD2       16.4660  -33.0310   15.0730 C.ar  255  HIS255      0.1154
    139  CE1       15.4070  -31.7780   13.6100 C.ar  255  HIS255      0.1986
    140  NE2       15.3370  -32.2790   14.8350 N.ar  255  HIS255     -0.2212
    141  N         20.9670  -28.5590   12.9320 N.3   258  VAL258     -0.1245
    142  CA        19.7240  -27.8670   12.5850 C.3   258  VAL258      0.1561
    143  C         19.1640  -27.1420   13.8060 C.2   258  VAL258      0.2260
    144  O         18.8020  -25.9570   13.7370 O.2   258  VAL258     -0.2867
    145  CB        18.6870  -28.8530   12.0070 C.3   258  VAL258      0.0252
    146  CG1       17.3090  -28.1630   11.8650 C.3   258  VAL258      0.0019
    147  CG2       19.1230  -29.4500   10.6670 C.3   258  VAL258      0.0019
@<TRIPOS>BOND
     1    49    48    2
     2    46    47    1
     3    48    47    1
     4    47    50    1
     5    74    75    1
     6    74    71    1
     7   120   119    2
     8    75    76    1
     9    83    85    1
    10    83    84    1
    11    83    80    1
    12    50    51    1
    13   119   118    1
    14    72    71    1
    15    72    73    2
    16    71    70    1
    17    79    80    1
    18    80    81    1
    19   121   118    1
    20   121   122    1
    21    52    51   ar
    22    52    54   ar
    23    51    53   ar
    24   118   117    1
    25    76    78   ar
    26    76    77   ar
    27    45    44    2
    28    70    60   am
    29    54    56   ar
    30    81    86   am
    31    81    82    2
    32    53    55   ar
    33    61    60    2
    34    86    87    1
    35    89    88    2
    36    44    43    1
    37    60    59    1
    38    56    55   ar
    39    56    57    1
    40    88    87    1
    41    88    90   am
    42    43    42    1
    43   101   100    2
    44    59    58    1
    45    59    62    1
    46   112   111    2
    47    42    39   am
    48   116   114   am
    49   111   110    1
    50    62    63    1
    51    90    91    1
    52    41    38    1
    53    91    92    1
    54    91    94    1
    55   100    99    1
    56    39    38    1
    57    39    40    2
    58    95    94    1
    59    95    96    1
    60    98    92   am
    61    98    99    1
    62    92    93    2
    63    97    96    1
    64   114   115    2
    65   114   113    1
    66    38    37    1
    67    99   102    1
    68    63    64   ar
    69    63    65   ar
    70   110   113    1
    71   110   109    1
    72   129   127    1
    73    64    66   ar
    74   109   106   am
    75    37    31   am
    76    17    18    1
    77   127   128    1
    78   127   124    1
    79    65    67   ar
    80    21    18    1
    81    21    22    1
    82    18    19    1
    83   103   102    1
    84   123   124    1
    85    32    31    2
    86    66    68   ar
    87   104   105    1
    88    31    30    1
    89    24    22   ar
    90    24    26   ar
    91   128   130    1
    92   106   105    1
    93   106   107    2
    94   124   125    1
    95    22    23   ar
    96    67    68   ar
    97   105   108    1
    98    19    20    2
    99    26    27   ar
   100    68    69    1
   101     9     8    1
   102     9    10    2
   103   126   125    2
   104    30    29    1
   105    30    33    1
   106     8    11    1
   107     8     7    1
   108    23    25   ar
   109    11    12    1
   110    14    12   ar
   111    14    16   ar
   112    27    25   ar
   113    27    28    1
   114    33    34    1
   115    12    13   ar
   116   147   145    1
   117    16    15   ar
   118    35    34    1
   119    34    36    1
   120    13    15   ar
   121   146   145    1
   122   145   142    1
   123   131   132    1
   124   142   141    1
   125   142   143    1
   126     6     5    1
   127   137   139   ar
   128   137   136   ar
   129   132   135    1
   130   132   133    1
   131     1     2    1
   132     5     2    1
   133   139   140   ar
   134   135   136    1
   135   144   143    2
   136   136   138   ar
   137     2     3    1
   138   133   134    2
   139     4     3    2
   140   140   138   ar
