@<TRIPOS>MOLECULE
tmp/5tc0A00.pdb
 161 155 0 0 0
SMALL
GASTEIGER

@<TRIPOS>ATOM
      1  N         11.8180   16.7530    9.8440 N.3    16  LEU16      -0.1231
      2  CA        13.0470   16.3650   10.5380 C.3    16  LEU16       0.1693
      3  C         12.9510   14.9950   11.1810 C.2    16  LEU16       0.2593
      4  O         13.8820   14.1970   11.0820 O.2    16  LEU16      -0.2718
      5  CB        13.3740   17.3800   11.6320 C.3    16  LEU16       0.0284
      6  CG        13.7270   18.7840   11.1520 C.3    16  LEU16       0.0019
      7  CD1       13.8320   19.7010   12.3600 C.3    16  LEU16       0.0001
      8  CD2       15.0140   18.7790   10.3420 C.3    16  LEU16       0.0001
      9  N         11.8470   14.7650   11.8830 N.am   17  GLY17      -0.1942
     10  CA        11.5110   13.4610   12.4740 C.3    17  GLY17       0.2014
     11  C         10.0100   13.3900   12.6720 C.2    17  GLY17       0.2639
     12  O          9.3180   14.3880   12.4820 O.2    17  GLY17      -0.2714
     13  N          9.5030   12.2160   13.0370 N.am   18  GLU18      -0.1963
     14  CA         8.0680   12.0110   13.2650 C.3    18  GLU18       0.1733
     15  C          7.8310   11.8370   14.7560 C.2    18  GLU18       0.2616
     16  O          8.4800   11.0030   15.3810 O.2    18  GLU18      -0.2715
     17  CB         7.5810   10.7830   12.4920 C.3    18  GLU18       0.0429
     18  CG         6.1000   10.4330   12.6630 C.3    18  GLU18       0.1163
     19  CD         5.1490   11.5590   12.2720 C.2    18  GLU18       0.3649
     20  OE1        5.3910   12.2280   11.2380 O.co2  18  GLU18      -0.2457
     21  OE2        4.1470   11.7590   12.9990 O.co2  18  GLU18      -0.2457
     22  N          6.9060   12.6220   15.3160 N.am   19  GLY19      -0.1955
     23  CA         6.6220   12.6250   16.7560 C.3    19  GLY19       0.1869
     24  C          5.2830   11.9930   17.0700 C.2    19  GLY19       0.2309
     25  O          4.5890   11.5410   16.1620 O.2    19  GLY19      -0.2863
     26  N          7.6980   16.6690   13.1140 N.3    24  VAL24      -0.1245
     27  CA         8.5990   17.7330   13.5610 C.3    24  VAL24       0.1561
     28  C          9.2690   18.2630   12.3020 C.2    24  VAL24       0.2260
     29  O          9.8950   17.5120   11.5510 O.2    24  VAL24      -0.2867
     30  CB         9.6560   17.2510   14.5840 C.3    24  VAL24       0.0252
     31  CG1       10.5820   18.3960   15.0160 C.3    24  VAL24       0.0019
     32  CG2        8.9670   16.6360   15.7990 C.3    24  VAL24       0.0019
     33  N         13.1560   24.0950   15.3160 N.3    40  ALA40      -0.1245
     34  CA        12.3720   22.8860   15.1050 C.3    40  ALA40       0.1562
     35  C         10.9400   23.1870   15.5120 C.2    40  ALA40       0.2260
     36  O         10.7070   23.8790   16.5100 O.2    40  ALA40      -0.2867
     37  CB        12.9300   21.7390   15.9270 C.3    40  ALA40       0.0290
     38  N          7.3450   21.3130   16.3190 N.3    42  LYS42      -0.1245
     39  CA         6.4780   20.1570   16.5800 C.3    42  LYS42       0.1561
     40  C          5.0540   20.5220   16.2610 C.2    42  LYS42       0.2260
     41  O          4.5130   21.4440   16.8600 O.2    42  LYS42      -0.2867
     42  CB         6.5350   19.7020   18.0400 C.3    42  LYS42       0.0271
     43  CG         7.7850   18.9370   18.4380 C.3    42  LYS42       0.0035
     44  CD         7.7480   18.6190   19.9390 C.3    42  LYS42       0.0206
     45  CE         8.5830   17.3890   20.2610 C.3    42  LYS42       0.1093
     46  NZ         8.5420   17.0210   21.7000 N.3    42  LYS42      -0.1314
     47  N         15.8270   20.8200   27.1320 N.3    53  MET53      -0.1245
     48  CA        15.2250   21.4980   25.9990 C.3    53  MET53       0.1570
     49  C         14.4100   22.7070   26.4630 C.2    53  MET53       0.2261
     50  O         13.4600   22.5410   27.2270 O.2    53  MET53      -0.2867
     51  CB        14.3090   20.5110   25.2690 C.3    53  MET53       0.0387
     52  CG        13.6320   21.0330   24.0100 C.3    53  MET53       0.0595
     53  SD        14.8140   21.0870   22.6560 S.3    53  MET53      -0.1393
     54  CE        14.9350   19.3940   22.1090 C.3    53  MET53       0.0692
     55  N         10.9150   24.8910   19.0980 N.3    74  LEU74      -0.1231
     56  CA        12.0650   24.4730   19.9080 C.3    74  LEU74       0.1678
     57  C         13.3840   24.8220   19.1940 C.2    74  LEU74       0.2434
     58  O         13.3870   25.0390   17.9820 O.2    74  LEU74      -0.2733
     59  CB        11.9950   22.9640   20.1400 C.3    74  LEU74       0.0284
     60  CG        10.6600   22.3910   20.6370 C.3    74  LEU74       0.0019
     61  CD1       10.6830   20.8690   20.6000 C.3    74  LEU74       0.0001
     62  CD2       10.3470   22.8950   22.0330 C.3    74  LEU74       0.0001
     63  N         14.5100   24.8650   19.9340 N.am   75  PRO75      -0.2718
     64  CA        15.7900   25.1140   19.2610 C.3    75  PRO75       0.1535
     65  C         16.1670   23.9840   18.3150 C.2    75  PRO75       0.2599
     66  O         15.8070   22.8330   18.5460 O.2    75  PRO75      -0.2715
     67  CB        16.8040   25.1960   20.4080 C.3    75  PRO75       0.0310
     68  CG        16.0030   25.3410   21.6570 C.3    75  PRO75       0.0237
     69  CD        14.6620   24.7340   21.3910 C.3    75  PRO75       0.0939
     70  N         16.8720   24.3350   17.2490 N.am   76  PHE76      -0.1960
     71  CA        17.3470   23.3760   16.2690 C.3    76  PHE76       0.1771
     72  C         18.5690   22.6420   16.8040 C.2    76  PHE76       0.2619
     73  O         19.5050   23.2650   17.2940 O.2    76  PHE76      -0.2715
     74  CB        17.7010   24.0830   14.9620 C.3    76  PHE76       0.0574
     75  CG        17.9990   23.1470   13.8300 C.ar   76  PHE76      -0.0200
     76  CD1       16.9670   22.5740   13.1070 C.ar   76  PHE76      -0.0042
     77  CD2       19.3120   22.8460   13.4810 C.ar   76  PHE76      -0.0042
     78  CE1       17.2360   21.7110   12.0610 C.ar   76  PHE76      -0.0003
     79  CE2       19.5850   21.9890   12.4300 C.ar   76  PHE76      -0.0003
     80  CZ        18.5480   21.4200   11.7220 C.ar   76  PHE76      -0.0000
     81  N         18.5540   21.3220   16.6580 N.am   77  MET77      -0.1963
     82  CA        19.6000   20.4340   17.1490 C.3    77  MET77       0.1736
     83  C         20.2950   19.8330   15.9340 C.2    77  MET77       0.2616
     84  O         19.8200   18.8630   15.3640 O.2    77  MET77      -0.2715
     85  CB        18.9630   19.3380   18.0130 C.3    77  MET77       0.0427
     86  CG        18.1690   19.8610   19.2070 C.3    77  MET77       0.0599
     87  SD        19.2460   20.3730   20.5680 S.3    77  MET77      -0.1393
     88  CE        18.2140   21.5090   21.5130 C.3    77  MET77       0.0692
     89  N         21.3960   20.4470   15.5160 N.am   78  LYS78      -0.1963
     90  CA        22.1240   20.0590   14.3010 C.3    78  LYS78       0.1728
     91  C         22.3700   18.5610   14.1280 C.2    78  LYS78       0.2616
     92  O         22.1870   18.0060   13.0370 O.2    78  LYS78      -0.2715
     93  CB        23.4620   20.8380   14.2610 C.3    78  LYS78       0.0311
     94  CG        24.5370   20.2900   13.3380 C.3    78  LYS78       0.0038
     95  CD        25.4470   21.4060   12.8530 C.3    78  LYS78       0.0206
     96  CE        26.7870   20.8660   12.3940 C.3    78  LYS78       0.1093
     97  NZ        27.6980   21.9510   11.9340 N.3    78  LYS78      -0.1314
     98  N         22.7740   17.9180   15.2120 N.am   79  TYR79      -0.1960
     99  CA        23.1330   16.5030   15.1930 C.3    79  TYR79       0.1771
    100  C         21.9830   15.5380   15.4970 C.2    79  TYR79       0.2620
    101  O         22.2130   14.3470   15.5420 O.2    79  TYR79      -0.2715
    102  CB        24.3160   16.2840   16.1290 C.3    79  TYR79       0.0574
    103  CG        25.5350   17.0720   15.6800 C.ar   79  TYR79      -0.0198
    104  CD1       26.1480   16.7930   14.4670 C.ar   79  TYR79      -0.0009
    105  CD2       26.0630   18.1020   16.4630 C.ar   79  TYR79      -0.0009
    106  CE1       27.2460   17.5200   14.0500 C.ar   79  TYR79       0.0417
    107  CE2       27.1730   18.8320   16.0680 C.ar   79  TYR79       0.0417
    108  CZ        27.7600   18.5270   14.8530 C.ar   79  TYR79       0.1957
    109  OH        28.8530   19.2260   14.4210 O.3    79  TYR79      -0.2866
    110  N         20.7530   16.0240   15.6740 N.am   80  GLY80      -0.1940
    111  CA        19.5910   15.1480   15.8490 C.3    80  GLY80       0.2014
    112  C         19.6570   14.3870   17.1590 C.2    80  GLY80       0.2638
    113  O         20.3670   14.7880   18.0600 O.2    80  GLY80      -0.2714
    114  N         18.9050   13.2940   17.2530 N.am   81  ASP81      -0.1971
    115  CA        18.8220   12.5020   18.4780 C.3    81  ASP81       0.1709
    116  C         20.0890   11.7050   18.7390 C.2    81  ASP81       0.2293
    117  O         20.7760   11.3070   17.8060 O.2    81  ASP81      -0.2864
    118  CB        17.6190   11.5570   18.4420 C.3    81  ASP81       0.1436
    119  CG        17.8020   10.4020   17.4680 C.2    81  ASP81       0.3671
    120  OD1       17.5560   10.5820   16.2580 O.co2  81  ASP81      -0.2456
    121  OD2       18.1960    9.3110   17.9290 O.co2  81  ASP81      -0.2456
    122  N         16.9070    8.0470   22.4210 N.3   130  ARG130     -0.1231
    123  CA        16.2200    8.6660   21.2760 C.3   130  ARG130      0.1694
    124  C         15.5250    9.9970   21.6370 C.2   130  ARG130      0.2592
    125  O         15.2700   10.8020   20.7470 O.2   130  ARG130     -0.2718
    126  CB        15.3330    7.6870   20.4900 C.3   130  ARG130      0.0321
    127  CG        13.8280    7.8630   20.4860 C.3   130  ARG130      0.0489
    128  CD        13.1440    7.6530   21.8370 C.3   130  ARG130      0.2205
    129  NE        13.0780    6.2360   22.1740 N.pl3 130  ARG130     -0.0865
    130  CZ        12.1780    5.6690   22.9840 C.cat 130  ARG130      0.5346
    131  NH1       11.1910    6.3740   23.5470 N.pl3 130  ARG130      0.1354
    132  NH2       12.2660    4.3660   23.2280 N.pl3 130  ARG130      0.1354
    133  N         15.2610   10.2160   22.9300 N.am  131  ASN131     -0.1974
    134  CA        14.7160   11.4780   23.4390 C.3   131  ASN131      0.1688
    135  C         15.7540   12.4620   23.9870 C.2   131  ASN131      0.2292
    136  O         15.3940   13.4920   24.5660 O.2   131  ASN131     -0.2864
    137  CB        13.6440   11.1920   24.4970 C.3   131  ASN131      0.1181
    138  CG        12.4130   10.5390   23.9060 C.2   131  ASN131      0.2629
    139  OD1       12.1440   10.6600   22.7130 O.2   131  ASN131     -0.2716
    140  ND2       11.6560    9.8500   24.7370 N.am  131  ASN131     -0.0877
    141  N         18.6390   14.9820   22.7490 N.3   133  MET133     -0.1245
    142  CA        19.0550   15.6990   21.5230 C.3   133  MET133      0.1570
    143  C         20.4470   16.3240   21.6700 C.2   133  MET133      0.2261
    144  O         20.8530   16.6820   22.7700 O.2   133  MET133     -0.2867
    145  CB        18.0270   16.7790   21.1650 C.3   133  MET133      0.0387
    146  CG        16.5990   16.2760   20.9790 C.3   133  MET133      0.0595
    147  SD        16.3460   15.0140   19.7150 S.3   133  MET133     -0.1393
    148  CE        16.9110   15.8690   18.2540 C.3   133  MET133      0.0692
    149  N         14.7510   15.9210   26.2270 N.3   143  ALA143     -0.1231
    150  CA        13.5650   16.3970   25.5130 C.3   143  ALA143      0.1694
    151  C         12.4000   15.4160   25.6510 C.2   143  ALA143      0.2592
    152  O         12.5410   14.3690   26.2770 O.2   143  ALA143     -0.2718
    153  CB        13.9090   16.6040   24.0520 C.3   143  ALA143      0.0304
    154  N         11.2530   15.7870   25.0960 N.am  144  ASP144     -0.1974
    155  CA        10.0890   14.9080   24.9540 C.3   144  ASP144      0.1709
    156  C          9.3540   14.6020   26.2580 C.2   144  ASP144      0.2293
    157  O          9.0580   13.4430   26.5670 O.2   144  ASP144     -0.2864
    158  CB        10.4790   13.6210   24.2100 C.3   144  ASP144      0.1436
    159  CG         9.3030   12.9680   23.5010 C.2   144  ASP144      0.3671
    160  OD1        8.1090   13.1800   23.8520 O.co2 144  ASP144     -0.2456
    161  OD2        9.6040   12.1920   22.5910 O.co2 144  ASP144     -0.2456
@<TRIPOS>BOND
     1     1     2    1
     2     8     6    1
     3     2     3    1
     4     2     5    1
     5     4     3    2
     6     6     5    1
     7     6     7    1
     8     3     9   am
     9    20    19   ar
    10    29    28    2
    11    80    78   ar
    12    80    79   ar
    13     9    10    1
    14    97    96    1
    15    78    76   ar
    16    19    18    1
    17    19    21   ar
    18    28    27    1
    19    96    95    1
    20    79    77   ar
    21    10    11    1
    22    12    11    2
    23    17    18    1
    24    17    14    1
    25    11    13   am
    26    95    94    1
    27    13    14    1
    28    92    91    2
    29    76    75   ar
    30    26    27    1
    31    14    15    1
    32    94    93    1
    33    77    75   ar
    34    27    30    1
    35    75    74    1
    36   106   104   ar
    37   106   108   ar
    38    91    90    1
    39    91    98   am
    40    93    90    1
    41    90    89    1
    42   109   108    1
    43   104   103   ar
    44    30    31    1
    45    30    32    1
    46    15    22   am
    47    15    16    2
    48   108   107   ar
    49    74    71    1
    50    34    33    1
    51    34    35    1
    52    34    37    1
    53    99    98    1
    54    99   100    1
    55    99   102    1
    56    22    23    1
    57    84    83    2
    58   100   101    2
    59   100   110   am
    60    35    36    2
    61    89    83   am
    62   110   111    1
    63   103   102    1
    64   103   105   ar
    65   111   112    1
    66    83    82    1
    67   107   105   ar
    68    25    24    2
    69   120   119   ar
    70    40    39    1
    71    40    41    2
    72    71    72    1
    73    71    70    1
    74    38    39    1
    75    39    42    1
    76    81    72   am
    77    81    82    1
    78    23    24    1
    79    72    73    2
    80    82    85    1
    81   112   114   am
    82   112   113    2
    83    70    65   am
    84   114   115    1
    85   119   121   ar
    86   119   118    1
    87   117   116    2
    88    58    57    2
    89    85    86    1
    90    42    43    1
    91   148   147    1
    92    65    66    2
    93    65    64    1
    94    43    44    1
    95   118   115    1
    96   115   116    1
    97    55    56    1
    98    57    56    1
    99    57    63   am
   100    86    87    1
   101    64    63    1
   102    64    67    1
   103   147   146    1
   104    56    59    1
   105    63    69    1
   106    44    45    1
   107    59    60    1
   108    45    46    1
   109    67    68    1
   110   127   126    1
   111   127   128    1
   112   126   123    1
   113    87    88    1
   114    61    60    1
   115    60    62    1
   116   125   124    2
   117   146   145    1
   118   145   142    1
   119   123   124    1
   120   123   122    1
   121    69    68    1
   122   142   143    1
   123   142   141    1
   124   124   133   am
   125   143   144    2
   126   128   129    1
   127    54    53    1
   128   129   130    2
   129   161   159   ar
   130    53    52    1
   131   139   138    2
   132   133   134    1
   133   130   132    1
   134   130   131    1
   135   134   135    1
   136   134   137    1
   137   159   160   ar
   138   159   158    1
   139   138   137    1
   140   138   140   am
   141   135   136    2
   142    52    51    1
   143   153   150    1
   144   158   155    1
   145   155   154    1
   146   155   156    1
   147   154   151   am
   148    51    48    1
   149   150   151    1
   150   150   149    1
   151   151   152    2
   152    48    49    1
   153    48    47    1
   154   156   157    2
   155    49    50    2
