@<TRIPOS>MOLECULE
tmp/5tc3B01.pdb
 123 119 0 0 0
SMALL
GASTEIGER

@<TRIPOS>ATOM
      1  N        -66.2180  -13.2680   -6.4350 N.3   162  ILE162     -0.1245
      2  CA       -64.8250  -12.8600   -6.5720 C.3   162  ILE162      0.1561
      3  C        -64.3260  -12.3690   -5.2210 C.2   162  ILE162      0.2260
      4  O        -65.0780  -11.7550   -4.4570 O.2   162  ILE162     -0.2867
      5  CB       -64.6610  -11.7690   -7.6520 C.3   162  ILE162      0.0252
      6  CG1      -63.1840  -11.5720   -7.9760 C.3   162  ILE162      0.0019
      7  CG2      -65.2760  -10.4520   -7.1950 C.3   162  ILE162      0.0019
      8  CD1      -62.9420  -10.7180   -9.2020 C.3   162  ILE162      0.0001
      9  N        -60.7430  -10.4760   -3.3400 N.3   164  THR164     -0.1203
     10  CA       -59.5840   -9.6620   -3.6830 C.3   164  THR164      0.1994
     11  C        -58.8890   -9.1990   -2.4050 C.2   164  THR164      0.2619
     12  O        -59.2850   -9.5520   -1.2890 O.2   164  THR164     -0.2717
     13  CB       -59.9930   -8.4620   -4.5470 C.3   164  THR164      0.1784
     14  OG1      -60.8950   -7.6280   -3.8090 O.3   164  THR164     -0.2211
     15  CG2      -60.6710   -8.9250   -5.8320 C.3   164  THR164      0.0376
     16  N        -57.8460   -8.3820   -2.5780 N.am  165  SER165     -0.1937
     17  CA       -57.0290   -7.9570   -1.4420 C.3   165  SER165      0.2055
     18  C        -57.8700   -7.2910   -0.3590 C.2   165  SER165      0.2643
     19  O        -57.6900   -7.5690    0.8330 O.2   165  SER165     -0.2714
     20  CB       -55.9280   -7.0020   -1.9130 C.3   165  SER165      0.2130
     21  OG       -55.1660   -7.5680   -2.9670 O.3   165  SER165     -0.2179
     22  N        -58.7830   -6.3970   -0.7470 N.am  166  ARG166     -0.1963
     23  CA       -59.5660   -5.6630    0.2430 C.3   166  ARG166      0.1729
     24  C        -60.5980   -6.5360    0.9420 C.2   166  ARG166      0.2616
     25  O        -61.1130   -6.1390    1.9940 O.2   166  ARG166     -0.2715
     26  CB       -60.2620   -4.4690   -0.4110 C.3   166  ARG166      0.0348
     27  CG       -59.3100   -3.3590   -0.8030 C.3   166  ARG166      0.0492
     28  CD       -60.0400   -2.0670   -1.1140 C.3   166  ARG166      0.2205
     29  NE       -59.1240   -1.0300   -1.5790 N.pl3 166  ARG166     -0.0865
     30  CZ       -59.4730    0.2320   -1.7990 C.cat 166  ARG166      0.5346
     31  NH1      -60.7210    0.6270   -1.5880 N.pl3 166  ARG166      0.1354
     32  NH2      -58.5700    1.1030   -2.2270 N.pl3 166  ARG166      0.1354
     33  N        -60.9100   -7.7110    0.3940 N.am  167  ASP167     -0.1971
     34  CA       -61.8680   -8.6040    1.0290 C.3   167  ASP167      0.1709
     35  C        -61.2460   -9.4380    2.1450 C.2   167  ASP167      0.2293
     36  O        -61.9860  -10.0080    2.9530 O.2   167  ASP167     -0.2864
     37  CB       -62.4950   -9.5240   -0.0220 C.3   167  ASP167      0.1436
     38  CG       -63.3020   -8.7600   -1.0730 C.2   167  ASP167      0.3671
     39  OD1      -64.0390   -7.8240   -0.7010 O.co2 167  ASP167     -0.2456
     40  OD2      -63.2030   -9.0960   -2.2740 O.co2 167  ASP167     -0.2456
     41  N        -67.3160  -11.2610   -2.6870 N.3   183  THR183     -0.1218
     42  CA       -68.3360  -10.4780   -3.3720 C.3   183  THR183      0.1862
     43  C        -69.0710  -11.3840   -4.3510 C.2   183  THR183      0.2287
     44  O        -68.4650  -11.9160   -5.2880 O.2   183  THR183     -0.2866
     45  CB       -67.7100   -9.2860   -4.0940 C.3   183  THR183      0.1770
     46  OG1      -67.2010   -8.3590   -3.1270 O.3   183  THR183     -0.2211
     47  CG2      -68.7310   -8.5730   -4.9720 C.3   183  THR183      0.0375
     48  N        -72.2280  -10.6140   -6.0750 N.3   185  ASP185     -0.1225
     49  CA       -72.7870   -9.9130   -7.2330 C.3   185  ASP185      0.1805
     50  C        -71.6330   -9.2700   -7.9850 C.2   185  ASP185      0.2598
     51  O        -71.2350   -8.1340   -7.7230 O.2   185  ASP185     -0.2718
     52  CB       -73.8290   -8.8890   -6.8070 C.3   185  ASP185      0.1424
     53  CG       -75.2240   -9.4780   -6.7200 C.2   185  ASP185      0.3668
     54  OD1      -75.5380  -10.4030   -7.5020 O.co2 185  ASP185     -0.2456
     55  OD2      -76.0090   -9.0140   -5.8670 O.co2 185  ASP185     -0.2456
     56  N        -71.1000  -10.0100   -8.9450 N.am  186  VAL186     -0.1966
     57  CA       -69.8950   -9.6230   -9.6610 C.3   186  VAL186      0.1727
     58  C        -70.2960   -9.0350  -11.0060 C.2   186  VAL186      0.2616
     59  O        -71.1280   -9.6090  -11.7210 O.2   186  VAL186     -0.2715
     60  CB       -68.9470  -10.8240   -9.8300 C.3   186  VAL186      0.0290
     61  CG1      -68.5570  -11.3740   -8.4700 C.3   186  VAL186      0.0023
     62  CG2      -69.5970  -11.9230  -10.6520 C.3   186  VAL186      0.0023
     63  N        -69.7270   -7.8790  -11.3380 N.am  187  ILE187     -0.1977
     64  CA       -69.8550   -7.3170  -12.6760 C.3   187  ILE187      0.1596
     65  C        -68.9300   -8.0750  -13.6120 C.2   187  ILE187      0.2287
     66  O        -67.7390   -8.2430  -13.3250 O.2   187  ILE187     -0.2864
     67  CB       -69.5270   -5.8170  -12.6800 C.3   187  ILE187      0.0276
     68  CG1      -70.4090   -5.0790  -11.6680 C.3   187  ILE187      0.0022
     69  CG2      -69.7290   -5.2640  -14.0830 C.3   187  ILE187      0.0022
     70  CD1      -70.0800   -3.6010  -11.5230 C.3   187  ILE187      0.0001
     71  N        -66.8210    0.5510  -14.3270 N.3   205  THR205     -0.1203
     72  CA       -67.1170    0.0500  -12.9900 C.3   205  THR205      0.1994
     73  C        -66.1050    0.5300  -11.9600 C.2   205  THR205      0.2618
     74  O        -66.3920    0.4780  -10.7580 O.2   205  THR205     -0.2717
     75  CB       -67.1490   -1.4790  -12.9820 C.3   205  THR205      0.1784
     76  OG1      -65.8290   -1.9980  -13.2040 O.3   205  THR205     -0.2211
     77  CG2      -68.0880   -2.0000  -14.0560 C.3   205  THR205      0.0376
     78  N        -64.9900    1.0250  -12.4230 N.am  206  LYS206     -0.1965
     79  CA       -63.9380    1.3990  -11.5350 C.3   206  LYS206      0.1728
     80  C        -63.6030    0.2570  -10.5780 C.2   206  LYS206      0.2616
     81  O        -63.2230    0.5850   -9.4880 O.2   206  LYS206     -0.2715
     82  CB       -64.2680    2.6930  -10.7870 C.3   206  LYS206      0.0311
     83  CG       -64.4440    3.8910  -11.6930 C.3   206  LYS206      0.0038
     84  CD       -64.9650    5.1340  -10.9940 C.3   206  LYS206      0.0206
     85  CE       -65.1210    6.3280  -11.9350 C.3   206  LYS206      0.1093
     86  NZ       -65.9430    7.4500  -11.4480 N.3   206  LYS206     -0.1314
     87  N        -63.7740   -0.9590  -11.0320 N.am  207  LYS207     -0.1963
     88  CA       -63.4860   -2.1220  -10.2310 C.3   207  LYS207      0.1728
     89  C        -62.1310   -2.7220  -10.6790 C.2   207  LYS207      0.2617
     90  O        -61.7250   -2.5360  -11.7810 O.2   207  LYS207     -0.2715
     91  CB       -64.6100   -3.2000  -10.2630 C.3   207  LYS207      0.0311
     92  CG       -65.8780   -2.8450   -9.5160 C.3   207  LYS207      0.0038
     93  CD       -65.6300   -2.4900   -8.0550 C.3   207  LYS207      0.0206
     94  CE       -66.9290   -2.2200   -7.3160 C.3   207  LYS207      0.1093
     95  NZ       -66.7680   -1.8560   -5.9070 N.3   207  LYS207     -0.1314
     96  N        -61.4300   -3.4290   -9.8010 N.am  208  GLY208     -0.1940
     97  CA       -60.1560   -3.9770  -10.1280 C.3   208  GLY208      0.2014
     98  C        -60.1880   -5.1080  -11.1860 C.2   208  GLY208      0.2639
     99  O        -59.3970   -5.0630  -12.1040 O.2   208  GLY208     -0.2714
    100  N        -61.1840   -6.0110  -11.1250 N.am  209  LYS209     -0.1963
    101  CA       -61.3100   -7.1600  -12.0680 C.3   209  LYS209      0.1728
    102  C        -62.6750   -7.3280  -12.8110 C.2   209  LYS209      0.2616
    103  O        -63.7180   -6.9050  -12.3140 O.2   209  LYS209     -0.2715
    104  CB       -60.9830   -8.4640  -11.3340 C.3   209  LYS209      0.0311
    105  CG       -59.5740   -8.5250  -10.7650 C.3   209  LYS209      0.0038
    106  CD       -59.3550   -7.4570   -9.7060 C.3   209  LYS209      0.0206
    107  CE       -57.9500   -7.5290   -9.1310 C.3   209  LYS209      0.1093
    108  NZ       -57.7210   -6.4880   -8.0910 N.3   209  LYS209     -0.1314
    109  N        -62.6330   -7.9490  -14.0020 N.am  210  LEU210     -0.1964
    110  CA       -63.7760   -8.1450  -14.8820 C.3   210  LEU210      0.1713
    111  C        -63.8590   -9.5820  -15.3810 C.2   210  LEU210      0.2458
    112  O        -63.4610   -9.8430  -16.4450 O.2   210  LEU210     -0.2730
    113  CB       -63.8470   -7.1760  -16.0950 C.3   210  LEU210      0.0310
    114  CG       -65.2100   -7.2320  -16.8220 C.3   210  LEU210      0.0022
    115  CD1      -66.3080   -6.7250  -15.8890 C.3   210  LEU210      0.0001
    116  CD2      -65.2520   -6.5330  -18.1570 C.3   210  LEU210      0.0001
    117  N        -64.2600  -10.5090  -14.5700 N.am  211  PRO211     -0.2727
    118  CA       -64.3790  -11.8660  -15.1060 C.3   211  PRO211      0.1402
    119  C        -65.2600  -11.9020  -16.3460 C.2   211  PRO211      0.2269
    120  O        -66.2150  -11.1360  -16.4800 O.2   211  PRO211     -0.2865
    121  CB       -65.0060  -12.6500  -13.9490 C.3   211  PRO211      0.0296
    122  CG       -64.6450  -11.8670  -12.7230 C.3   211  PRO211      0.0237
    123  CD       -64.6500  -10.4400  -13.1510 C.3   211  PRO211      0.0939
@<TRIPOS>BOND
     1   116   114    1
     2   114   113    1
     3   114   115    1
     4   120   119    2
     5   112   111    2
     6   119   118    1
     7   113   110    1
     8   111   110    1
     9   111   117   am
    10   118   117    1
    11   118   121    1
    12   110   109    1
    13   117   123    1
    14    71    72    1
    15    69    67    1
    16    77    75    1
    17   109   102   am
    18   121   122    1
    19    65    66    2
    20    65    64    1
    21    76    75    1
    22   123   122    1
    23    72    75    1
    24    72    73    1
    25   102   103    2
    26   102   101    1
    27    67    64    1
    28    67    68    1
    29    64    63    1
    30    78    73   am
    31    78    79    1
    32    99    98    2
    33   101   104    1
    34   101   100    1
    35    73    74    2
    36    85    86    1
    37    85    84    1
    38    90    89    2
    39    59    58    2
    40    83    84    1
    41    83    82    1
    42    68    70    1
    43    79    82    1
    44    79    80    1
    45    63    58   am
    46   104   105    1
    47    98   100   am
    48    98    97    1
    49    87    80   am
    50    87    88    1
    51    58    57    1
    52   105   106    1
    53    89    88    1
    54    89    96   am
    55    62    60    1
    56    80    81    2
    57    91    88    1
    58    91    92    1
    59    97    96    1
    60    60    57    1
    61    60    61    1
    62   106   107    1
    63    57    56    1
    64    92    93    1
    65     8     6    1
    66   107   108    1
    67    56    50   am
    68    93    94    1
    69    50    51    2
    70    50    49    1
    71     6     5    1
    72     5     7    1
    73     5     2    1
    74    54    53   ar
    75    94    95    1
    76    49    52    1
    77    49    48    1
    78    52    53    1
    79    53    55   ar
    80     2     1    1
    81     2     3    1
    82    15    13    1
    83    44    43    2
    84     3     4    2
    85    47    45    1
    86    13    14    1
    87    13    10    1
    88    43    42    1
    89    45    42    1
    90    45    46    1
    91    10     9    1
    92    10    11    1
    93    42    41    1
    94    21    20    1
    95    16    11   am
    96    16    17    1
    97    11    12    2
    98    40    38   ar
    99    32    30    1
   100    20    17    1
   101    30    31    1
   102    30    29    2
   103    29    28    1
   104    17    18    1
   105    28    27    1
   106    38    39   ar
   107    38    37    1
   108    27    26    1
   109    22    18   am
   110    22    23    1
   111    26    23    1
   112    18    19    2
   113    37    34    1
   114    23    24    1
   115    33    24   am
   116    33    34    1
   117    24    25    2
   118    34    35    1
   119    35    36    2
