@<TRIPOS>MOLECULE
tmp/5tc4A00.pdb
 181 169 0 0 0
SMALL
GASTEIGER

@<TRIPOS>ATOM
      1  N         99.2000   10.2650    0.3050 N.3   141  THR141     -0.1218
      2  CA        99.2140   10.5090   -1.1440 C.3   141  THR141      0.1862
      3  C         99.3720    9.2170   -2.0270 C.2   141  THR141      0.2287
      4  O         98.5760    8.9930   -2.8910 O.2   141  THR141     -0.2866
      5  CB       100.2120   11.6400   -1.5020 C.3   141  THR141      0.1770
      6  OG1       99.7320   12.8510   -0.9470 O.3   141  THR141     -0.2211
      7  CG2      100.2920   11.7380   -3.0160 C.3   141  THR141      0.0375
      8  N        107.7180    8.6780  -12.1530 N.3   164  ALA164     -0.1231
      9  CA       108.7160    9.7260  -12.2040 C.3   164  ALA164      0.1694
     10  C        108.8240   10.3660  -10.7700 C.2   164  ALA164      0.2593
     11  O        107.9210   11.1110  -10.3550 O.2   164  ALA164     -0.2718
     12  CB       108.2840   10.7190  -13.2460 C.3   164  ALA164      0.0304
     13  N        109.8480    9.9750  -10.0100 N.am  165  GLY165     -0.1942
     14  CA       110.1110   10.5750   -8.7000 C.3   165  GLY165      0.2014
     15  C        110.3290    9.4380   -7.7690 C.2   165  GLY165      0.2639
     16  O        109.6590    8.3450   -7.9350 O.2   165  GLY165     -0.2714
     17  N        111.2820    9.6260   -6.8320 N.am  166  ARG166     -0.1963
     18  CA       111.7270    8.5780   -5.9400 C.3   166  ARG166      0.1729
     19  C        111.7040    9.0770   -4.4080 C.2   166  ARG166      0.2616
     20  O        112.3630    8.5250   -3.5460 O.2   166  ARG166     -0.2715
     21  CB       113.1190    8.1150   -6.2950 C.3   166  ARG166      0.0348
     22  CG       114.1470    9.2190   -6.3180 C.3   166  ARG166      0.0492
     23  CD       115.5330    8.7050   -6.5640 C.3   166  ARG166      0.2205
     24  NE       116.4180    9.8330   -6.6410 N.pl3 166  ARG166     -0.0865
     25  CZ       117.7030    9.7690   -7.0040 C.cat 166  ARG166      0.5346
     26  NH1      118.2950    8.6010   -7.2590 N.pl3 166  ARG166      0.1354
     27  NH2      118.4320   10.9150   -7.0780 N.pl3 166  ARG166      0.1354
     28  N        110.8850   10.0950   -4.1300 N.am  167  SER167     -0.1950
     29  CA       110.8770   10.7060   -2.8030 C.3   167  SER167      0.1924
     30  C        110.3270    9.7300   -1.7780 C.2   167  SER167      0.2314
     31  O        109.4940    8.8270   -2.0970 O.2   167  SER167     -0.2863
     32  CB       110.0780   12.0360   -2.7980 C.3   167  SER167      0.2116
     33  OG       108.7050   11.7430   -2.8220 O.3   167  SER167     -0.2180
     34  N        108.4420   10.1740    0.7650 N.3   169  ASN169     -0.1225
     35  CA       107.0190   10.4090    1.0680 C.3   169  ASN169      0.1785
     36  C        105.9990   10.1030   -0.0390 C.2   169  ASN169      0.2597
     37  O        104.7930    9.8610    0.2330 O.2   169  ASN169     -0.2718
     38  CB       106.8200   11.8620    1.5110 C.3   169  ASN169      0.1169
     39  CG       107.2630   12.8590    0.4710 C.2   169  ASN169      0.2627
     40  OD1      108.3780   12.7730   -0.0870 O.2   169  ASN169     -0.2716
     41  ND2      106.3990   13.8430    0.1850 N.am  169  ASN169     -0.0877
     42  N        106.4470   10.1460   -1.2980 N.am  170  VAL170     -0.1980
     43  CA       105.4980    9.9960   -2.4180 C.3   170  VAL170      0.1595
     44  C        105.9810    8.9150   -3.4050 C.2   170  VAL170      0.2287
     45  O        105.3870    7.8650   -3.4640 O.2   170  VAL170     -0.2864
     46  CB       105.1920   11.3420   -3.1870 C.3   170  VAL170      0.0276
     47  CG1      104.2650   11.0350   -4.3540 C.3   170  VAL170      0.0022
     48  CG2      104.5230   12.3490   -2.2140 C.3   170  VAL170      0.0022
     49  N        111.9820    6.2420  -12.0510 N.3   196  SER196     -0.1202
     50  CA       112.8360    7.2800  -12.6010 C.3   196  SER196      0.2020
     51  C        112.9250    8.4850  -11.7110 C.2   196  SER196      0.2619
     52  O        112.0810    8.6460  -10.8490 O.2   196  SER196     -0.2717
     53  CB       112.3220    7.6860  -13.9770 C.3   196  SER196      0.2103
     54  OG       111.0940    8.3390  -13.8800 O.3   196  SER196     -0.2182
     55  N        113.9070    9.3600  -11.9320 N.am  197  HIS197     -0.1961
     56  CA       114.2080   10.4500  -10.9700 C.3   197  HIS197      0.1787
     57  C        115.0670   11.5470  -11.7060 C.2   197  HIS197      0.2620
     58  O        115.2350   11.5150  -12.9740 O.2   197  HIS197     -0.2715
     59  CB       114.9060    9.8500   -9.7080 C.3   197  HIS197      0.0785
     60  CG       116.0430    8.9400  -10.0590 C.ar  197  HIS197      0.0821
     61  ND1      117.1870    9.3980  -10.6760 N.ar  197  HIS197     -0.2267
     62  CD2      116.1310    7.6000  -10.0460 C.ar  197  HIS197      0.1154
     63  CE1      117.9660    8.3710  -10.9600 C.ar  197  HIS197      0.1986
     64  NE2      117.3670    7.2730  -10.5330 N.ar  197  HIS197     -0.2212
     65  N        115.6810   12.4290  -10.9150 N.am  198  ARG198     -0.1977
     66  CA       116.4020   13.6020  -11.4310 C.3   198  ARG198      0.1597
     67  C        117.6160   13.1970  -12.3380 C.2   198  ARG198      0.2287
     68  O        118.0230   14.0050  -13.1370 O.2   198  ARG198     -0.2864
     69  CB       116.8780   14.5280  -10.3150 C.3   198  ARG198      0.0334
     70  CG       117.9240   13.9010   -9.3830 C.3   198  ARG198      0.0492
     71  CD       118.2990   14.8060   -8.1710 C.3   198  ARG198      0.2205
     72  NE       117.1860   15.0770   -7.3190 N.pl3 198  ARG198     -0.0865
     73  CZ       116.4220   16.2010   -7.2790 C.cat 198  ARG198      0.5346
     74  NH1      116.6520   17.2590   -8.0640 N.pl3 198  ARG198      0.1354
     75  NH2      115.3930   16.2980   -6.4020 N.pl3 198  ARG198      0.1354
     76  N        117.6440   10.4270  -14.4120 N.3   200  THR200     -0.1218
     77  CA       117.1390    9.6860  -15.5910 C.3   200  THR200      0.1862
     78  C        117.1550   10.6550  -16.7550 C.2   200  THR200      0.2287
     79  O        116.4040   11.6800  -16.7250 O.2   200  THR200     -0.2866
     80  CB       115.6670    9.1690  -15.3800 C.3   200  THR200      0.1770
     81  OG1      115.6360    8.2510  -14.2580 O.3   200  THR200     -0.2211
     82  CG2      115.2540    8.4330  -16.6990 C.3   200  THR200      0.0375
     83  N        116.1600   12.4710  -20.0800 N.3   202  LYS202     -0.1245
     84  CA       114.8160   12.5820  -20.7090 C.3   202  LYS202      0.1561
     85  C        114.5860   11.4990  -21.7850 C.2   202  LYS202      0.2260
     86  O        113.5010   10.9240  -21.8980 O.2   202  LYS202     -0.2867
     87  CB       114.5940   13.9600  -21.3780 C.3   202  LYS202      0.0271
     88  CG       113.1310   14.2810  -21.7480 C.3   202  LYS202      0.0035
     89  CD       112.1710   14.5460  -20.5640 C.3   202  LYS202      0.0206
     90  CE       110.6740   14.6160  -20.9560 C.3   202  LYS202      0.1093
     91  NZ       109.9410   15.9190  -20.9050 N.3   202  LYS202     -0.1314
     92  N        113.6970    8.3500  -19.9240 N.3   205  LEU205     -0.1245
     93  CA       112.3660    8.4700  -19.4550 C.3   205  LEU205      0.1561
     94  C        111.3700    8.1740  -20.5390 C.2   205  LEU205      0.2260
     95  O        110.5220    7.3670  -20.2830 O.2   205  LEU205     -0.2867
     96  CB       112.1130    9.8170  -18.7520 C.3   205  LEU205      0.0270
     97  CG       110.6980   10.0790  -18.2440 C.3   205  LEU205      0.0019
     98  CD1      110.3560    9.1070  -17.1330 C.3   205  LEU205      0.0001
     99  CD2      110.4970   11.5660  -17.8820 C.3   205  LEU205      0.0001
    100  N        105.4240   12.3480  -10.2280 N.3   218  ALA218     -0.1231
    101  CA       105.5780   12.9770   -8.9520 C.3   218  ALA218      0.1694
    102  C        106.9300   13.6190   -8.8550 C.2   218  ALA218      0.2592
    103  O        107.7000   13.4310   -7.8920 O.2   218  ALA218     -0.2718
    104  CB       105.3210   11.9530   -7.8550 C.3   218  ALA218      0.0304
    105  N        107.2010   14.4770   -9.8280 N.am  219  ALA219     -0.1966
    106  CA       108.5050   15.1560   -9.9260 C.3   219  ALA219      0.1728
    107  C        108.4670   16.6220   -9.6380 C.2   219  ALA219      0.2617
    108  O        109.4380   17.1610   -9.2000 O.2   219  ALA219     -0.2715
    109  CB       109.1630   14.9010  -11.2590 C.3   219  ALA219      0.0334
    110  N        107.3410   17.2730   -9.7690 N.am  220  GLY220     -0.1940
    111  CA       107.3260   18.7540   -9.5900 C.3   220  GLY220      0.2014
    112  C        108.0640   19.4320  -10.7550 C.2   220  GLY220      0.2638
    113  O        108.9910   20.2650  -10.5510 O.2   220  GLY220     -0.2714
    114  N        107.7380   19.0060  -11.9770 N.am  221  ILE221     -0.1977
    115  CA       108.2380   19.6270  -13.1620 C.3   221  ILE221      0.1596
    116  C        107.1280   19.8220  -14.1610 C.2   221  ILE221      0.2287
    117  O        106.5980   18.8520  -14.6850 O.2   221  ILE221     -0.2864
    118  CB       109.3440   18.7310  -13.8370 C.3   221  ILE221      0.0276
    119  CG1      110.5440   18.6250  -12.9250 C.3   221  ILE221      0.0022
    120  CG2      109.7260   19.3590  -15.1680 C.3   221  ILE221      0.0022
    121  CD1      111.4480   17.4930  -13.2700 C.3   221  ILE221      0.0001
    122  N        106.4440   17.7450  -17.8040 N.3   224  LEU224     -0.1245
    123  CA       107.4330   16.7370  -17.8410 C.3   224  LEU224      0.1561
    124  C        106.9050   15.6120  -18.7070 C.2   224  LEU224      0.2260
    125  O        107.7150   14.8930  -19.3100 O.2   224  LEU224     -0.2867
    126  CB       107.7050   16.1690  -16.4240 C.3   224  LEU224      0.0270
    127  CG       108.6870   14.9860  -16.3400 C.3   224  LEU224      0.0019
    128  CD1      110.0800   15.4460  -16.7750 C.3   224  LEU224      0.0001
    129  CD2      108.6700   14.3880  -14.9210 C.3   224  LEU224      0.0001
    130  N         98.6020   12.3640  -12.3220 N.3   238  ASP238     -0.1225
    131  CA        99.4730   13.5700  -12.1010 C.3   238  ASP238      0.1805
    132  C         99.4650   13.9870  -10.6110 C.2   238  ASP238      0.2598
    133  O         98.4780   14.6110  -10.0910 O.2   238  ASP238     -0.2718
    134  CB        98.9980   14.6890  -12.9860 C.3   238  ASP238      0.1424
    135  CG        99.9570   15.8580  -13.1040 C.2   238  ASP238      0.3668
    136  OD1      100.9950   15.8810  -12.4660 O.co2 238  ASP238     -0.2456
    137  OD2       99.6810   16.8040  -13.9490 O.co2 238  ASP238     -0.2456
    138  N        100.5720   13.6360   -9.9430 N.am  239  VAL239     -0.1966
    139  CA       100.7340   13.9530   -8.5100 C.3   239  VAL239      0.1727
    140  C        101.4510   15.2830   -8.3800 C.2   239  VAL239      0.2617
    141  O        101.3990   15.8300   -7.3940 O.2   239  VAL239     -0.2715
    142  CB       101.5730   12.8550   -7.7630 C.3   239  VAL239      0.0290
    143  CG1      101.4670   12.9850   -6.2120 C.3   239  VAL239      0.0023
    144  CG2      101.2120   11.4630   -8.2160 C.3   239  VAL239      0.0023
    145  N        102.1600   15.7850   -9.3710 N.am  240  GLY240     -0.1940
    146  CA       102.8330   17.0900   -9.2290 C.3   240  GLY240      0.2014
    147  C        101.9990   18.3210   -8.8630 C.2   240  GLY240      0.2638
    148  O        100.7660   18.3870   -9.1560 O.2   240  GLY240     -0.2714
    149  N        102.6300   19.2690   -8.1850 N.am  241  ILE241     -0.1977
    150  CA       102.0140   20.5270   -7.7970 C.3   241  ILE241      0.1596
    151  C        103.0970   21.5470   -8.0810 C.2   241  ILE241      0.2287
    152  O        104.2150   21.4240   -7.5690 O.2   241  ILE241     -0.2864
    153  CB       101.6500   20.5620   -6.3100 C.3   241  ILE241      0.0276
    154  CG1      100.6220   19.4630   -5.9810 C.3   241  ILE241      0.0022
    155  CG2      101.0930   21.9180   -5.8950 C.3   241  ILE241      0.0022
    156  CD1      100.3660   19.3310   -4.4890 C.3   241  ILE241      0.0001
    157  N         94.9480   18.6190  -12.2440 N.3   268  VAL268     -0.1245
    158  CA        95.6000   19.3110  -11.1540 C.3   268  VAL268      0.1561
    159  C         95.1680   20.7320  -11.3480 C.2   268  VAL268      0.2260
    160  O         95.4870   21.3000  -12.3890 O.2   268  VAL268     -0.2867
    161  CB        97.0910   19.2410  -11.3050 C.3   268  VAL268      0.0252
    162  CG1       97.8110   20.2170  -10.3620 C.3   268  VAL268      0.0019
    163  CG2       97.5190   17.7860  -11.1390 C.3   268  VAL268      0.0019
    164  N         94.6540   14.0360   -7.6090 N.3   272  VAL272     -0.1231
    165  CA        95.2490   13.3520   -6.4620 C.3   272  VAL272      0.1692
    166  C         95.0900   14.1900   -5.1440 C.2   272  VAL272      0.2589
    167  O         94.8470   13.6360   -4.0880 O.2   272  VAL272     -0.2718
    168  CB        96.7330   13.0350   -6.6970 C.3   272  VAL272      0.0266
    169  CG1       97.3920   12.4120   -5.4300 C.3   272  VAL272      0.0020
    170  CG2       96.8870   12.1570   -7.9200 C.3   272  VAL272      0.0020
    171  N         95.1890   15.4800   -5.2280 N.am  273  GLY273     -0.2014
    172  CA        95.0080   16.3640   -4.0580 C.3   273  GLY273      0.1506
    173  C         93.8870   15.9870   -3.0510 C.3   273  GLY273      0.2054
    174  O         94.1580   15.7900   -1.8090 O.3   273  GLY273     -0.2184
    175  N         94.4750   12.7270   -1.3100 N.3   276  THR276     -0.1218
    176  CA        95.4540   12.8160   -0.2770 C.3   276  THR276      0.1862
    177  C         94.7360   13.0490    1.0880 C.2   276  THR276      0.2287
    178  O         95.0720   12.4140    2.0610 O.2   276  THR276     -0.2866
    179  CB        96.4810   13.9230   -0.5900 C.3   276  THR276      0.1770
    180  OG1       97.3480   13.4400   -1.6060 O.3   276  THR276     -0.2211
    181  CG2       97.4190   14.3280    0.6640 C.3   276  THR276      0.0375
@<TRIPOS>BOND
     1    86    85    2
     2    85    84    1
     3    88    87    1
     4    88    89    1
     5    87    84    1
     6    90    91    1
     7    90    89    1
     8    84    83    1
     9    94    95    2
    10    94    93    1
    11    92    93    1
    12    93    96    1
    13   125   124    2
    14    96    97    1
    15   124   123    1
    16    97    99    1
    17    97    98    1
    18   123   122    1
    19   123   126    1
    20   128   127    1
    21    78    79    2
    22    78    77    1
    23    82    80    1
    24   126   127    1
    25   127   129    1
    26    77    80    1
    27    77    76    1
    28    80    81    1
    29   120   118    1
    30   117   116    2
    31   116   115    1
    32    53    54    1
    33    53    50    1
    34   137   135   ar
    35   118   115    1
    36   118   119    1
    37   121   119    1
    38    12     9    1
    39   115   114    1
    40    68    67    2
    41   135   134    1
    42   135   136   ar
    43   134   131    1
    44    58    57    2
    45    50    49    1
    46    50    51    1
    47   160   159    2
    48    67    66    1
    49   130   131    1
    50   157   158    1
    51     9     8    1
    52     9    10    1
    53   131   132    1
    54   114   112   am
    55    55    51   am
    56    55    56    1
    57    51    52    2
    58    57    56    1
    59    57    65   am
    60    66    65    1
    61    66    69    1
    62   159   158    1
    63   161   158    1
    64   161   163    1
    65   161   162    1
    66   109   106    1
    67    56    59    1
    68    63    61   ar
    69    63    64   ar
    70    10    11    2
    71    10    13   am
    72   112   113    2
    73   112   111    1
    74    61    60   ar
    75   132   133    2
    76   132   138   am
    77    64    62   ar
    78    69    70    1
    79   100   101    1
    80    60    62   ar
    81    60    59    1
    82    13    14    1
    83   138   139    1
    84   106   105    1
    85   106   107    1
    86   105   102   am
    87   110   107   am
    88   110   111    1
    89   107   108    2
    90    70    71    1
    91   145   146    1
    92   145   140   am
    93   146   147    1
    94   148   147    2
    95   101   102    1
    96   101   104    1
    97   147   149   am
    98   102   103    2
    99    14    15    1
   100   139   140    1
   101   139   142    1
   102   140   141    2
   103   144   142    1
   104   149   150    1
   105    71    72    1
   106   151   150    1
   107   151   152    2
   108    74    73    1
   109    16    15    2
   110   170   168    1
   111   150   153    1
   112    15    17   am
   113   142   143    1
   114   164   165    1
   115    72    73    2
   116    73    75    1
   117    26    25    1
   118    27    25    1
   119    25    24    2
   120    17    18    1
   121   168   165    1
   122   168   169    1
   123    24    23    1
   124    23    22    1
   125   165   166    1
   126    22    21    1
   127   153   154    1
   128   153   155    1
   129    21    18    1
   130   154   156    1
   131    18    19    1
   132   171   166   am
   133   171   172    1
   134   166   167    2
   135    19    28   am
   136    19    20    2
   137    47    46    1
   138    28    29    1
   139   172   173    1
   140    45    44    2
   141    44    43    1
   142    46    43    1
   143    46    48    1
   144   173   174    1
   145     7     5    1
   146     4     3    2
   147    33    32    1
   148    29    32    1
   149    29    30    1
   150    43    42    1
   151    31    30    2
   152     3     2    1
   153   180   179    1
   154     5     2    1
   155     5     6    1
   156   175   176    1
   157    42    36   am
   158     2     1    1
   159   179   176    1
   160   179   181    1
   161   176   177    1
   162    40    39    2
   163    36    37    2
   164    36    35    1
   165    41    39   am
   166    39    38    1
   167    34    35    1
   168    35    38    1
   169   177   178    2
