@<TRIPOS>MOLECULE
tmp/5tc5A00.pdb
 165 156 0 0 0
SMALL
GASTEIGER

@<TRIPOS>ATOM
      1  N        -33.7670  -55.8020  -29.4690 N.3    66  HIS66      -0.1241
      2  CA       -34.7560  -54.9790  -30.2010 C.3    66  HIS66       0.1621
      3  C        -36.1660  -55.5270  -30.0010 C.2    66  HIS66       0.2264
      4  O        -37.1160  -55.0250  -30.6000 O.2    66  HIS66      -0.2867
      5  CB       -34.3480  -54.7810  -31.7010 C.3    66  HIS66       0.0745
      6  CG       -33.0280  -54.0750  -31.8590 C.ar   66  HIS66       0.0817
      7  ND1      -32.8810  -52.7170  -31.6320 N.ar   66  HIS66      -0.2268
      8  CD2      -31.7850  -54.5420  -32.1430 C.ar   66  HIS66       0.1154
      9  CE1      -31.6110  -52.3770  -31.7890 C.ar   66  HIS66       0.1986
     10  NE2      -30.9230  -53.4640  -32.1020 N.ar   66  HIS66      -0.2212
     11  N        -38.2430  -57.0150  -33.6350 N.3    70  HIS70      -0.1241
     12  CA       -37.2740  -55.9010  -33.8500 C.3    70  HIS70       0.1621
     13  C        -37.9220  -54.4890  -34.0420 C.2    70  HIS70       0.2264
     14  O        -37.6920  -53.8120  -35.0340 O.2    70  HIS70      -0.2867
     15  CB       -36.2730  -56.2550  -34.9760 C.3    70  HIS70       0.0745
     16  CG       -35.4690  -57.4600  -34.7660 C.ar   70  HIS70       0.0817
     17  ND1      -34.4760  -57.5730  -33.8180 N.ar   70  HIS70      -0.2268
     18  CD2      -35.6230  -58.7020  -35.3340 C.ar   70  HIS70       0.1154
     19  CE1      -34.0150  -58.8160  -33.8570 C.ar   70  HIS70       0.1986
     20  NE2      -34.6410  -59.4870  -34.7780 N.ar   70  HIS70      -0.2212
     21  N        -32.2830  -47.9550  -31.6920 N.3    74  PRO74      -0.2116
     22  CA       -31.2190  -48.0930  -30.7130 C.3    74  PRO74       0.1372
     23  C        -31.2020  -47.0230  -29.6320 C.2    74  PRO74       0.2244
     24  O        -30.8450  -47.3540  -28.4720 O.2    74  PRO74      -0.2868
     25  CB       -29.9540  -48.0410  -31.5620 C.3    74  PRO74       0.0268
     26  CG       -30.3750  -48.6150  -32.8820 C.3    74  PRO74       0.0207
     27  CD       -31.7490  -48.0230  -33.0770 C.3    74  PRO74       0.0892
     28  N        -23.0930  -57.9590  -31.8110 N.3    98  THR98      -0.1203
     29  CA       -23.5570  -56.8280  -32.5120 C.3    98  THR98       0.1994
     30  C        -23.0990  -56.8710  -34.0010 C.2    98  THR98       0.2618
     31  O        -22.0090  -57.3030  -34.2680 O.2    98  THR98      -0.2717
     32  CB       -23.0630  -55.5380  -31.7690 C.3    98  THR98       0.1784
     33  OG1      -23.3780  -54.4300  -32.5440 O.3    98  THR98      -0.2211
     34  CG2      -21.4800  -55.5310  -31.4210 C.3    98  THR98       0.0376
     35  N        -23.9540  -56.4980  -34.9250 N.am   99  ALA99      -0.1965
     36  CA       -23.4810  -56.0920  -36.2560 C.3    99  ALA99       0.1728
     37  C        -22.7330  -54.7200  -36.1770 C.2    99  ALA99       0.2616
     38  O        -22.8460  -53.9880  -35.1670 O.2    99  ALA99      -0.2715
     39  CB       -24.6390  -56.0040  -37.2750 C.3    99  ALA99       0.0334
     40  N        -21.8850  -54.4440  -37.1780 N.am  100  CYS100     -0.1954
     41  CA       -21.1660  -53.1790  -37.2140 C.3   100  CYS100      0.1843
     42  C        -20.6300  -52.9020  -38.6090 C.2   100  CYS100      0.2626
     43  O        -20.4470  -53.8240  -39.4090 O.2   100  CYS100     -0.2714
     44  CB       -19.9970  -53.1950  -36.2240 C.3   100  CYS100      0.0997
     45  SG       -18.6500  -54.3670  -36.5360 S.3   100  CYS100     -0.0797
     46  N        -20.2600  -51.6760  -38.8030 N.am  101  GLY101     -0.1954
     47  CA       -19.5920  -51.2500  -40.0280 C.3   101  GLY101      0.1869
     48  C        -18.1260  -51.3130  -39.7930 C.2   101  GLY101      0.2309
     49  O        -17.6550  -50.9720  -38.6850 O.2   101  GLY101     -0.2863
     50  N        -22.6150  -44.5560  -32.5010 N.3   177  ILE177     -0.1245
     51  CA       -23.3020  -43.3480  -32.9080 C.3   177  ILE177      0.1561
     52  C        -24.7340  -43.4100  -32.3620 C.2   177  ILE177      0.2260
     53  O        -25.2400  -44.4820  -32.0420 O.2   177  ILE177     -0.2867
     54  CB       -23.2620  -43.1090  -34.4480 C.3   177  ILE177      0.0252
     55  CG1      -24.0660  -44.2120  -35.1920 C.3   177  ILE177      0.0019
     56  CG2      -21.8010  -42.9860  -34.8790 C.3   177  ILE177      0.0019
     57  CD1      -24.0410  -44.0920  -36.7300 C.3   177  ILE177      0.0001
     58  N        -27.5960  -43.6420  -40.5490 N.3   182  PHE182     -0.1227
     59  CA       -26.1820  -43.9660  -40.6960 C.3   182  PHE182      0.1736
     60  C        -25.3470  -42.6490  -40.7790 C.2   182  PHE182      0.2596
     61  O        -25.9380  -41.5400  -40.8900 O.2   182  PHE182     -0.2718
     62  CB       -26.0090  -44.7330  -41.9730 C.3   182  PHE182      0.0547
     63  CG       -26.5710  -46.1540  -41.9050 C.ar  182  PHE182     -0.0202
     64  CD1      -25.9820  -47.0860  -41.0690 C.ar  182  PHE182     -0.0042
     65  CD2      -27.6370  -46.5280  -42.6500 C.ar  182  PHE182     -0.0042
     66  CE1      -26.4710  -48.4080  -40.9990 C.ar  182  PHE182     -0.0003
     67  CE2      -28.1360  -47.8520  -42.6120 C.ar  182  PHE182     -0.0003
     68  CZ       -27.5340  -48.7830  -41.8100 C.ar  182  PHE182     -0.0000
     69  N        -24.0240  -42.8150  -40.7540 N.am  183  SER183     -0.1952
     70  CA       -23.0750  -41.6780  -40.7070 C.3   183  SER183      0.1924
     71  C        -22.9470  -41.0730  -42.0990 C.2   183  SER183      0.2314
     72  O        -23.0940  -41.7410  -43.1620 O.2   183  SER183     -0.2863
     73  CB       -21.7100  -42.1590  -40.1650 C.3   183  SER183      0.2116
     74  OG       -21.8170  -42.7030  -38.8900 O.3   183  SER183     -0.2180
     75  N        -17.9640  -49.4800  -36.2820 N.3   199  ILE199     -0.1231
     76  CA       -19.0560  -48.5350  -35.9460 C.3   199  ILE199      0.1692
     77  C        -20.4190  -49.1970  -35.7130 C.2   199  ILE199      0.2592
     78  O        -20.8280  -50.0880  -36.4650 O.2   199  ILE199     -0.2718
     79  CB       -19.1530  -47.4390  -36.9960 C.3   199  ILE199      0.0266
     80  CG1      -20.2840  -46.4720  -36.7000 C.3   199  ILE199      0.0019
     81  CG2      -19.4270  -47.9950  -38.4110 C.3   199  ILE199      0.0020
     82  CD1      -20.0950  -45.1240  -37.4080 C.3   199  ILE199      0.0001
     83  N        -21.1190  -48.7750  -34.6550 N.am  200  ASN200     -0.1960
     84  CA       -22.4400  -49.3560  -34.3720 C.3   200  ASN200      0.1819
     85  C        -23.3060  -48.3950  -33.6160 C.2   200  ASN200      0.2621
     86  O        -22.9730  -47.1770  -33.5130 O.2   200  ASN200     -0.2715
     87  CB       -22.2960  -50.7300  -33.6730 C.3   200  ASN200      0.1195
     88  CG       -22.1060  -50.6470  -32.1830 C.2   200  ASN200      0.2630
     89  OD1      -21.8540  -49.5910  -31.5870 O.2   200  ASN200     -0.2716
     90  ND2      -22.1700  -51.8540  -31.5310 N.am  200  ASN200     -0.0877
     91  N        -24.4470  -48.8950  -33.1370 N.am  201  MET201     -0.1963
     92  CA       -25.4200  -48.0100  -32.4480 C.3   201  MET201      0.1736
     93  C        -25.8090  -48.4500  -31.0290 C.2   201  MET201      0.2617
     94  O        -26.5980  -47.7680  -30.3730 O.2   201  MET201     -0.2715
     95  CB       -26.6790  -47.8550  -33.2850 C.3   201  MET201      0.0427
     96  CG       -26.4440  -47.3680  -34.7090 C.3   201  MET201      0.0599
     97  SD       -27.9340  -47.0720  -35.6530 S.3   201  MET201     -0.1393
     98  CE       -27.2740  -46.6360  -37.2640 C.3   201  MET201      0.0692
     99  N        -25.2630  -49.5710  -30.5570 N.am  202  THR202     -0.1951
    100  CA       -25.6990  -50.1320  -29.2660 C.3   202  THR202      0.1897
    101  C        -24.6230  -50.3490  -28.1950 C.2   202  THR202      0.2313
    102  O        -24.9800  -50.6230  -27.0020 O.2   202  THR202     -0.2863
    103  CB       -26.3800  -51.5180  -29.4690 C.3   202  THR202      0.1794
    104  OG1      -25.4790  -52.3640  -30.1900 O.3   202  THR202     -0.2208
    105  CG2      -27.6960  -51.2940  -30.2500 C.3   202  THR202      0.0378
    106  N        -20.4900  -56.0660  -41.1490 N.3   224  THR224     -0.1203
    107  CA       -21.5000  -56.3640  -42.1900 C.3   224  THR224      0.1994
    108  C        -21.3750  -55.5010  -43.4350 C.2   224  THR224      0.2617
    109  O        -22.1290  -55.6750  -44.3470 O.2   224  THR224     -0.2717
    110  CB       -22.9170  -56.1720  -41.5910 C.3   224  THR224      0.1784
    111  OG1      -23.0520  -54.8990  -40.9180 O.3   224  THR224     -0.2211
    112  CG2      -23.2510  -57.2870  -40.5820 C.3   224  THR224      0.0376
    113  N        -20.4710  -54.5340  -43.4080 N.am  225  ASP225     -0.1973
    114  CA       -20.3460  -53.4980  -44.4650 C.3   225  ASP225      0.1709
    115  C        -19.0980  -52.6720  -44.1820 C.2   225  ASP225      0.2293
    116  O        -18.4650  -52.7880  -43.1250 O.2   225  ASP225     -0.2864
    117  CB       -21.5870  -52.5700  -44.4800 C.3   225  ASP225      0.1436
    118  CG       -21.8520  -51.9230  -43.0880 C.2   225  ASP225      0.3671
    119  OD1      -22.5120  -52.5640  -42.2290 O.co2 225  ASP225     -0.2456
    120  OD2      -21.3340  -50.7880  -42.8370 O.co2 225  ASP225     -0.2456
    121  N        -19.3310  -49.2220  -44.1270 N.3   227  ASP227     -0.1239
    122  CA       -19.9200  -47.9350  -43.8260 C.3   227  ASP227      0.1674
    123  C        -19.9650  -47.1750  -45.1680 C.2   227  ASP227      0.2266
    124  O        -20.4530  -47.7420  -46.1500 O.2   227  ASP227     -0.2867
    125  CB       -19.1860  -47.1790  -42.7110 C.3   227  ASP227      0.1410
    126  CG       -20.0020  -45.9900  -42.2020 C.2   227  ASP227      0.3668
    127  OD1      -21.2410  -46.1490  -41.9610 O.co2 227  ASP227     -0.2456
    128  OD2      -19.4140  -44.8950  -41.9890 O.co2 227  ASP227     -0.2456
    129  N        -23.1860  -48.6230  -47.1560 N.3   236  VAL236     -0.1245
    130  CA       -24.1260  -49.2560  -46.3030 C.3   236  VAL236      0.1561
    131  C        -25.6070  -48.8820  -46.5630 C.2   236  VAL236      0.2260
    132  O        -25.9710  -47.7310  -46.9020 O.2   236  VAL236     -0.2867
    133  CB       -23.7250  -49.0490  -44.7970 C.3   236  VAL236      0.0252
    134  CG1      -23.7840  -47.5280  -44.3900 C.3   236  VAL236      0.0019
    135  CG2      -24.5950  -49.9150  -43.9030 C.3   236  VAL236      0.0019
    136  N        -29.7290  -50.7450  -45.0400 N.3   238  VAL238     -0.1245
    137  CA       -30.3830  -51.7890  -44.2480 C.3   238  VAL238      0.1561
    138  C        -30.3170  -53.1430  -45.0110 C.2   238  VAL238      0.2260
    139  O        -29.9970  -54.1820  -44.4300 O.2   238  VAL238     -0.2867
    140  CB       -31.8230  -51.3740  -43.9360 C.3   238  VAL238      0.0252
    141  CG1      -32.6450  -52.5730  -43.4730 C.3   238  VAL238      0.0019
    142  CG2      -31.8190  -50.3280  -42.8260 C.3   238  VAL238      0.0019
    143  N        -26.7460  -54.7200  -44.9120 N.3   241  VAL241     -0.1231
    144  CA       -26.4510  -55.2650  -43.5820 C.3   241  VAL241      0.1692
    145  C        -27.1690  -56.6250  -43.4330 C.2   241  VAL241      0.2591
    146  O        -26.6150  -57.5820  -42.9040 O.2   241  VAL241     -0.2718
    147  CB       -26.8740  -54.3540  -42.4060 C.3   241  VAL241      0.0266
    148  CG1      -26.6690  -54.9950  -41.0750 C.3   241  VAL241      0.0020
    149  CG2      -26.0670  -53.0520  -42.4720 C.3   241  VAL241      0.0020
    150  N        -28.4360  -56.6390  -43.7670 N.am  242  LEU242     -0.1980
    151  CA       -29.2670  -57.8240  -43.5630 C.3   242  LEU242      0.1596
    152  C        -28.7710  -59.0390  -44.3360 C.2   242  LEU242      0.2287
    153  O        -28.7740  -60.1760  -43.8270 O.2   242  LEU242     -0.2864
    154  CB       -30.6960  -57.5280  -43.9690 C.3   242  LEU242      0.0297
    155  CG       -31.5430  -56.7720  -42.9600 C.3   242  LEU242      0.0022
    156  CD1      -32.8310  -56.3170  -43.6490 C.3   242  LEU242      0.0001
    157  CD2      -31.8210  -57.6260  -41.7280 C.3   242  LEU242      0.0001
    158  N        -25.3810  -60.1650  -42.5920 N.3   245  LEU245     -0.1245
    159  CA       -25.7850  -60.9370  -41.4460 C.3   245  LEU245      0.1561
    160  C        -26.3010  -62.3640  -41.7440 C.2   245  LEU245      0.2260
    161  O        -25.8890  -63.3380  -41.1020 O.2   245  LEU245     -0.2867
    162  CB       -26.8690  -60.2370  -40.6490 C.3   245  LEU245      0.0270
    163  CG       -26.4140  -59.1810  -39.6770 C.3   245  LEU245      0.0019
    164  CD1      -27.5930  -58.3870  -39.1500 C.3   245  LEU245      0.0001
    165  CD2      -25.6060  -59.7530  -38.5230 C.3   245  LEU245      0.0001
@<TRIPOS>BOND
     1   129   130    1
     2   132   131    2
     3   131   130    1
     4   130   133    1
     5   124   123    2
     6   123   122    1
     7   136   137    1
     8   138   139    2
     9   138   137    1
    10   143   144    1
    11   133   134    1
    12   133   135    1
    13   117   114    1
    14   117   118    1
    15   114   115    1
    16   114   113    1
    17   109   108    2
    18   152   153    2
    19   152   151    1
    20   137   140    1
    21   115   116    2
    22   121   122    1
    23   154   151    1
    24   154   155    1
    25   140   141    1
    26   140   142    1
    27   122   125    1
    28   150   151    1
    29   150   145   am
    30   156   155    1
    31   144   145    1
    32   144   147    1
    33   108   113   am
    34   108   107    1
    35   145   146    2
    36    72    71    2
    37   118   120   ar
    38   118   119   ar
    39   155   157    1
    40   125   126    1
    41    65    67   ar
    42    65    63   ar
    43    67    68   ar
    44   158   159    1
    45   149   147    1
    46   147   148    1
    47   126   128   ar
    48   126   127   ar
    49   107   110    1
    50   107   106    1
    51    71    70    1
    52    62    63    1
    53    62    59    1
    54    63    64   ar
    55    68    66   ar
    56   160   159    1
    57   160   161    2
    58   110   111    1
    59   110   112    1
    60   159   162    1
    61    64    66   ar
    62    61    60    2
    63    60    69   am
    64    60    59    1
    65    69    70    1
    66    70    73    1
    67    59    58    1
    68   162   163    1
    69    73    74    1
    70    47    48    1
    71    47    46    1
    72    48    49    2
    73   163   164    1
    74   163   165    1
    75    43    42    2
    76    46    42   am
    77    42    41    1
    78    81    79    1
    79    82    80    1
    80    39    36    1
    81    98    97    1
    82    41    40    1
    83    41    44    1
    84    40    37   am
    85    79    80    1
    86    79    76    1
    87    57    55    1
    88    45    44    1
    89    78    77    2
    90    75    76    1
    91    36    37    1
    92    36    35    1
    93    37    38    2
    94    76    77    1
    95    77    83   am
    96    97    96    1
    97    18    20   ar
    98    18    16   ar
    99    55    54    1
   100    14    13    2
   101    15    16    1
   102    15    12    1
   103    35    30   am
   104    56    54    1
   105    20    19   ar
   106    16    17   ar
   107    96    95    1
   108    83    84    1
   109    54    51    1
   110    84    87    1
   111    84    85    1
   112    31    30    2
   113    13    12    1
   114    30    29    1
   115    19    17   ar
   116    12    11    1
   117    87    88    1
   118    85    86    2
   119    85    91   am
   120    95    92    1
   121    91    92    1
   122    27    26    1
   123    27    21    1
   124    51    50    1
   125    51    52    1
   126    26    25    1
   127    33    32    1
   128    29    28    1
   129    29    32    1
   130    92    93    1
   131    52    53    2
   132    88    89    2
   133    88    90   am
   134     8    10   ar
   135     8     6   ar
   136    10     9   ar
   137     6     5    1
   138     6     7   ar
   139     9     7   ar
   140    32    34    1
   141     5     2    1
   142    21    22    1
   143    25    22    1
   144    93    99   am
   145    93    94    2
   146    22    23    1
   147     4     3    2
   148    99   100    1
   149   105   103    1
   150     2     3    1
   151     2     1    1
   152   104   103    1
   153    23    24    2
   154   103   100    1
   155   100   101    1
   156   101   102    2
