@<TRIPOS>MOLECULE
tmp/5tc7A00.pdb
 158 149 0 0 0
SMALL
GASTEIGER

@<TRIPOS>ATOM
      1  N        -17.8750  -55.8730  -10.7750 N.3    10  THR10      -0.1218
      2  CA       -19.1540  -56.5570  -10.8360 C.3    10  THR10       0.1862
      3  C        -20.2030  -55.7170  -10.1370 C.2    10  THR10       0.2287
      4  O        -20.0060  -55.3060   -9.0030 O.2    10  THR10      -0.2866
      5  CB       -19.0930  -57.9320  -10.1770 C.3    10  THR10       0.1770
      6  OG1      -18.1180  -58.7300  -10.8520 O.3    10  THR10      -0.2211
      7  CG2      -20.4610  -58.6260  -10.2480 C.3    10  THR10       0.0375
      8  N        -15.2100  -56.0040  -16.7470 N.3    53  HIS53      -0.1241
      9  CA       -15.7380  -57.2130  -17.3830 C.3    53  HIS53       0.1621
     10  C        -16.4660  -56.9460  -18.7030 C.2    53  HIS53       0.2264
     11  O        -17.1500  -57.8390  -19.2130 O.2    53  HIS53      -0.2867
     12  CB       -16.6620  -57.9400  -16.4060 C.3    53  HIS53       0.0745
     13  CG       -15.9870  -58.3180  -15.1290 C.ar   53  HIS53       0.0817
     14  ND1      -15.1510  -59.4070  -15.0290 N.ar   53  HIS53      -0.2268
     15  CD2      -16.0050  -57.7430  -13.9020 C.ar   53  HIS53       0.1154
     16  CE1      -14.6950  -59.4970  -13.7920 C.ar   53  HIS53       0.1986
     17  NE2      -15.1970  -58.4960  -13.0920 N.ar   53  HIS53      -0.2212
     18  N        -20.7810  -57.6300  -18.7470 N.3    57  HIS57      -0.1241
     19  CA       -20.1630  -58.6670  -17.8880 C.3    57  HIS57       0.1621
     20  C        -20.0150  -60.0420  -18.5630 C.2    57  HIS57       0.2264
     21  O        -20.5870  -61.0660  -18.1260 O.2    57  HIS57      -0.2867
     22  CB       -20.9020  -58.8030  -16.5500 C.3    57  HIS57       0.0745
     23  CG       -20.0540  -59.3900  -15.4600 C.ar   57  HIS57       0.0817
     24  ND1      -19.7890  -58.7160  -14.2940 N.ar   57  HIS57      -0.2268
     25  CD2      -19.3860  -60.5680  -15.3720 C.ar   57  HIS57       0.1154
     26  CE1      -19.0220  -59.4660  -13.5210 C.ar   57  HIS57       0.1986
     27  NE2      -18.7550  -60.5900  -14.1530 N.ar   57  HIS57      -0.2212
     28  N        -12.6820  -63.6130  -14.9480 N.3    61  PRO61      -0.2116
     29  CA       -11.5760  -62.8580  -14.3380 C.3    61  PRO61       0.1372
     30  C        -10.1710  -63.2720  -14.8190 C.2    61  PRO61       0.2244
     31  O         -9.3140  -62.4160  -14.9760 O.2    61  PRO61      -0.2868
     32  CB       -11.7520  -63.1240  -12.8370 C.3    61  PRO61       0.0268
     33  CG       -13.2010  -63.4130  -12.6620 C.3    61  PRO61       0.0207
     34  CD       -13.6420  -64.1070  -13.9370 C.3    61  PRO61       0.0892
     35  N        -14.3530  -53.3200   -6.5270 N.3    85  THR85      -0.1203
     36  CA       -14.3580  -54.7720   -6.6400 C.3    85  THR85       0.1994
     37  C        -15.3200  -55.3800   -5.6480 C.2    85  THR85       0.2618
     38  O        -15.3300  -55.0030   -4.4730 O.2    85  THR85      -0.2717
     39  CB       -12.9400  -55.4000   -6.4680 C.3    85  THR85       0.1784
     40  OG1      -13.0460  -56.8230   -6.3920 O.3    85  THR85      -0.2211
     41  CG2      -12.2280  -54.8960   -5.2060 C.3    85  THR85       0.0376
     42  N        -16.1150  -56.3320   -6.1330 N.am   86  ALA86      -0.1965
     43  CA       -16.9400  -57.1760   -5.2760 C.3    86  ALA86       0.1728
     44  C        -16.0710  -58.2700   -4.6690 C.2    86  ALA86       0.2616
     45  O        -15.2300  -58.8460   -5.3670 O.2    86  ALA86      -0.2715
     46  CB       -18.0670  -57.7910   -6.0800 C.3    86  ALA86       0.0334
     47  N        -16.2630  -58.5480   -3.3820 N.am   87  CYS87      -0.1954
     48  CA       -15.4380  -59.5380   -2.6990 C.3    87  CYS87       0.1843
     49  C        -16.1820  -60.2650   -1.5860 C.2    87  CYS87       0.2626
     50  O        -17.2470  -59.8220   -1.1190 O.2    87  CYS87      -0.2714
     51  CB       -14.1630  -58.8700   -2.1590 C.3    87  CYS87       0.0997
     52  SG       -14.4850  -57.6680   -0.8600 S.3    87  CYS87      -0.0797
     53  N        -15.6450  -61.4200   -1.2190 N.am   88  GLY88      -0.1954
     54  CA       -16.1110  -62.1800   -0.0710 C.3    88  GLY88       0.1869
     55  C        -15.3990  -61.7040    1.1720 C.2    88  GLY88       0.2309
     56  O        -14.2490  -61.2900    1.1110 O.2    88  GLY88      -0.2863
     57  N         -7.8550  -65.0690   -5.9600 N.3   164  ILE164     -0.1245
     58  CA        -7.8510  -66.4420   -6.4910 C.3   164  ILE164      0.1561
     59  C         -7.9990  -66.4300   -8.0030 C.2   164  ILE164      0.2260
     60  O         -8.5060  -65.4720   -8.5900 O.2   164  ILE164     -0.2867
     61  CB        -8.9220  -67.3310   -5.7900 C.3   164  ILE164      0.0252
     62  CG1      -10.3520  -66.8680   -6.1310 C.3   164  ILE164      0.0019
     63  CG2       -8.6690  -67.3390   -4.2970 C.3   164  ILE164      0.0019
     64  CD1      -11.4530  -67.5940   -5.3980 C.3   164  ILE164      0.0001
     65  N        -15.5090  -70.4920   -7.1230 N.3   169  PHE169     -0.1241
     66  CA       -15.2820  -70.0510   -5.7590 C.3   169  PHE169      0.1605
     67  C        -14.3710  -71.0370   -5.0080 C.2   169  PHE169      0.2264
     68  O        -14.0800  -72.1470   -5.4790 O.2   169  PHE169     -0.2867
     69  CB       -16.6000  -69.8630   -5.0030 C.3   169  PHE169      0.0534
     70  CG       -17.4550  -68.7600   -5.5630 C.ar  169  PHE169     -0.0203
     71  CD1      -17.1020  -67.4210   -5.3770 C.ar  169  PHE169     -0.0042
     72  CD2      -18.6280  -69.0450   -6.2520 C.ar  169  PHE169     -0.0042
     73  CE1      -17.8920  -66.4040   -5.8830 C.ar  169  PHE169     -0.0003
     74  CE2      -19.4160  -68.0240   -6.7630 C.ar  169  PHE169     -0.0003
     75  CZ       -19.0530  -66.7090   -6.5790 C.ar  169  PHE169     -0.0000
     76  N        -11.6630  -61.5990   -0.2170 N.3   186  ILE186     -0.1231
     77  CA       -11.3240  -62.5270   -1.2940 C.3   186  ILE186      0.1692
     78  C        -12.0140  -62.1390   -2.5850 C.2   186  ILE186      0.2592
     79  O        -13.2250  -61.8930   -2.6050 O.2   186  ILE186     -0.2718
     80  CB       -11.6340  -63.9950   -0.9080 C.3   186  ILE186      0.0266
     81  CG1      -11.2030  -64.9690   -2.0040 C.3   186  ILE186      0.0019
     82  CG2      -13.0860  -64.2090   -0.5070 C.3   186  ILE186      0.0020
     83  CD1      -10.9900  -66.3640   -1.4790 C.3   186  ILE186      0.0001
     84  N        -11.2310  -62.0780   -3.6680 N.am  187  ASN187     -0.1960
     85  CA       -11.7880  -61.7920   -4.9960 C.3   187  ASN187      0.1819
     86  C        -11.0360  -62.5100   -6.0970 C.2   187  ASN187      0.2621
     87  O        -10.1680  -63.3340   -5.8000 O.2   187  ASN187     -0.2715
     88  CB       -11.8830  -60.2840   -5.2340 C.3   187  ASN187      0.1195
     89  CG       -10.5510  -59.6020   -5.5500 C.2   187  ASN187      0.2630
     90  OD1       -9.4720  -60.2160   -5.6120 O.2   187  ASN187     -0.2716
     91  ND2      -10.6340  -58.2980   -5.7470 N.am  187  ASN187     -0.0877
     92  N        -11.3340  -62.1710   -7.3490 N.am  188  MET188     -0.1963
     93  CA       -10.6550  -62.7880   -8.4710 C.3   188  MET188      0.1736
     94  C         -9.9460  -61.7910   -9.3740 C.2   188  MET188      0.2617
     95  O         -9.4770  -62.1860  -10.4270 O.2   188  MET188     -0.2715
     96  CB       -11.7000  -63.5720   -9.2840 C.3   188  MET188      0.0427
     97  CG       -12.3000  -64.7320   -8.5260 C.3   188  MET188      0.0599
     98  SD       -13.5940  -65.5560   -9.4860 S.3   188  MET188     -0.1393
     99  CE       -14.4380  -66.4050   -8.1610 C.3   188  MET188      0.0692
    100  N         -9.8670  -60.5080   -8.9790 N.am  189  THR189     -0.1951
    101  CA        -9.4270  -59.4450   -9.8900 C.3   189  THR189      0.1897
    102  C         -8.3560  -58.4520   -9.4350 C.2   189  THR189      0.2313
    103  O         -7.8280  -57.7370  -10.2820 O.2   189  THR189     -0.2863
    104  CB       -10.6350  -58.5880  -10.3180 C.3   189  THR189      0.1794
    105  OG1      -11.2260  -57.9890   -9.1530 O.3   189  THR189     -0.2208
    106  CG2      -11.6400  -59.4550  -11.0560 C.3   189  THR189      0.0378
    107  N        -19.6370  -58.7620   -0.2430 N.3   211  THR211     -0.1203
    108  CA       -20.9500  -59.2120   -0.7160 C.3   211  THR211      0.1994
    109  C        -21.4990  -60.4730   -0.0560 C.2   211  THR211      0.2617
    110  O        -22.6530  -60.8240   -0.2910 O.2   211  THR211     -0.2717
    111  CB       -20.9430  -59.4170   -2.2360 C.3   211  THR211      0.1784
    112  OG1      -19.9310  -60.3630   -2.5880 O.3   211  THR211     -0.2211
    113  CG2      -20.6760  -58.1470   -2.9350 C.3   211  THR211      0.0376
    114  N        -20.6920  -61.1210    0.7860 N.am  212  ASP212     -0.1973
    115  CA       -20.9550  -62.4570    1.3240 C.3   212  ASP212      0.1709
    116  C        -19.8200  -62.7960    2.2950 C.2   212  ASP212      0.2293
    117  O        -18.8330  -62.0530    2.3790 O.2   212  ASP212     -0.2864
    118  CB       -20.9720  -63.4940    0.1850 C.3   212  ASP212      0.1436
    119  CG       -19.6640  -63.4960   -0.6200 C.2   212  ASP212      0.3671
    120  OD1      -19.5850  -62.7420   -1.5900 O.co2 212  ASP212     -0.2456
    121  OD2      -18.7020  -64.1980   -0.2540 O.co2 212  ASP212     -0.2456
    122  N        -17.9790  -65.6710    1.9970 N.3   214  ASP214     -0.1239
    123  CA       -17.3650  -66.8170    1.3310 C.3   214  ASP214      0.1674
    124  C        -18.0230  -68.1430    1.8000 C.2   214  ASP214      0.2266
    125  O        -19.2450  -68.2580    1.6840 O.2   214  ASP214     -0.2867
    126  CB       -15.8320  -66.7630    1.4660 C.3   214  ASP214      0.1410
    127  CG       -15.1370  -67.6190    0.4160 C.2   214  ASP214      0.3668
    128  OD1      -15.5430  -67.5440   -0.7530 O.co2 214  ASP214     -0.2456
    129  OD2      -14.2320  -68.3910    0.7600 O.co2 214  ASP214     -0.2456
    130  N        -21.5120  -68.6120   -0.2810 N.3   223  VAL223     -0.1245
    131  CA       -21.5460  -67.7120   -1.4380 C.3   223  VAL223      0.1561
    132  C        -22.0700  -68.4040   -2.7200 C.2   223  VAL223      0.2260
    133  O        -21.8600  -69.6030   -2.9210 O.2   223  VAL223     -0.2867
    134  CB       -20.1370  -67.0840   -1.6770 C.3   223  VAL223      0.0252
    135  CG1      -19.0850  -68.1360   -1.9730 C.3   223  VAL223      0.0019
    136  CG2      -20.1600  -66.0540   -2.7940 C.3   223  VAL223      0.0019
    137  N        -23.3480  -66.8860   -7.0700 N.3   225  VAL225     -0.1245
    138  CA       -23.5020  -65.7030   -7.9340 C.3   225  VAL225      0.1561
    139  C        -24.7400  -64.8750   -7.5390 C.2   225  VAL225      0.2260
    140  O        -24.6700  -63.6480   -7.4440 O.2   225  VAL225     -0.2867
    141  CB       -23.5690  -66.0840   -9.4350 C.3   225  VAL225      0.0252
    142  CG1      -24.0050  -64.9070  -10.3030 C.3   225  VAL225      0.0019
    143  CG2      -22.2180  -66.6080   -9.9140 C.3   225  VAL225      0.0019
    144  N        -24.1760  -62.7750   -4.3880 N.3   228  VAL228     -0.1231
    145  CA       -23.2640  -61.6660   -4.6600 C.3   228  VAL228      0.1692
    146  C        -24.0050  -60.5130   -5.3560 C.2   228  VAL228      0.2591
    147  O        -23.9470  -59.3590   -4.9130 O.2   228  VAL228     -0.2718
    148  CB       -22.0290  -62.1040   -5.5000 C.3   228  VAL228      0.0266
    149  CG1      -21.1920  -60.9060   -5.9230 C.3   228  VAL228      0.0020
    150  CG2      -21.1750  -63.1030   -4.7250 C.3   228  VAL228      0.0020
    151  N        -24.7140  -60.8310   -6.4330 N.am  229  LEU229     -0.1980
    152  CA       -25.3980  -59.8120   -7.2320 C.3   229  LEU229      0.1596
    153  C        -26.5010  -59.1010   -6.4480 C.2   229  LEU229      0.2287
    154  O        -26.7090  -57.9000   -6.6230 O.2   229  LEU229     -0.2864
    155  CB       -25.9720  -60.4150   -8.5070 C.3   229  LEU229      0.0297
    156  CG       -24.9570  -60.9630   -9.5190 C.3   229  LEU229      0.0022
    157  CD1      -25.7050  -61.4140  -10.7670 C.3   229  LEU229      0.0001
    158  CD2      -23.8600  -59.9640   -9.8430 C.3   229  LEU229      0.0001
@<TRIPOS>BOND
     1    11    10    2
     2    18    19    1
     3    10     9    1
     4    20    21    2
     5    20    19    1
     6    19    22    1
     7     9     8    1
     8     9    12    1
     9    22    23    1
    10    12    13    1
    11    23    25   ar
    12    23    24   ar
    13    25    27   ar
    14    13    14   ar
    15    13    15   ar
    16    14    16   ar
    17    31    30    2
    18    28    29    1
    19    28    34    1
    20    30    29    1
    21    29    32    1
    22    24    26   ar
    23    27    26   ar
    24    34    33    1
    25    15    17   ar
    26    16    17   ar
    27    32    33    1
    28   106   104    1
    29     6     5    1
    30     2     1    1
    31     2     5    1
    32     2     3    1
    33   157   156    1
    34    95    94    2
    35   104   101    1
    36   104   105    1
    37   142   141    1
    38   103   102    2
    39     7     5    1
    40     3     4    2
    41   143   141    1
    42   101   102    1
    43   101   100    1
    44   158   156    1
    45   156   155    1
    46    98    97    1
    47    98    99    1
    48   141   138    1
    49    94   100   am
    50    94    93    1
    51    96    97    1
    52    96    93    1
    53    60    59    2
    54   155   152    1
    55    93    92    1
    56    59    58    1
    57   138   139    1
    58   138   137    1
    59   139   140    2
    60    92    86   am
    61   152   153    1
    62   152   151    1
    63    65    66    1
    64    74    75   ar
    65    74    72   ar
    66    36    35    1
    67    36    39    1
    68    36    37    1
    69   154   153    2
    70    75    73   ar
    71    58    57    1
    72    58    61    1
    73    39    40    1
    74    39    41    1
    75   151   146   am
    76    72    70   ar
    77    42    37   am
    78    42    43    1
    79    62    61    1
    80    62    64    1
    81    86    87    2
    82    86    85    1
    83    46    43    1
    84   149   148    1
    85    73    71   ar
    86    61    63    1
    87    66    67    1
    88    66    69    1
    89    91    89   am
    90    37    38    2
    91    90    89    2
    92    70    71   ar
    93    70    69    1
    94    89    88    1
    95   148   150    1
    96   148   145    1
    97    68    67    2
    98    45    44    2
    99   146   147    2
   100   146   145    1
   101    43    44    1
   102    88    85    1
   103    85    84    1
   104    44    47   am
   105   145   144    1
   106    84    78   am
   107    47    48    1
   108   113   111    1
   109   133   132    2
   110   136   134    1
   111   132   131    1
   112    48    51    1
   113    48    49    1
   114    79    78    2
   115   112   111    1
   116    78    77    1
   117   111   108    1
   118    51    52    1
   119    81    83    1
   120    81    80    1
   121   135   134    1
   122   134   131    1
   123   120   119   ar
   124    49    53   am
   125    49    50    2
   126   131   130    1
   127    77    80    1
   128    77    76    1
   129    53    54    1
   130    80    82    1
   131   128   127   ar
   132   108   107    1
   133   108   109    1
   134   119   121   ar
   135   119   118    1
   136   110   109    2
   137    54    55    1
   138   109   114   am
   139   118   115    1
   140   127   129   ar
   141   127   126    1
   142   114   115    1
   143    56    55    2
   144   115   116    1
   145   123   126    1
   146   123   124    1
   147   123   122    1
   148   125   124    2
   149   116   117    2
