@<TRIPOS>MOLECULE
tmp/5tc8A00.pdb
 158 149 0 0 0
SMALL
GASTEIGER

@<TRIPOS>ATOM
      1  N         -4.1670   94.0110   55.2420 N.3    10  THR10      -0.1218
      2  CA        -2.9410   94.8000   55.1630 C.3    10  THR10       0.1862
      3  C         -3.1990   96.1500   54.5210 C.2    10  THR10       0.2287
      4  O         -3.8650   96.2410   53.4940 O.2    10  THR10      -0.2866
      5  CB        -1.8440   94.0590   54.4030 C.3    10  THR10       0.1770
      6  OG1       -1.6150   92.7920   55.0440 O.3    10  THR10      -0.2211
      7  CG2       -0.5420   94.8600   54.3850 C.3    10  THR10       0.0375
      8  N         -5.3520   91.4760   61.2180 N.3    53  HIS53      -0.1241
      9  CA        -4.0370   91.3070   61.8340 C.3    53  HIS53       0.1621
     10  C         -3.8710   92.0500   63.1770 C.2    53  HIS53       0.2264
     11  O         -2.7700   92.0840   63.7310 O.2    53  HIS53      -0.2867
     12  CB        -2.9660   91.7470   60.8550 C.3    53  HIS53       0.0745
     13  CG        -2.9670   90.9620   59.5770 C.ar   53  HIS53       0.0817
     14  ND1       -2.3710   89.7250   59.4670 N.ar   53  HIS53      -0.2268
     15  CD2       -3.5010   91.2350   58.3610 C.ar   53  HIS53       0.1154
     16  CE1       -2.5360   89.2670   58.2390 C.ar   53  HIS53       0.1986
     17  NE2       -3.2160   90.1650   57.5460 N.ar   53  HIS53      -0.2212
     18  N         -1.2850   95.5740   63.2860 N.3    57  HIS57      -0.1241
     19  CA        -0.7410   94.5430   62.4110 C.3    57  HIS57       0.1621
     20  C          0.3710   93.7350   63.0780 C.2    57  HIS57       0.2264
     21  O          1.5190   93.7240   62.6320 O.2    57  HIS57      -0.2867
     22  CB        -0.2930   95.1520   61.0800 C.3    57  HIS57       0.0745
     23  CG        -0.2160   94.1510   59.9660 C.ar   57  HIS57       0.0817
     24  ND1       -1.0470   94.1990   58.8760 N.ar   57  HIS57      -0.2268
     25  CD2        0.5320   93.0310   59.8190 C.ar   57  HIS57       0.1154
     26  CE1       -0.7680   93.1880   58.0710 C.ar   57  HIS57       0.1986
     27  NE2        0.1810   92.4610   58.6240 N.ar   57  HIS57      -0.2212
     28  N         -0.2530   85.8040   59.2820 N.3    61  PRO61      -0.2116
     29  CA        -1.4050   85.1070   58.6960 C.3    61  PRO61       0.1372
     30  C         -1.7100   83.7150   59.2720 C.2    61  PRO61       0.2244
     31  O         -2.8800   83.3700   59.4750 O.2    61  PRO61      -0.2868
     32  CB        -1.0510   85.0360   57.2110 C.3    61  PRO61       0.0268
     33  CG        -0.2020   86.2350   56.9910 C.3    61  PRO61       0.0207
     34  CD         0.6140   86.3920   58.2390 C.3    61  PRO61       0.0892
     35  N         -8.2870   92.2670   51.0460 N.3    85  THR85      -0.1203
     36  CA        -7.0720   91.4610   51.1020 C.3    85  THR85       0.1994
     37  C         -6.1020   92.0010   50.0640 C.2    85  THR85       0.2618
     38  O         -6.4460   92.1440   48.8780 O.2    85  THR85      -0.2717
     39  CB        -7.3440   89.9420   50.9120 C.3    85  THR85       0.1784
     40  OG1       -6.0960   89.2310   50.9510 O.3    85  THR85      -0.2211
     41  CG2       -8.0830   89.6180   49.5910 C.3    85  THR85       0.0376
     42  N         -4.8960   92.3260   50.5090 N.am   86  ALA86      -0.1965
     43  CA        -3.8190   92.6360   49.5710 C.3    86  ALA86       0.1728
     44  C         -3.3750   91.3190   48.9280 C.2    86  ALA86       0.2616
     45  O         -3.5100   90.2600   49.5480 O.2    86  ALA86      -0.2715
     46  CB        -2.6640   93.3180   50.2670 C.3    86  ALA86       0.0334
     47  N         -2.8330   91.3870   47.7160 N.am   87  CYS87      -0.1954
     48  CA        -2.3860   90.1820   47.0210 C.3    87  CYS87       0.1843
     49  C         -1.3690   90.4620   45.9470 C.2    87  CYS87       0.2626
     50  O         -1.2110   91.5970   45.5130 O.2    87  CYS87      -0.2714
     51  CB        -3.5830   89.4680   46.4080 C.3    87  CYS87       0.0997
     52  SG        -4.4970   90.4180   45.1760 S.3    87  CYS87      -0.0797
     53  N         -0.6640   89.4130   45.5300 N.am   88  GLY88      -0.1954
     54  CA         0.2580   89.4960   44.4190 C.3    88  GLY88       0.1869
     55  C         -0.5410   89.1560   43.1810 C.2    88  GLY88       0.2309
     56  O         -1.5170   88.3910   43.2430 O.2    88  GLY88      -0.2863
     57  N         -1.3990   80.8560   50.2630 N.3   164  ILE164     -0.1245
     58  CA        -0.2210   80.1490   50.7480 C.3   164  ILE164      0.1561
     59  C         -0.1530   80.2960   52.2560 C.2   164  ILE164      0.2260
     60  O         -0.7780   81.2040   52.8430 O.2   164  ILE164     -0.2867
     61  CB         1.0790   80.6480   50.0720 C.3   164  ILE164      0.0252
     62  CG1        1.3850   82.1130   50.4410 C.3   164  ILE164      0.0019
     63  CG2        0.9530   80.5210   48.5590 C.3   164  ILE164      0.0019
     64  CD1        2.6420   82.6500   49.7980 C.3   164  ILE164      0.0001
     65  N          7.1610   84.8590   51.4340 N.3   169  PHE169     -0.1241
     66  CA         6.6510   84.9130   50.0750 C.3   169  PHE169      0.1605
     67  C          7.0730   83.6540   49.3390 C.2   169  PHE169      0.2264
     68  O          7.9140   82.8730   49.8350 O.2   169  PHE169     -0.2867
     69  CB         7.1350   86.1650   49.3600 C.3   169  PHE169      0.0534
     70  CG         6.5970   87.4330   49.9570 C.ar  169  PHE169     -0.0203
     71  CD1        5.2520   87.7620   49.8000 C.ar  169  PHE169     -0.0042
     72  CD2        7.4180   88.3000   50.6730 C.ar  169  PHE169     -0.0042
     73  CE1        4.7390   88.9200   50.3370 C.ar  169  PHE169     -0.0003
     74  CE2        6.9080   89.4870   51.2000 C.ar  169  PHE169     -0.0003
     75  CZ         5.5720   89.7880   51.0420 C.ar  169  PHE169     -0.0000
     76  N         -2.4560   85.9500   44.4940 N.3   186  ILE186     -0.1231
     77  CA        -1.8670   85.1690   45.5900 C.3   186  ILE186      0.1692
     78  C         -1.8820   85.9450   46.9000 C.2   186  ILE186      0.2592
     79  O         -1.5700   87.1440   46.9320 O.2   186  ILE186     -0.2718
     80  CB        -0.4490   84.6950   45.2130 C.3   186  ILE186      0.0266
     81  CG1        0.1940   83.8670   46.3160 C.3   186  ILE186      0.0019
     82  CG2        0.4650   85.8670   44.8320 C.3   186  ILE186      0.0020
     83  CD1        1.3210   82.9940   45.8040 C.3   186  ILE186      0.0001
     84  N         -2.2800   85.2690   47.9750 N.am  187  ASN187     -0.1960
     85  CA        -2.3210   85.8650   49.3030 C.3   187  ASN187      0.1819
     86  C         -2.0790   84.8230   50.3870 C.2   187  ASN187      0.2621
     87  O         -1.6850   83.6830   50.0730 O.2   187  ASN187     -0.2715
     88  CB        -3.6090   86.6770   49.4960 C.3   187  ASN187      0.1195
     89  CG        -4.8200   85.8320   49.8330 C.2   187  ASN187      0.2630
     90  OD1       -4.7960   84.5860   49.7740 O.2   187  ASN187     -0.2716
     91  ND2       -5.9150   86.5150   50.1430 N.am  187  ASN187     -0.0877
     92  N         -2.2680   85.2210   51.6460 N.am  188  MET188     -0.1963
     93  CA        -2.0630   84.3290   52.7770 C.3   188  MET188      0.1736
     94  C         -3.2520   84.1930   53.7190 C.2   188  MET188      0.2617
     95  O         -3.1300   83.5240   54.7480 O.2   188  MET188     -0.2715
     96  CB        -0.8370   84.7950   53.5660 C.3   188  MET188      0.0427
     97  CG         0.4120   85.0140   52.7240 C.3   188  MET188      0.0599
     98  SD         1.7670   85.6300   53.7430 S.3   188  MET188     -0.1393
     99  CE         2.9880   85.8970   52.4750 C.3   188  MET188      0.0692
    100  N         -4.4090   84.7690   53.3690 N.am  189  THR189     -0.1951
    101  CA        -5.5180   84.8870   54.3010 C.3   189  THR189      0.1897
    102  C         -6.9070   84.4680   53.8370 C.2   189  THR189      0.2313
    103  O         -7.7760   84.3620   54.6920 O.2   189  THR189     -0.2863
    104  CB        -5.6500   86.3480   54.8110 C.3   189  THR189      0.1794
    105  OG1       -5.9430   87.2310   53.7100 O.3   189  THR189     -0.2208
    106  CG2       -4.3760   86.7740   55.5200 C.3   189  THR189      0.0378
    107  N         -0.9520   94.2930   44.7860 N.3   211  THR211     -0.1203
    108  CA         0.0850   95.2080   45.2810 C.3   211  THR211      0.1994
    109  C          1.4610   95.0100   44.6380 C.2   211  THR211      0.2617
    110  O          2.3580   95.8050   44.8860 O.2   211  THR211     -0.2717
    111  CB         0.2300   95.0920   46.8130 C.3   211  THR211      0.1784
    112  OG1        0.5160   93.7330   47.1780 O.3   211  THR211     -0.2211
    113  CG2       -1.0280   95.5480   47.4960 C.3   211  THR211      0.0376
    114  N          1.6140   93.9660   43.8160 N.am  212  ASP212     -0.1973
    115  CA         2.8910   93.5480   43.2730 C.3   212  ASP212      0.1709
    116  C          2.6190   92.4050   42.2640 C.2   212  ASP212      0.2293
    117  O          1.4800   91.9640   42.1270 O.2   212  ASP212     -0.2864
    118  CB         3.8010   93.0500   44.4110 C.3   212  ASP212      0.1436
    119  CG         3.1580   91.9230   45.1890 C.2   212  ASP212      0.3671
    120  OD1        3.3310   90.7500   44.7830 O.co2 212  ASP212     -0.2456
    121  OD2        2.4860   92.2170   46.1990 O.co2 212  ASP212     -0.2456
    122  N          4.2940   89.4330   42.5470 N.3   214  ASP214     -0.1239
    123  CA         5.0020   88.3460   43.2020 C.3   214  ASP214      0.1674
    124  C          6.4560   88.3420   42.7160 C.2   214  ASP214      0.2266
    125  O          7.1050   89.3830   42.8410 O.2   214  ASP214     -0.2867
    126  CB         4.2430   87.0190   42.9770 C.3   214  ASP214      0.1410
    127  CG         4.6160   85.9450   43.9930 C.2   214  ASP214      0.3668
    128  OD1        4.7930   86.2790   45.1930 O.co2 214  ASP214     -0.2456
    129  OD2        4.7010   84.7610   43.6030 O.co2 214  ASP214     -0.2456
    130  N          8.5370   91.6080   44.9560 N.3   223  VAL223     -0.1245
    131  CA         7.6580   91.7200   46.1380 C.3   223  VAL223      0.1561
    132  C          8.5180   91.7950   47.3990 C.2   223  VAL223      0.2260
    133  O          9.5170   91.0880   47.5210 O.2   223  VAL223     -0.2867
    134  CB         6.5770   90.6010   46.2680 C.3   223  VAL223      0.0252
    135  CG1        7.1760   89.2140   46.4930 C.3   223  VAL223      0.0019
    136  CG2        5.6020   90.9310   47.3820 C.3   223  VAL223      0.0019
    137  N          7.8000   93.4430   51.7840 N.3   225  VAL225     -0.1245
    138  CA         6.9180   94.1520   52.6960 C.3   225  VAL225      0.1561
    139  C          6.8030   95.6390   52.2970 C.2   225  VAL225      0.2260
    140  O          5.6980   96.1600   52.1820 O.2   225  VAL225     -0.2867
    141  CB         7.3720   93.9970   54.1610 C.3   225  VAL225      0.0252
    142  CG1        6.6450   94.9910   55.0920 C.3   225  VAL225      0.0019
    143  CG2        7.1300   92.5760   54.6400 C.3   225  VAL225      0.0019
    144  N          4.7170   96.1710   49.1140 N.3   228  VAL228     -0.1231
    145  CA         3.2870   95.9430   49.3160 C.3   228  VAL228      0.1692
    146  C          2.6810   97.1690   49.9910 C.2   228  VAL228      0.2591
    147  O          1.6730   97.6980   49.5310 O.2   228  VAL228     -0.2718
    148  CB         3.0190   94.6740   50.1420 C.3   228  VAL228      0.0266
    149  CG1        1.5450   94.5690   50.5390 C.3   228  VAL228      0.0020
    150  CG2        3.4480   93.4360   49.3530 C.3   228  VAL228      0.0020
    151  N          3.3120   97.6050   51.0850 N.am  229  LEU229     -0.1980
    152  CA         2.8090   98.7400   51.8440 C.3   229  LEU229      0.1596
    153  C          2.7880  100.0340   51.0410 C.2   229  LEU229      0.2287
    154  O          1.8520  100.8260   51.1630 O.2   229  LEU229     -0.2864
    155  CB         3.6130   98.9300   53.1250 C.3   229  LEU229      0.0297
    156  CG         3.4860   97.8090   54.1560 C.3   229  LEU229      0.0022
    157  CD1        4.3590   98.1290   55.3590 C.3   229  LEU229      0.0001
    158  CD2        2.0350   97.5700   54.5740 C.3   229  LEU229      0.0001
@<TRIPOS>BOND
     1   117   116    2
     2   116   115    1
     3   122   123    1
     4   124   125    2
     5   124   123    1
     6   126   123    1
     7   126   127    1
     8    55    56    2
     9    55    54    1
    10   115   114    1
    11   115   118    1
    12   129   127   ar
    13   114   109   am
    14   127   128   ar
    15   118   119    1
    16    54    53    1
    17    76    77    1
    18   109   110    2
    19   109   108    1
    20   120   119   ar
    21   107   108    1
    22    82    80    1
    23   130   131    1
    24    52    51    1
    25   119   121   ar
    26    80    77    1
    27    80    81    1
    28   108   111    1
    29    50    49    2
    30    53    49   am
    31    77    78    1
    32    83    81    1
    33    49    48    1
    34   131   134    1
    35   131   132    1
    36   134   135    1
    37   134   136    1
    38    51    48    1
    39   111   112    1
    40   111   113    1
    41    78    79    2
    42    78    84   am
    43    48    47    1
    44   132   133    2
    45    47    44   am
    46    84    85    1
    47    63    61    1
    48    38    37    2
    49    44    45    2
    50    44    43    1
    51   144   145    1
    52    85    88    1
    53    85    86    1
    54   145   146    1
    55   145   148    1
    56    67    68    2
    57    67    66    1
    58   150   148    1
    59    69    70    1
    60    69    66    1
    61    88    89    1
    62   147   146    2
    63    43    46    1
    64    43    42    1
    65    41    39    1
    66    90    89    2
    67    64    62    1
    68    71    70   ar
    69    71    73   ar
    70    89    91   am
    71    70    72   ar
    72   146   151   am
    73    37    42   am
    74    37    36    1
    75    61    62    1
    76    61    58    1
    77    87    86    2
    78    66    65    1
    79   148   149    1
    80    57    58    1
    81    73    75   ar
    82    86    92   am
    83    72    74   ar
    84    58    59    1
    85    39    40    1
    86    39    36    1
    87   153   154    2
    88   153   152    1
    89    75    74   ar
    90    35    36    1
    91   151   152    1
    92    92    93    1
    93   137   138    1
    94   152   155    1
    95   140   139    2
    96    59    60    2
    97   139   138    1
    98    99    98    1
    99   138   141    1
   100    97    96    1
   101    97    98    1
   102    93    96    1
   103    93    94    1
   104   155   156    1
   105   100    94   am
   106   100   101    1
   107     4     3    2
   108   105   104    1
   109    94    95    2
   110   102   101    1
   111   102   103    2
   112   156   158    1
   113   156   157    1
   114   141   143    1
   115   141   142    1
   116   101   104    1
   117     7     5    1
   118     5     6    1
   119     5     2    1
   120     3     2    1
   121   104   106    1
   122     2     1    1
   123    33    32    1
   124    33    34    1
   125    32    29    1
   126    17    16   ar
   127    17    15   ar
   128    26    27   ar
   129    26    24   ar
   130    34    28    1
   131    16    14   ar
   132    15    13   ar
   133    27    25   ar
   134    29    30    1
   135    29    28    1
   136    24    23   ar
   137    30    31    2
   138    14    13   ar
   139    13    12    1
   140    25    23   ar
   141    23    22    1
   142    12     9    1
   143    22    19    1
   144     8     9    1
   145     9    10    1
   146    19    20    1
   147    19    18    1
   148    21    20    2
   149    10    11    2
