@<TRIPOS>MOLECULE
tmp/5tcaD01.pdb
 99 94 0 0 0
SMALL
GASTEIGER

@<TRIPOS>ATOM
      1  N         82.6980   -8.3130   26.9110 N.3     3  GLY3       -0.1210
      2  CA        83.3550   -7.4560   25.9350 C.3     3  GLY3        0.1956
      3  C         84.5410   -6.6320   26.4120 C.2     3  GLY3        0.2612
      4  O         84.8280   -5.5610   25.8720 O.2     3  GLY3       -0.2717
      5  N         85.2580   -7.1410   27.3900 N.am    4  GLY4       -0.1942
      6  CA        86.4340   -6.4420   27.8870 C.3     4  GLY4        0.2014
      7  C         87.7430   -7.1370   27.5960 C.2     4  GLY4        0.2638
      8  O         87.8100   -8.0680   26.7950 O.2     4  GLY4       -0.2714
      9  N         88.7970   -6.6680   28.2430 N.am    5  ARG5       -0.1977
     10  CA        90.1710   -7.1800   28.1350 C.3     5  ARG5        0.1597
     11  C         90.6520   -7.6990   29.4830 C.2     5  ARG5        0.2287
     12  O         90.0790   -7.3320   30.5110 O.2     5  ARG5       -0.2864
     13  CB        91.1260   -6.0410   27.6890 C.3     5  ARG5        0.0334
     14  CG        91.1470   -5.7360   26.2050 C.3     5  ARG5        0.0492
     15  CD        91.6980   -4.3380   25.8720 C.3     5  ARG5        0.2205
     16  NE        92.6640   -3.8210   26.8530 N.pl3   5  ARG5       -0.0865
     17  CZ        93.9480   -3.5730   26.6030 C.cat   5  ARG5        0.5346
     18  NH1       94.4370   -3.7280   25.3750 N.pl3   5  ARG5        0.1354
     19  NH2       94.7450   -3.1350   27.5680 N.pl3   5  ARG5        0.1354
     20  N         78.3980   10.3590   28.7040 N.3   120  GLY120     -0.1225
     21  CA        79.4480   10.2550   27.7070 C.3   120  GLY120      0.1811
     22  C         80.8430   10.2040   28.2850 C.2   120  GLY120      0.2280
     23  O         81.7940   10.0480   27.5180 O.2   120  GLY120     -0.2866
     24  N         83.9540    8.4000   29.8860 N.3   122  LEU122     -0.1245
     25  CA        84.4290    7.0240   29.9210 C.3   122  LEU122      0.1561
     26  C         84.8610    6.6370   31.3390 C.2   122  LEU122      0.2260
     27  O         85.6860    7.3160   31.9610 O.2   122  LEU122     -0.2867
     28  CB        85.5870    6.7910   28.9650 C.3   122  LEU122      0.0270
     29  CG        85.2870    6.2510   27.5940 C.3   122  LEU122      0.0019
     30  CD1       86.5190    5.6080   27.0260 C.3   122  LEU122      0.0001
     31  CD2       84.2720    5.1310   27.5900 C.3   122  LEU122      0.0001
     32  N         88.5600   -6.0690   32.6910 N.3   143  HIS143     -0.1226
     33  CA        88.1090   -4.6800   32.8080 C.3   143  HIS143      0.1752
     34  C         87.5230   -4.2250   31.4600 C.2   143  HIS143      0.2596
     35  O         87.7980   -4.8340   30.4180 O.2   143  HIS143     -0.2718
     36  CB        89.2420   -3.7420   33.2810 C.3   143  HIS143      0.0759
     37  CG        90.1070   -3.2500   32.1750 C.ar  143  HIS143      0.0818
     38  ND1       90.0560   -1.9330   31.7590 N.ar  143  HIS143     -0.2268
     39  CD2       90.9720   -3.9300   31.3830 C.ar  143  HIS143      0.1154
     40  CE1       90.9200   -1.8360   30.7600 C.ar  143  HIS143      0.1986
     41  NE2       91.4950   -3.0140   30.4940 N.ar  143  HIS143     -0.2212
     42  N         86.6960   -3.1690   31.4910 N.am  144  VAL144     -0.1966
     43  CA        86.0450   -2.6060   30.3110 C.3   144  VAL144      0.1727
     44  C         85.8520   -1.1070   30.5580 C.2   144  VAL144      0.2616
     45  O         85.6830   -0.6890   31.7080 O.2   144  VAL144     -0.2715
     46  CB        84.7280   -3.3720   29.9330 C.3   144  VAL144      0.0290
     47  CG1       83.6260   -3.1900   30.9490 C.3   144  VAL144      0.0023
     48  CG2       84.2290   -3.0420   28.5330 C.3   144  VAL144      0.0023
     49  N         85.9660   -0.3030   29.4820 N.am  145  LEU145     -0.1963
     50  CA        85.7460    1.1400   29.5120 C.3   145  LEU145      0.1728
     51  C         84.3690    1.4160   28.9720 C.2   145  LEU145      0.2616
     52  O         84.0740    1.0410   27.8300 O.2   145  LEU145     -0.2715
     53  CB        86.7970    1.8810   28.7140 C.3   145  LEU145      0.0311
     54  CG        88.1670    1.7280   29.2370 C.3   145  LEU145      0.0022
     55  CD1       89.1240    2.2670   28.2680 C.3   145  LEU145      0.0001
     56  CD2       88.3220    2.3850   30.5770 C.3   145  LEU145      0.0001
     57  N         83.4810    1.9650   29.8250 N.am  146  LEU146     -0.1964
     58  CA        82.0990    2.2230   29.4320 C.3   146  LEU146      0.1713
     59  C         81.7410    3.6820   29.5830 C.2   146  LEU146      0.2458
     60  O         82.1330    4.3070   30.5690 O.2   146  LEU146     -0.2730
     61  CB        81.1090    1.3580   30.2180 C.3   146  LEU146      0.0310
     62  CG        81.3530   -0.1580   30.1840 C.3   146  LEU146      0.0022
     63  CD1       80.4450   -0.8570   31.1470 C.3   146  LEU146      0.0001
     64  CD2       81.1810   -0.7490   28.7560 C.3   146  LEU146      0.0001
     65  N         81.0120    4.2500   28.5900 N.am  147  PRO147     -0.2727
     66  CA        80.5800    5.6430   28.7200 C.3   147  PRO147      0.1402
     67  C         79.3010    5.7340   29.5780 C.2   147  PRO147      0.2269
     68  O         78.3850    4.8930   29.4750 O.2   147  PRO147     -0.2865
     69  CB        80.3540    6.0720   27.2700 C.3   147  PRO147      0.0296
     70  CG        79.9680    4.8040   26.5620 C.3   147  PRO147      0.0237
     71  CD        80.4770    3.6400   27.3510 C.3   147  PRO147      0.0939
     72  N         76.6350    2.6480   29.4440 N.3   172  GLU172     -0.1245
     73  CA        76.2050    1.9080   28.2470 C.3   172  GLU172      0.1567
     74  C         76.4560    0.3890   28.3590 C.2   172  GLU172      0.2260
     75  O         77.3740   -0.0360   29.0620 O.2   172  GLU172     -0.2867
     76  CB        76.9120    2.4670   27.0070 C.3   172  GLU172      0.0388
     77  CG        76.0170    3.3240   26.1230 C.3   172  GLU172      0.1160
     78  CD        76.7530    4.2310   25.1560 C.2   172  GLU172      0.3649
     79  OE1       77.5520    3.7080   24.3410 O.co2 172  GLU172     -0.2457
     80  OE2       76.5230    5.4640   25.2100 O.co2 172  GLU172     -0.2457
     81  N         75.9290   -1.9220   25.3480 N.3   174  ASN174     -0.1240
     82  CA        75.8130   -2.5600   24.0470 C.3   174  ASN174      0.1653
     83  C         76.9590   -3.5410   23.8640 C.2   174  ASN174      0.2266
     84  O         78.0640   -3.1400   23.4810 O.2   174  ASN174     -0.2867
     85  CB        75.7590   -1.5440   22.8790 C.3   174  ASN174      0.1155
     86  CG        75.4210   -2.1820   21.5380 C.2   174  ASN174      0.2627
     87  OD1       74.6500   -3.1510   21.4350 O.2   174  ASN174     -0.2716
     88  ND2       75.9910   -1.6700   20.4720 N.am  174  ASN174     -0.0877
     89  N         79.4020   -4.7400   25.2780 N.3   176  ARG176     -0.1245
     90  CA        80.3670   -4.4890   26.3540 C.3   176  ARG176      0.1563
     91  C         79.5710   -4.0570   27.6100 C.2   176  ARG176      0.2260
     92  O         78.8270   -3.0780   27.5540 O.2   176  ARG176     -0.2867
     93  CB        81.4030   -3.4330   25.9360 C.3   176  ARG176      0.0307
     94  CG        82.1740   -3.8410   24.7000 C.3   176  ARG176      0.0489
     95  CD        82.9200   -2.6680   24.1190 C.3   176  ARG176      0.2205
     96  NE        83.0930   -2.6810   22.6570 N.pl3 176  ARG176     -0.0865
     97  CZ        83.8910   -3.4980   21.9720 C.cat 176  ARG176      0.5346
     98  NH1       84.5470   -4.4780   22.5910 N.pl3 176  ARG176      0.1354
     99  NH2       83.9990   -3.3750   20.6560 N.pl3 176  ARG176      0.1354
@<TRIPOS>BOND
     1    88    86   am
     2    99    97    1
     3    87    86    2
     4    86    85    1
     5    97    98    1
     6    97    96    2
     7    96    95    1
     8    85    82    1
     9    84    83    2
    10    83    82    1
    11    82    81    1
    12    95    94    1
    13    79    78   ar
    14    94    93    1
    15    78    80   ar
    16    78    77    1
    17    89    90    1
    18    18    17    1
    19    15    14    1
    20    15    16    1
    21     4     3    2
    22     2     3    1
    23     2     1    1
    24    93    90    1
    25    77    76    1
    26    14    13    1
    27    90    91    1
    28     3     5   am
    29    70    69    1
    30    70    71    1
    31    17    16    2
    32    17    19    1
    33     8     7    2
    34    76    73    1
    35    30    29    1
    36    69    66    1
    37    71    65    1
    38     5     6    1
    39    23    22    2
    40    92    91    2
    41    31    29    1
    42    29    28    1
    43     7     6    1
    44     7     9   am
    45    13    10    1
    46    21    22    1
    47    21    20    1
    48    52    51    2
    49    10     9    1
    50    10    11    1
    51    73    74    1
    52    73    72    1
    53    55    54    1
    54    74    75    2
    55    48    46    1
    56    65    66    1
    57    65    59   am
    58    53    54    1
    59    53    50    1
    60    66    67    1
    61    64    62    1
    62    28    25    1
    63    51    50    1
    64    51    57   am
    65    54    56    1
    66    58    59    1
    67    58    57    1
    68    58    61    1
    69    68    67    2
    70    49    50    1
    71    49    44   am
    72    11    12    2
    73    59    60    2
    74    24    25    1
    75    25    26    1
    76    46    43    1
    77    46    47    1
    78    62    61    1
    79    62    63    1
    80    43    44    1
    81    43    42    1
    82    35    34    2
    83    41    40   ar
    84    41    39   ar
    85    44    45    2
    86    40    38   ar
    87    26    27    2
    88    39    37   ar
    89    34    42   am
    90    34    33    1
    91    38    37   ar
    92    37    36    1
    93    32    33    1
    94    33    36    1
