@<TRIPOS>MOLECULE
tmp/5tcaE00.pdb
 86 83 0 0 0
SMALL
GASTEIGER

@<TRIPOS>ATOM
      1  N         82.8310    6.1210   16.4120 N.3    43  LEU43      -0.1231
      2  CA        83.5380    5.4610   17.5060 C.3    43  LEU43       0.1693
      3  C         83.0820    4.0080   17.8050 C.2    43  LEU43       0.2591
      4  O         83.4430    3.4810   18.8640 O.2    43  LEU43      -0.2718
      5  CB        83.4130    6.3310   18.7650 C.3    43  LEU43       0.0284
      6  CG        84.4290    7.4860   18.9210 C.3    43  LEU43       0.0019
      7  CD1       84.3620    8.4980   17.7850 C.3    43  LEU43       0.0001
      8  CD2       84.1950    8.2350   20.2110 C.3    43  LEU43       0.0001
      9  N         82.4070    3.3250   16.8660 N.am   44  GLU44      -0.1979
     10  CA        81.9770    1.9420   17.1130 C.3    44  GLU44       0.1602
     11  C         83.0670    0.9390   16.7480 C.2    44  GLU44       0.2287
     12  O         83.1640   -0.1280   17.3630 O.2    44  GLU44      -0.2864
     13  CB        80.6730    1.6180   16.3830 C.3    44  GLU44       0.0415
     14  CG        79.4710    1.9390   17.2570 C.3    44  GLU44       0.1163
     15  CD        78.1880    2.3210   16.5440 C.2    44  GLU44       0.3649
     16  OE1       77.6610    1.4830   15.7740 O.co2  44  GLU44      -0.2457
     17  OE2       77.6750    3.4350   16.8040 O.co2  44  GLU44      -0.2457
     18  N         86.1340    1.7110   17.1540 N.3    46  ALA46      -0.1231
     19  CA        87.1970    2.3140   17.9570 C.3    46  ALA46       0.1694
     20  C         87.5710    1.4640   19.1800 C.2    46  ALA46       0.2592
     21  O         88.7540    1.1200   19.3790 O.2    46  ALA46      -0.2718
     22  CB        86.7940    3.7270   18.3980 C.3    46  ALA46       0.0304
     23  N         86.5350    1.1510   19.9920 N.am   47  ALA47      -0.1966
     24  CA        86.5960    0.3750   21.2170 C.3    47  ALA47       0.1728
     25  C         87.7780    0.8460   22.1030 C.2    47  ALA47       0.2616
     26  O         87.8240    2.0170   22.5190 O.2    47  ALA47      -0.2715
     27  CB        86.6880   -1.1160   20.8830 C.3    47  ALA47       0.0334
     28  N         88.7350   -0.0610   22.3450 N.am   48  ASP48      -0.1957
     29  CA        89.9350    0.2240   23.1030 C.3    48  ASP48       0.1840
     30  C         90.9060    0.9640   22.1680 C.2    48  ASP48       0.2623
     31  O         91.4490    0.3960   21.2100 O.2    48  ASP48      -0.2715
     32  CB        90.5450   -1.0670   23.6880 C.3    48  ASP48       0.1450
     33  CG        91.7040   -0.8520   24.6570 C.2    48  ASP48       0.3671
     34  OD1       91.7420    0.2070   25.3170 O.co2  48  ASP48      -0.2456
     35  OD2       92.5800   -1.7280   24.7330 O.co2  48  ASP48      -0.2456
     36  N         91.0460    2.2570   22.4080 N.am   49  GLY49      -0.1940
     37  CA        91.9110    3.1170   21.6160 C.3    49  GLY49       0.2014
     38  C         91.7530    4.5700   21.9950 C.2    49  GLY49       0.2639
     39  O         90.6970    4.9700   22.4800 O.2    49  GLY49      -0.2714
     40  N         92.8030    5.3730   21.7580 N.am   50  LYS50      -0.1963
     41  CA        92.8460    6.8010   22.0740 C.3    50  LYS50       0.1728
     42  C         92.1260    7.6540   20.9970 C.2    50  LYS50       0.2616
     43  O         92.6250    7.8040   19.8710 O.2    50  LYS50      -0.2715
     44  CB        94.3110    7.2420   22.2380 C.3    50  LYS50       0.0311
     45  CG        94.5040    8.5930   22.9050 C.3    50  LYS50       0.0038
     46  CD        95.8440    8.6390   23.6120 C.3    50  LYS50       0.0206
     47  CE        96.2570   10.0110   24.1040 C.3    50  LYS50       0.1093
     48  NZ        95.3850   10.5480   25.1960 N.3    50  LYS50      -0.1314
     49  N         90.9540    8.2110   21.3630 N.am   51  VAL51      -0.1977
     50  CA        90.1650    9.0890   20.4910 C.3    51  VAL51       0.1596
     51  C         90.5890   10.5370   20.7560 C.2    51  VAL51       0.2287
     52  O         90.6220   10.9970   21.9130 O.2    51  VAL51      -0.2864
     53  CB        88.6420    8.8700   20.6310 C.3    51  VAL51       0.0276
     54  CG1       87.8280   10.0420   20.0910 C.3    51  VAL51       0.0022
     55  CG2       88.2470    7.5780   19.9250 C.3    51  VAL51       0.0022
     56  N         89.6890   13.7920   24.0490 N.3    72  VAL72      -0.1231
     57  CA        88.2340   13.8800   24.1570 C.3    72  VAL72       0.1692
     58  C         87.8520   13.5730   25.6120 C.2    72  VAL72       0.2592
     59  O         88.0210   12.4620   26.0900 O.2    72  VAL72      -0.2718
     60  CB        87.4580   13.0200   23.1040 C.3    72  VAL72       0.0266
     61  CG1       85.9440   13.0660   23.3470 C.3    72  VAL72       0.0020
     62  CG2       87.7830   13.4840   21.6850 C.3    72  VAL72       0.0020
     63  N         87.3620   14.5830   26.3050 N.am   73  LEU73      -0.1966
     64  CA        86.9570   14.4830   27.6910 C.3    73  LEU73       0.1728
     65  C         85.6110   13.7650   27.8290 C.2    73  LEU73       0.2616
     66  O         85.3910   13.0610   28.8120 O.2    73  LEU73      -0.2715
     67  CB        86.8840   15.9050   28.2830 C.3    73  LEU73       0.0311
     68  CG        86.2950   16.0900   29.6760 C.3    73  LEU73       0.0022
     69  CD1       87.1020   15.3600   30.7640 C.3    73  LEU73       0.0001
     70  CD2       86.1540   17.5580   29.9950 C.3    73  LEU73       0.0001
     71  N         84.7170   13.9350   26.8520 N.am   74  ARG74      -0.1963
     72  CA        83.3660   13.3990   26.9270 C.3    74  ARG74       0.1729
     73  C         82.8290   13.1450   25.5220 C.2    74  ARG74       0.2616
     74  O         82.9930   14.0090   24.6730 O.2    74  ARG74      -0.2715
     75  CB        82.5080   14.4600   27.6730 C.3    74  ARG74       0.0348
     76  CG        81.1790   13.9970   28.1960 C.3    74  ARG74       0.0492
     77  CD        80.7540   14.8350   29.3690 C.3    74  ARG74       0.2205
     78  NE        80.0810   16.0950   29.0220 N.pl3  74  ARG74      -0.0865
     79  CZ        78.7590   16.2610   28.8910 C.cat  74  ARG74       0.5346
     80  NH1       77.9370   15.2240   28.9840 N.pl3  74  ARG74       0.1354
     81  NH2       78.2560   17.4620   28.6240 N.pl3  74  ARG74       0.1354
     82  N         82.1800   11.9810   25.2700 N.am   75  ALA75      -0.1977
     83  CA        81.5590   11.6720   23.9660 C.3    75  ALA75       0.1597
     84  C         80.0570   11.4300   24.1520 C.2    75  ALA75       0.2287
     85  O         79.6470   10.3880   24.6590 O.2    75  ALA75      -0.2864
     86  CB        82.2220   10.4770   23.3140 C.3    75  ALA75       0.0319
@<TRIPOS>BOND
     1    16    15   ar
     2    13    10    1
     3    13    14    1
     4     1     2    1
     5    15    17   ar
     6    15    14    1
     7    11    10    1
     8    11    12    2
     9     9    10    1
    10     9     3   am
    11    18    19    1
    12     2     3    1
    13     2     5    1
    14     7     6    1
    15     3     4    2
    16    19    22    1
    17    19    20    1
    18     5     6    1
    19     6     8    1
    20    20    21    2
    21    20    23   am
    22    43    42    2
    23    55    53    1
    24    23    24    1
    25    54    53    1
    26    50    53    1
    27    50    51    1
    28    50    49    1
    29    51    52    2
    30    27    24    1
    31    42    49   am
    32    42    41    1
    33    31    30    2
    34    24    25    1
    35    37    38    1
    36    37    36    1
    37    62    60    1
    38    40    38   am
    39    40    41    1
    40    38    39    2
    41    41    44    1
    42    25    28   am
    43    25    26    2
    44    30    36   am
    45    30    29    1
    46    44    45    1
    47    28    29    1
    48    45    46    1
    49    29    32    1
    50    60    61    1
    51    60    57    1
    52    86    83    1
    53    46    47    1
    54    32    33    1
    55    83    84    1
    56    83    82    1
    57    56    57    1
    58    47    48    1
    59    84    85    2
    60    57    58    1
    61    33    35   ar
    62    33    34   ar
    63    74    73    2
    64    82    73   am
    65    73    72    1
    66    58    59    2
    67    58    63   am
    68    63    64    1
    69    71    72    1
    70    71    65   am
    71    72    75    1
    72    75    76    1
    73    64    65    1
    74    64    67    1
    75    65    66    2
    76    76    77    1
    77    67    68    1
    78    81    79    1
    79    79    80    1
    80    79    78    2
    81    78    77    1
    82    68    70    1
    83    68    69    1
