@<TRIPOS>MOLECULE
tmp/5tcaE01.pdb
 171 167 0 0 0
SMALL
GASTEIGER

@<TRIPOS>ATOM
      1  N         93.1650    8.8490   11.1160 N.3    24  HIS24      -0.1226
      2  CA        91.9200    9.5520   10.8490 C.3    24  HIS24       0.1752
      3  C         90.8070    8.5220   10.6520 C.2    24  HIS24       0.2596
      4  O         91.0100    7.4800   10.0190 O.2    24  HIS24      -0.2718
      5  CB        92.0840   10.4350    9.6260 C.3    24  HIS24       0.0759
      6  CG        90.8040   10.9960    9.1110 C.ar   24  HIS24       0.0818
      7  ND1       90.3780   12.2470    9.4750 N.ar   24  HIS24      -0.2268
      8  CD2       89.9060   10.4590    8.2590 C.ar   24  HIS24       0.1154
      9  CE1       89.2310   12.4340    8.8490 C.ar   24  HIS24       0.1986
     10  NE2       88.9060   11.3820    8.1110 N.ar   24  HIS24      -0.2212
     11  N         89.6400    8.8100   11.2240 N.am   25  LEU25      -0.1966
     12  CA        88.4500    7.9620   11.1990 C.3    25  LEU25       0.1728
     13  C         87.3000    8.6920   10.5570 C.2    25  LEU25       0.2616
     14  O         86.6500    8.1790    9.6490 O.2    25  LEU25      -0.2715
     15  CB        88.0870    7.6330   12.6540 C.3    25  LEU25       0.0311
     16  CG        88.0210    6.1840   13.0500 C.3    25  LEU25       0.0022
     17  CD1       89.3880    5.5140   12.9500 C.3    25  LEU25       0.0001
     18  CD2       87.5210    6.0680   14.4670 C.3    25  LEU25       0.0001
     19  N         87.0590    9.9110   11.0410 N.am   26  CYS26      -0.1968
     20  CA        85.9470   10.7570   10.6820 C.3    26  CYS26       0.1712
     21  C         86.3360   12.1910   10.6750 C.2    26  CYS26       0.2296
     22  O         87.2620   12.5920   11.3660 O.2    26  CYS26      -0.2864
     23  CB        84.8230   10.5430   11.6860 C.3    26  CYS26       0.0983
     24  SG        83.9520    8.9850   11.5080 S.3    26  CYS26      -0.0798
     25  N         78.2950    6.9290   14.6580 N.3    41  HIS41      -0.1226
     26  CA        78.9040    5.6060   14.5170 C.3    41  HIS41       0.1752
     27  C         80.3940    5.6720   14.2230 C.2    41  HIS41       0.2596
     28  O         80.9630    4.6720   13.7760 O.2    41  HIS41      -0.2718
     29  CB        78.1710    4.7960   13.4270 C.3    41  HIS41       0.0759
     30  CG        76.6850    4.8380   13.5600 C.ar   41  HIS41       0.0818
     31  ND1       76.0340    4.2220   14.6260 N.ar   41  HIS41      -0.2268
     32  CD2       75.7640    5.4510   12.7800 C.ar   41  HIS41       0.1154
     33  CE1       74.7470    4.4820   14.4570 C.ar   41  HIS41       0.1986
     34  NE2       74.5340    5.2160   13.3590 N.ar   41  HIS41      -0.2212
     35  N         81.0380    6.8080   14.4960 N.am   42  CYS42      -0.1970
     36  CA        82.4570    6.9560   14.2060 C.3    42  CYS42       0.1712
     37  C         83.2840    6.1520   15.1590 C.2    42  CYS42       0.2296
     38  O         84.2630    5.5030   14.7570 O.2    42  CYS42      -0.2864
     39  CB        82.8540    8.4240   14.2370 C.3    42  CYS42       0.0983
     40  SG        82.3920    9.3370   12.7400 S.3    42  CYS42      -0.0798
     41  N         83.9120    1.3090   15.7760 N.3    45  ASP45      -0.1239
     42  CA        85.0350    0.4920   15.3000 C.3    45  ASP45       0.1674
     43  C         86.3290    0.9570   16.0330 C.2    45  ASP45       0.2266
     44  O         87.4520    0.6110   15.6300 O.2    45  ASP45      -0.2867
     45  CB        85.1390    0.6080   13.7500 C.3    45  ASP45       0.1410
     46  CG        83.8270    0.3480   12.9980 C.2    45  ASP45       0.3668
     47  OD1       82.8400    1.1080   13.2220 O.co2  45  ASP45      -0.2456
     48  OD2       83.7870   -0.5990   12.1830 O.co2  45  ASP45      -0.2456
     49  N         88.8450   14.2520    4.9640 N.3   128  TRP128     -0.1227
     50  CA        90.0450   13.4590    4.6720 C.3   128  TRP128      0.1737
     51  C         89.6760   11.9990    4.3410 C.2   128  TRP128      0.2596
     52  O         90.5020   11.0780    4.4870 O.2   128  TRP128     -0.2718
     53  CB        91.0260   13.5090    5.8520 C.3   128  TRP128      0.0564
     54  CG        91.7140   14.8240    6.0470 C.ar  128  TRP128      0.0003
     55  CD1       92.8690   15.2360    5.4580 C.ar  128  TRP128      0.0946
     56  CD2       91.3170   15.8760    6.9410 C.ar  128  TRP128      0.0152
     57  NE1       93.2260   16.4750    5.9350 N.ar  128  TRP128     -0.2442
     58  CE2       92.2840   16.8960    6.8370 C.ar  128  TRP128      0.0810
     59  CE3       90.2300   16.0550    7.8260 C.ar  128  TRP128      0.0012
     60  CZ2       92.1980   18.0790    7.5730 C.ar  128  TRP128      0.0191
     61  CZ3       90.1480   17.2220    8.5630 C.ar  128  TRP128      0.0001
     62  CH2       91.1260   18.2160    8.4410 C.ar  128  TRP128      0.0015
     63  N         88.4260   11.8150    3.9030 N.am  129  GLY129     -0.1942
     64  CA        87.8830   10.5210    3.5030 C.3   129  GLY129      0.2014
     65  C         88.4650   10.0740    2.1810 C.2   129  GLY129      0.2638
     66  O         89.0650   10.8880    1.4630 O.2   129  GLY129     -0.2714
     67  N         88.2430    8.7940    1.8270 N.am  130  ILE130     -0.1977
     68  CA        88.8300    8.1790    0.6210 C.3   130  ILE130      0.1596
     69  C         88.5060    8.9880   -0.6560 C.2   130  ILE130      0.2287
     70  O         87.4330    9.5760   -0.7830 O.2   130  ILE130     -0.2864
     71  CB        88.5170    6.6690    0.4550 C.3   130  ILE130      0.0276
     72  CG1       87.0080    6.3950    0.3250 C.3   130  ILE130      0.0022
     73  CG2       89.1740    5.8570    1.6040 C.3   130  ILE130      0.0022
     74  CD1       86.6860    5.1360   -0.3400 C.3   130  ILE130      0.0001
     75  N         93.6580    7.1030    0.8530 N.3   137  ARG137     -0.1245
     76  CA        93.4950    8.0040    1.9880 C.3   137  ARG137      0.1563
     77  C         94.2870    9.3260    1.6990 C.2   137  ARG137      0.2260
     78  O         95.5260    9.2710    1.6070 O.2   137  ARG137     -0.2867
     79  CB        94.0090    7.3320    3.2740 C.3   137  ARG137      0.0307
     80  CG        93.1160    6.3050    3.9300 C.3   137  ARG137      0.0489
     81  CD        93.8890    5.6850    5.0680 C.3   137  ARG137      0.2205
     82  NE        93.0600    5.1290    6.1390 N.pl3 137  ARG137     -0.0865
     83  CZ        92.6750    5.8010    7.2250 C.cat 137  ARG137      0.5346
     84  NH1       93.0050    7.0830    7.3770 N.pl3 137  ARG137      0.1354
     85  NH2       91.9360    5.2050    8.1570 N.pl3 137  ARG137      0.1354
     86  N         80.6230   12.3620   -1.0620 N.3   178  SER178     -0.1202
     87  CA        81.2700   12.1380    0.2020 C.3   178  SER178      0.2020
     88  C         81.4210   10.6090    0.3290 C.2   178  SER178      0.2619
     89  O         80.7000    9.8650   -0.3590 O.2   178  SER178     -0.2717
     90  CB        80.4620   12.7570    1.3370 C.3   178  SER178      0.2103
     91  OG        79.1450   12.2370    1.4330 O.3   178  SER178     -0.2182
     92  N         82.3920   10.1280    1.1420 N.am  179  CYS179     -0.1955
     93  CA        82.6120    8.7010    1.2410 C.3   179  CYS179      0.1843
     94  C         83.2240    8.3120    2.5850 C.2   179  CYS179      0.2625
     95  O         83.2480    9.1300    3.5050 O.2   179  CYS179     -0.2714
     96  CB        83.4700    8.2280    0.0730 C.3   179  CYS179      0.0997
     97  SG        83.2180    6.4930   -0.3640 S.3   179  CYS179     -0.0797
     98  N         83.6390    7.0290    2.7200 N.am  180  LYS180     -0.1963
     99  CA        84.2950    6.4470    3.9030 C.3   180  LYS180      0.1728
    100  C         85.3390    7.4260    4.4300 C.2   180  LYS180      0.2616
    101  O         86.1740    7.8940    3.6470 O.2   180  LYS180     -0.2715
    102  CB        84.9720    5.1200    3.4920 C.3   180  LYS180      0.0311
    103  CG        85.1250    4.0800    4.5920 C.3   180  LYS180      0.0038
    104  CD        86.2620    3.1180    4.2970 C.3   180  LYS180      0.0206
    105  CE        86.0020    1.9610    3.3700 C.3   180  LYS180      0.1093
    106  NZ        87.2620    1.5330    2.6820 N.3   180  LYS180     -0.1314
    107  N         85.2400    7.7830    5.7060 N.am  181  GLY181     -0.1955
    108  CA        86.1430    8.7540    6.3280 C.3   181  GLY181      0.1869
    109  C         85.6650   10.1960    6.2940 C.2   181  GLY181      0.2309
    110  O         86.1540   11.0160    7.0670 O.2   181  GLY181     -0.2863
    111  N         82.5180   10.8290    6.9470 N.3   183  SER183     -0.1217
    112  CA        81.4760   10.7080    7.9750 C.3   183  SER183      0.1889
    113  C         81.7410   11.6540    9.1810 C.2   183  SER183      0.2288
    114  O         82.8780   11.8150    9.6080 O.2   183  SER183     -0.2866
    115  CB        81.3600    9.2640    8.4400 C.3   183  SER183      0.2089
    116  OG        82.5500    8.5240    8.2500 O.3   183  SER183     -0.2183
    117  N         77.7530   14.7380    7.4760 N.3   197  VAL197     -0.1231
    118  CA        77.9150   13.4760    6.7190 C.3   197  VAL197      0.1692
    119  C         77.5960   12.2510    7.6300 C.2   197  VAL197      0.2593
    120  O         78.0710   12.2030    8.7700 O.2   197  VAL197     -0.2718
    121  CB        79.3400   13.3490    6.0770 C.3   197  VAL197      0.0266
    122  CG1       79.4620   12.0930    5.2180 C.3   197  VAL197      0.0020
    123  CG2       79.7050   14.6030    5.2650 C.3   197  VAL197      0.0020
    124  N         76.7570   11.3090    7.1350 N.am  198  THR198     -0.1939
    125  CA        76.3630   10.1200    7.9000 C.3   198  THR198      0.2028
    126  C         77.5540    9.1520    8.0910 C.2   198  THR198      0.2643
    127  O         78.4520    9.1380    7.2480 O.2   198  THR198     -0.2714
    128  CB        75.1650    9.4010    7.2820 C.3   198  THR198      0.1808
    129  OG1       75.4970    8.8860    5.9990 O.3   198  THR198     -0.2208
    130  CG2       73.9330   10.2600    7.2200 C.3   198  THR198      0.0379
    131  N         77.5870    8.3910    9.2190 N.am  199  SER199     -0.1935
    132  CA        78.6730    7.4560    9.5180 C.3   199  SER199      0.2055
    133  C         78.2670    6.0170    9.2770 C.2   199  SER199      0.2644
    134  O         78.8280    5.0930    9.8680 O.2   199  SER199     -0.2714
    135  CB        79.1540    7.6210   10.9500 C.3   199  SER199      0.2130
    136  OG        78.0690    7.5150   11.8490 O.3   199  SER199     -0.2179
    137  N         77.3010    5.8260    8.4030 N.am  200  GLY200     -0.1939
    138  CA        76.8640    4.4900    8.0670 C.3   200  GLY200      0.2014
    139  C         77.5200    4.0590    6.7860 C.2   200  GLY200      0.2640
    140  O         77.8120    4.8880    5.9270 O.2   200  GLY200     -0.2714
    141  N         77.7360    2.7700    6.6370 N.am  201  SER201     -0.1935
    142  CA        78.3070    2.2550    5.4000 C.3   201  SER201      0.2055
    143  C         77.3330    2.4700    4.2630 C.2   201  SER201      0.2642
    144  O         76.1390    2.2520    4.4260 O.2   201  SER201     -0.2714
    145  CB        78.6460    0.7730    5.5320 C.3   201  SER201      0.2130
    146  OG        79.2710    0.2730    4.3590 O.3   201  SER201     -0.2179
    147  N         77.8340    2.9350    3.1320 N.am  202  ARG202     -0.1977
    148  CA        77.0300    3.1690    1.9500 C.3   202  ARG202      0.1597
    149  C         77.8530    3.0710    0.6630 C.2   202  ARG202      0.2287
    150  O         79.0890    3.0030    0.7170 O.2   202  ARG202     -0.2864
    151  CB        76.3480    4.5230    2.0420 C.3   202  ARG202      0.0334
    152  CG        77.2940    5.6840    2.1510 C.3   202  ARG202      0.0492
    153  CD        76.5410    6.9980    2.0770 C.3   202  ARG202      0.2205
    154  NE        75.9820    7.2780    0.7460 N.pl3 202  ARG202     -0.0865
    155  CZ        76.5910    8.0100   -0.1860 C.cat 202  ARG202      0.5346
    156  NH1       77.8060    8.5120    0.0370 N.pl3 202  ARG202      0.1354
    157  NH2       75.9970    8.2360   -1.3510 N.pl3 202  ARG202      0.1354
    158  N         79.3190    4.8370   -2.5990 N.3   204  CYS204     -0.1235
    159  CA        79.6960    6.2020   -2.9800 C.3   204  CYS204      0.1677
    160  C         79.7620    6.3620   -4.4860 C.2   204  CYS204      0.2270
    161  O         80.0410    5.3940   -5.2020 O.2   204  CYS204     -0.2867
    162  CB        81.0280    6.5950   -2.3560 C.3   204  CYS204      0.0956
    163  SG        81.1960    6.2060   -0.6010 S.3   204  CYS204     -0.0801
    164  N         73.9430   11.1270    1.9090 N.3   212  ILE212     -0.1245
    165  CA        73.0200   11.3710    3.0170 C.3   212  ILE212      0.1561
    166  C         73.7300   12.2100    4.0840 C.2   212  ILE212      0.2260
    167  O         74.8600   11.8950    4.4600 O.2   212  ILE212     -0.2867
    168  CB        72.4460   10.0330    3.5810 C.3   212  ILE212      0.0252
    169  CG1       71.9700    9.1120    2.4260 C.3   212  ILE212      0.0019
    170  CG2       71.3030   10.3160    4.5480 C.3   212  ILE212      0.0019
    171  CD1       71.5860    7.7060    2.7700 C.3   212  ILE212      0.0001
@<TRIPOS>BOND
     1   161   160    2
     2   160   159    1
     3   159   158    1
     4   159   162    1
     5   162   163    1
     6   157   155    1
     7    86    87    1
     8    70    69    2
     9    69    68    1
    10   163    97    1
    11    97    96    1
    12    89    88    2
    13    74    72    1
    14   155   156    1
    15   155   154    2
    16    96    93    1
    17    87    88    1
    18    87    90    1
    19    72    71    1
    20    88    92   am
    21    71    68    1
    22    71    73    1
    23    68    67    1
    24   149   150    2
    25   149   148    1
    26   154   153    1
    27    75    76    1
    28    92    93    1
    29    93    94    1
    30    90    91    1
    31    66    65    2
    32    78    77    2
    33    77    76    1
    34    67    65   am
    35   164   165    1
    36   148   151    1
    37   148   147    1
    38    76    79    1
    39   151   152    1
    40   153   152    1
    41    65    64    1
    42   169   171    1
    43   169   168    1
    44    94    98   am
    45    94    95    2
    46   106   105    1
    47    98    99    1
    48   165   168    1
    49   165   166    1
    50   147   143   am
    51    79    80    1
    52   105   104    1
    53   102    99    1
    54   102   103    1
    55    64    63    1
    56   168   170    1
    57   101   100    2
    58    99   100    1
    59    63    51   am
    60    80    81    1
    61   166   167    2
    62   143   144    2
    63   143   142    1
    64   104   103    1
    65    51    52    2
    66    51    50    1
    67   146   145    1
    68   100   107   am
    69    50    49    1
    70    50    53    1
    71    81    82    1
    72   122   121    1
    73   123   121    1
    74   142   145    1
    75   142   141    1
    76    55    57   ar
    77    55    54   ar
    78   107   108    1
    79    53    54    1
    80   140   139    2
    81    57    58   ar
    82   129   128    1
    83    54    56   ar
    84   121   118    1
    85    82    83    2
    86   109   108    1
    87   109   110    2
    88   141   139   am
    89   118   117    1
    90   118   119    1
    91   139   138    1
    92    58    56   ar
    93    58    60   ar
    94    56    59   ar
    95   111   112    1
    96   124   119   am
    97   124   125    1
    98   130   128    1
    99    83    84    1
   100    83    85    1
   101   127   126    2
   102   128   125    1
   103    60    62   ar
   104   119   120    2
   105    59    61   ar
   106   125   126    1
   107   112   115    1
   108   112   113    1
   109   138   137    1
   110   126   131   am
   111    10     8   ar
   112    10     9   ar
   113   116   115    1
   114     8     6   ar
   115   137   133   am
   116    62    61   ar
   117     9     7   ar
   118     6     7   ar
   119     6     5    1
   120   113   114    2
   121   131   132    1
   122   133   132    1
   123   133   134    2
   124   132   135    1
   125     5     2    1
   126    14    13    2
   127     4     3    2
   128    13    19   am
   129    13    12    1
   130     3     2    1
   131     3    11   am
   132    21    20    1
   133    21    22    2
   134    20    19    1
   135    20    23    1
   136     2     1    1
   137   135   136    1
   138    12    11    1
   139    12    15    1
   140    24    23    1
   141    24    40    1
   142    48    46   ar
   143    15    16    1
   144    40    39    1
   145    32    34   ar
   146    32    30   ar
   147    17    16    1
   148    46    47   ar
   149    46    45    1
   150    16    18    1
   151    34    33   ar
   152    29    30    1
   153    29    26    1
   154    30    31   ar
   155    45    42    1
   156    28    27    2
   157    36    39    1
   158    36    35    1
   159    36    37    1
   160    27    35   am
   161    27    26    1
   162    33    31   ar
   163    26    25    1
   164    38    37    2
   165    42    41    1
   166    42    43    1
   167    44    43    2
