@<TRIPOS>MOLECULE
tmp/5tccD01.pdb
 77 73 0 0 0
SMALL
GASTEIGER

@<TRIPOS>ATOM
      1  N         33.2080    6.0450   16.3060 N.3    43  LEU43      -0.1231
      2  CA        34.0060    5.3500   17.3060 C.3    43  LEU43       0.1693
      3  C         33.5180    3.9150   17.5560 C.2    43  LEU43       0.2591
      4  O         33.6610    3.3930   18.6670 O.2    43  LEU43      -0.2718
      5  CB        34.0490    6.1940   18.5960 C.3    43  LEU43       0.0284
      6  CG        34.5760    7.6290   18.4030 C.3    43  LEU43       0.0019
      7  CD1       34.4190    8.4540   19.6560 C.3    43  LEU43       0.0001
      8  CD2       36.0220    7.6490   17.9120 C.3    43  LEU43       0.0001
      9  N         33.0680    3.2420   16.4800 N.am   44  GLU44      -0.1979
     10  CA        32.5590    1.8670   16.5250 C.3    44  GLU44       0.1602
     11  C         33.6820    0.8140   16.6710 C.2    44  GLU44       0.2287
     12  O         33.4030   -0.3040   17.1150 O.2    44  GLU44      -0.2864
     13  CB        31.6960    1.5540   15.2880 C.3    44  GLU44       0.0415
     14  CG        32.4360    1.6700   13.9650 C.3    44  GLU44       0.1163
     15  CD        31.7980    0.9890   12.7720 C.2    44  GLU44       0.3649
     16  OE1       30.5870    0.6740   12.8270 O.co2  44  GLU44      -0.2457
     17  OE2       32.5150    0.7830   11.7670 O.co2  44  GLU44      -0.2457
     18  N         37.0620    1.8080   17.9220 N.3    46  ALA46      -0.1231
     19  CA        38.1320    2.5050   18.6380 C.3    46  ALA46       0.1694
     20  C         38.7950    1.5930   19.6750 C.2    46  ALA46       0.2592
     21  O         40.0260    1.5870   19.7700 O.2    46  ALA46      -0.2718
     22  CB        37.5950    3.7630   19.3100 C.3    46  ALA46       0.0304
     23  N         37.9760    0.8050   20.4250 N.am   47  ALA47      -0.1966
     24  CA        38.3770   -0.0950   21.5170 C.3    47  ALA47       0.1728
     25  C         39.1480    0.7050   22.6100 C.2    47  ALA47       0.2616
     26  O         38.7560    1.8420   22.8970 O.2    47  ALA47      -0.2715
     27  CB        39.1910   -1.2780   20.9870 C.3    47  ALA47       0.0334
     28  N         40.2240    0.1460   23.2030 N.am   48  ASP48      -0.1957
     29  CA        40.9810    0.8480   24.2430 C.3    48  ASP48       0.1840
     30  C         42.0410    1.8380   23.6500 C.2    48  ASP48       0.2622
     31  O         42.8940    2.3380   24.3960 O.2    48  ASP48      -0.2715
     32  CB        41.6170   -0.1330   25.2760 C.3    48  ASP48       0.1450
     33  CG        42.1480   -1.4900   24.7970 C.2    48  ASP48       0.3671
     34  OD1       42.3060   -1.6770   23.5580 O.co2  48  ASP48      -0.2456
     35  OD2       42.4430   -2.3530   25.6650 O.co2  48  ASP48      -0.2456
     36  N         41.9390    2.1450   22.3480 N.am   49  GLY49      -0.1954
     37  CA        42.8170    3.0890   21.6620 C.3    49  GLY49       0.1869
     38  C         42.5580    4.5340   22.0480 C.2    49  GLY49       0.2309
     39  O         41.4780    4.8660   22.5430 O.2    49  GLY49      -0.2863
     40  N         41.5390    8.1300   21.4630 N.3    51  VAL51      -0.1245
     41  CA        40.7050    8.9460   20.5730 C.3    51  VAL51       0.1561
     42  C         41.0860   10.4180   20.7790 C.2    51  VAL51       0.2260
     43  O         41.1240   10.9030   21.9170 O.2    51  VAL51      -0.2867
     44  CB        39.1950    8.6900   20.7750 C.3    51  VAL51       0.0252
     45  CG1       38.3460    9.6750   19.9760 C.3    51  VAL51       0.0019
     46  CG2       38.8460    7.2530   20.4080 C.3    51  VAL51       0.0019
     47  N         40.0820   13.7220   23.9430 N.3    72  VAL72      -0.1231
     48  CA        38.6290   13.7720   24.1000 C.3    72  VAL72       0.1692
     49  C         38.3250   13.5170   25.5720 C.2    72  VAL72       0.2592
     50  O         38.6090   12.4430   26.0990 O.2    72  VAL72      -0.2718
     51  CB        37.8360   12.8320   23.1420 C.3    72  VAL72       0.0266
     52  CG1       36.3280   12.9150   23.3960 C.3    72  VAL72       0.0020
     53  CG2       38.1510   13.1420   21.6810 C.3    72  VAL72       0.0020
     54  N         37.7950   14.5460   26.2330 N.am   73  LEU73      -0.1966
     55  CA        37.4330   14.5510   27.6460 C.3    73  LEU73       0.1728
     56  C         36.0630   13.8930   27.8540 C.2    73  LEU73       0.2616
     57  O         35.8530   13.2450   28.8780 O.2    73  LEU73      -0.2715
     58  CB        37.4370   16.0100   28.1410 C.3    73  LEU73       0.0311
     59  CG        37.0170   16.2920   29.5610 C.3    73  LEU73       0.0022
     60  CD1       38.0000   15.7280   30.5490 C.3    73  LEU73       0.0001
     61  CD2       36.8740   17.7730   29.7830 C.3    73  LEU73       0.0001
     62  N         35.1480   14.0400   26.8740 N.am   74  ARG74      -0.1963
     63  CA        33.7840   13.5120   26.9350 C.3    74  ARG74       0.1729
     64  C         33.2450   13.2560   25.5110 C.2    74  ARG74       0.2616
     65  O         33.4000   14.1190   24.6490 O.2    74  ARG74      -0.2715
     66  CB        32.9100   14.5400   27.6890 C.3    74  ARG74       0.0348
     67  CG        31.5430   14.0550   28.1310 C.3    74  ARG74       0.0492
     68  CD        31.0890   14.7680   29.3830 C.3    74  ARG74       0.2205
     69  NE        30.6450   16.1400   29.1360 N.pl3  74  ARG74      -0.0865
     70  CZ        29.3770   16.5090   28.9600 C.cat  74  ARG74       0.5346
     71  NH1       28.4010   15.6090   29.0010 N.pl3  74  ARG74       0.1354
     72  NH2       29.0760   17.7820   28.7420 N.pl3  74  ARG74       0.1354
     73  N         32.6290   12.0750   25.2610 N.am   75  ALA75      -0.1977
     74  CA        32.0470   11.7420   23.9500 C.3    75  ALA75       0.1597
     75  C         30.5680   11.4190   24.1180 C.2    75  ALA75       0.2287
     76  O         30.1920   10.3350   24.5760 O.2    75  ALA75      -0.2864
     77  CB        32.7890   10.5960   23.2970 C.3    75  ALA75       0.0319
@<TRIPOS>BOND
     1    17    15   ar
     2    15    16   ar
     3    15    14    1
     4    14    13    1
     5    13    10    1
     6     1     2    1
     7     9    10    1
     8     9     3   am
     9    10    11    1
    10    11    12    2
    11     2     3    1
    12     2     5    1
    13     3     4    2
    14     8     6    1
    15    18    19    1
    16     6     5    1
    17     6     7    1
    18    19    22    1
    19    19    20    1
    20    20    21    2
    21    20    23   am
    22    45    44    1
    23    46    44    1
    24    23    24    1
    25    41    44    1
    26    41    42    1
    27    41    40    1
    28    42    43    2
    29    27    24    1
    30    24    25    1
    31    37    38    1
    32    37    36    1
    33    53    51    1
    34    38    39    2
    35    36    30   am
    36    25    26    2
    37    25    28   am
    38    51    52    1
    39    51    48    1
    40    28    29    1
    41    77    74    1
    42    34    33   ar
    43    30    29    1
    44    30    31    2
    45    47    48    1
    46    74    75    1
    47    74    73    1
    48    48    49    1
    49    75    76    2
    50    29    32    1
    51    65    64    2
    52    33    32    1
    53    33    35   ar
    54    73    64   am
    55    64    63    1
    56    49    50    2
    57    49    54   am
    58    54    55    1
    59    62    63    1
    60    62    56   am
    61    63    66    1
    62    55    56    1
    63    55    58    1
    64    66    67    1
    65    56    57    2
    66    67    68    1
    67    58    59    1
    68    72    70    1
    69    70    71    1
    70    70    69    2
    71    69    68    1
    72    59    61    1
    73    59    60    1
