@<TRIPOS>MOLECULE
tmp/5tccD00.pdb
 170 166 0 0 0
SMALL
GASTEIGER

@<TRIPOS>ATOM
      1  N         43.6880    9.1040   11.1450 N.3    24  HIS24      -0.1226
      2  CA        42.4110    9.6970   10.7340 C.3    24  HIS24       0.1752
      3  C         41.3230    8.6330   10.6200 C.2    24  HIS24       0.2596
      4  O         41.4570    7.6230    9.9190 O.2    24  HIS24      -0.2718
      5  CB        42.5200   10.4940    9.4290 C.3    24  HIS24       0.0759
      6  CG        41.2040   11.0470    8.9720 C.ar   24  HIS24       0.0818
      7  ND1       40.8050   12.3160    9.3110 N.ar   24  HIS24      -0.2268
      8  CD2       40.2290   10.4670    8.2330 C.ar   24  HIS24       0.1154
      9  CE1       39.6180   12.4840    8.7510 C.ar   24  HIS24       0.1986
     10  NE2       39.2310   11.3950    8.0940 N.ar   24  HIS24      -0.2212
     11  N         40.2380    8.8990   11.3250 N.am   25  LEU25      -0.1966
     12  CA        39.0880    8.0190   11.4070 C.3    25  LEU25       0.1728
     13  C         37.8720    8.6830   10.7690 C.2    25  LEU25       0.2616
     14  O         37.2620    8.1110    9.8580 O.2    25  LEU25      -0.2715
     15  CB        38.8440    7.7160   12.9020 C.3    25  LEU25       0.0311
     16  CG        37.9770    6.5340   13.2870 C.3    25  LEU25       0.0022
     17  CD1       38.5430    5.2320   12.7400 C.3    25  LEU25       0.0001
     18  CD2       37.9010    6.4260   14.7930 C.3    25  LEU25       0.0001
     19  N         37.5610    9.9160   11.2210 N.am   26  CYS26      -0.1968
     20  CA        36.4050   10.6970   10.8010 C.3    26  CYS26       0.1712
     21  C         36.7090   12.1490   10.7180 C.2    26  CYS26       0.2296
     22  O         37.6160   12.6300   11.3850 O.2    26  CYS26      -0.2864
     23  CB        35.2700   10.4760   11.7870 C.3    26  CYS26       0.0983
     24  SG        34.3100    8.9870   11.4810 S.3    26  CYS26      -0.0798
     25  N         28.6050    6.7460   14.5100 N.3    41  HIS41      -0.1226
     26  CA        29.2490    5.4540   14.2130 C.3    41  HIS41       0.1752
     27  C         30.7520    5.5840   13.9220 C.2    41  HIS41       0.2596
     28  O         31.3460    4.6520   13.3920 O.2    41  HIS41      -0.2718
     29  CB        28.5440    4.7120   13.0560 C.3    41  HIS41       0.0759
     30  CG        27.0470    4.6880   13.1320 C.ar   41  HIS41       0.0818
     31  ND1       26.3660    5.0170   14.2940 N.ar   41  HIS41      -0.2268
     32  CD2       26.1460    4.3450   12.1840 C.ar   41  HIS41       0.1154
     33  CE1       25.0830    4.8950   14.0050 C.ar   41  HIS41       0.1986
     34  NE2       24.9010    4.4790   12.7510 N.ar   41  HIS41      -0.2212
     35  N         31.3690    6.6990   14.3080 N.am   42  CYS42      -0.1970
     36  CA        32.7880    6.9060   14.0840 C.3    42  CYS42       0.1712
     37  C         33.6130    6.0840   15.0340 C.2    42  CYS42       0.2296
     38  O         34.6020    5.4710   14.6170 O.2    42  CYS42      -0.2864
     39  CB        33.1390    8.3820   14.1960 C.3    42  CYS42       0.0983
     40  SG        32.7420    9.3370   12.7120 S.3    42  CYS42      -0.0798
     41  N         33.0680    3.2420   16.4800 N.3    44  GLU44      -0.1231
     42  CA        32.5590    1.8670   16.5250 C.3    44  GLU44       0.1699
     43  C         33.6820    0.8140   16.6710 C.2    44  GLU44       0.2592
     44  O         33.4030   -0.3040   17.1150 O.2    44  GLU44      -0.2718
     45  CB        31.6960    1.5540   15.2880 C.3    44  GLU44       0.0402
     46  CG        32.4360    1.6700   13.9650 C.3    44  GLU44       0.1161
     47  CD        31.7980    0.9890   12.7720 C.2    44  GLU44       0.3649
     48  OE1       30.5870    0.6740   12.8270 O.co2  44  GLU44      -0.2457
     49  OE2       32.5150    0.7830   11.7670 O.co2  44  GLU44      -0.2457
     50  N         34.9270    1.1580   16.2750 N.am   45  ASP45      -0.1974
     51  CA        36.0630    0.2300   16.3280 C.3    45  ASP45       0.1709
     52  C         37.2970    0.8830   16.9720 C.2    45  ASP45       0.2293
     53  O         38.4410    0.5460   16.6230 O.2    45  ASP45      -0.2864
     54  CB        36.4130   -0.2880   14.9190 C.3    45  ASP45       0.1436
     55  CG        35.2340   -0.5800   14.0130 C.2    45  ASP45       0.3671
     56  OD1       34.3540   -1.3720   14.4200 O.co2  45  ASP45      -0.2456
     57  OD2       35.1960   -0.0200   12.8920 O.co2  45  ASP45      -0.2456
     58  N         39.1290   14.3890    4.8630 N.3   128  TRP128     -0.1227
     59  CA        40.3340   13.5870    4.5750 C.3   128  TRP128      0.1737
     60  C         39.9670   12.1250    4.2350 C.2   128  TRP128      0.2596
     61  O         40.8100   11.2180    4.3510 O.2   128  TRP128     -0.2718
     62  CB        41.3300   13.6270    5.7560 C.3   128  TRP128      0.0564
     63  CG        41.9770   14.9580    5.9880 C.ar  128  TRP128      0.0003
     64  CD1       43.1040   15.4380    5.3910 C.ar  128  TRP128      0.0946
     65  CD2       41.5670   15.9510    6.9310 C.ar  128  TRP128      0.0152
     66  NE1       43.4250   16.6710    5.9060 N.ar  128  TRP128     -0.2442
     67  CE2       42.4930   17.0130    6.8500 C.ar  128  TRP128      0.0810
     68  CE3       40.4880   16.0570    7.8270 C.ar  128  TRP128      0.0012
     69  CZ2       42.3730   18.1690    7.6280 C.ar  128  TRP128      0.0191
     70  CZ3       40.3720   17.1960    8.6040 C.ar  128  TRP128      0.0001
     71  CH2       41.3070   18.2350    8.5060 C.ar  128  TRP128      0.0015
     72  N         38.7170   11.9310    3.8120 N.am  129  GLY129     -0.1942
     73  CA        38.1940   10.6310    3.4240 C.3   129  GLY129      0.2014
     74  C         38.7480   10.1810    2.0940 C.2   129  GLY129      0.2638
     75  O         39.2310   11.0180    1.3200 O.2   129  GLY129     -0.2714
     76  N         38.6030    8.8600    1.8010 N.am  130  ILE130     -0.1977
     77  CA        39.0880    8.1600    0.5970 C.3   130  ILE130      0.1596
     78  C         38.7240    8.9640   -0.6770 C.2   130  ILE130      0.2287
     79  O         37.6060    9.4820   -0.8110 O.2   130  ILE130     -0.2864
     80  CB        38.6470    6.6590    0.5220 C.3   130  ILE130      0.0276
     81  CG1       37.1510    6.4970    0.2260 C.3   130  ILE130      0.0022
     82  CG2       39.0560    5.8740    1.7950 C.3   130  ILE130      0.0022
     83  CD1       36.7790    5.2280   -0.4660 C.3   130  ILE130      0.0001
     84  N         40.6580    3.1790   -2.2810 N.3   135  GLY135     -0.1225
     85  CA        40.8750    3.5300   -0.8840 C.3   135  GLY135      0.1811
     86  C         42.0260    4.4670   -0.5810 C.2   135  GLY135      0.2280
     87  O         42.4400    4.5530    0.5790 O.2   135  GLY135     -0.2866
     88  N         44.0580    7.1920    0.7420 N.3   137  ARG137     -0.1245
     89  CA        43.8580    8.1620    1.8180 C.3   137  ARG137      0.1563
     90  C         44.5880    9.4750    1.4550 C.2   137  ARG137      0.2260
     91  O         45.8150    9.4500    1.2920 O.2   137  ARG137     -0.2867
     92  CB        44.3730    7.6350    3.1740 C.3   137  ARG137      0.0307
     93  CG        43.6460    6.4710    3.7900 C.3   137  ARG137      0.0489
     94  CD        44.4890    5.9180    4.9210 C.3   137  ARG137      0.2205
     95  NE        43.6950    5.1630    5.8880 N.pl3 137  ARG137     -0.0865
     96  CZ        43.1650    5.6900    6.9890 C.cat 137  ARG137      0.5346
     97  NH1       43.3420    6.9780    7.2690 N.pl3 137  ARG137      0.1354
     98  NH2       42.4580    4.9330    7.8200 N.pl3 137  ARG137      0.1354
     99  N         32.7390   10.1640    0.9220 N.3   179  CYS179     -0.1221
    100  CA        32.9220    8.7240    1.0580 C.3   179  CYS179      0.1808
    101  C         33.4980    8.3110    2.4260 C.2   179  CYS179      0.2601
    102  O         33.4270    9.0920    3.3740 O.2   179  CYS179     -0.2717
    103  CB        33.7930    8.2170   -0.0830 C.3   179  CYS179      0.0970
    104  SG        33.5250    6.4730   -0.4850 S.3   179  CYS179     -0.0800
    105  N         33.9980    7.0550    2.5340 N.am  180  LYS180     -0.1965
    106  CA        34.6430    6.4610    3.7140 C.3   180  LYS180      0.1728
    107  C         35.6570    7.4460    4.2780 C.2   180  LYS180      0.2616
    108  O         36.4930    7.9430    3.5220 O.2   180  LYS180     -0.2715
    109  CB        35.3410    5.1520    3.2920 C.3   180  LYS180      0.0311
    110  CG        35.7180    4.1850    4.3990 C.3   180  LYS180      0.0038
    111  CD        35.7230    2.7550    3.8500 C.3   180  LYS180      0.0206
    112  CE        37.0880    2.1050    3.7860 C.3   180  LYS180      0.1093
    113  NZ        37.4020    1.3370    5.0310 N.3   180  LYS180     -0.1314
    114  N         35.5060    7.8090    5.5480 N.am  181  GLY181     -0.1955
    115  CA        36.3990    8.7650    6.2000 C.3   181  GLY181      0.1869
    116  C         35.9820   10.2180    6.0930 C.2   181  GLY181      0.2309
    117  O         36.6200   11.0890    6.6950 O.2   181  GLY181     -0.2863
    118  N         32.7580   10.8700    6.7240 N.3   183  SER183     -0.1217
    119  CA        31.7280   10.7470    7.7590 C.3   183  SER183      0.1889
    120  C         32.0720   11.6270    8.9840 C.2   183  SER183      0.2288
    121  O         33.2420   11.7300    9.3680 O.2   183  SER183     -0.2866
    122  CB        31.5890    9.2860    8.1660 C.3   183  SER183      0.2089
    123  OG        32.8450    8.7130    8.4850 O.3   183  SER183     -0.2183
    124  N         27.9870   14.6210    7.4540 N.3   197  VAL197     -0.1231
    125  CA        28.1050   13.3840    6.6680 C.3   197  VAL197      0.1692
    126  C         27.8310   12.1670    7.5700 C.2   197  VAL197      0.2593
    127  O         28.4040   12.0880    8.6570 O.2   197  VAL197     -0.2718
    128  CB        29.4980   13.2870    5.9810 C.3   197  VAL197      0.0266
    129  CG1       29.5290   12.1590    4.9630 C.3   197  VAL197      0.0020
    130  CG2       29.8880   14.6030    5.3160 C.3   197  VAL197      0.0020
    131  N         26.9330   11.2540    7.1490 N.am  198  THR198     -0.1939
    132  CA        26.6050   10.0820    7.9770 C.3   198  THR198      0.2028
    133  C         27.7810    9.1000    8.0220 C.2   198  THR198      0.2643
    134  O         28.5370    9.0030    7.0580 O.2   198  THR198     -0.2714
    135  CB        25.2970    9.3720    7.5450 C.3   198  THR198      0.1808
    136  OG1       25.4680    8.6740    6.3030 O.3   198  THR198     -0.2208
    137  CG2       24.0900   10.3180    7.5000 C.3   198  THR198      0.0379
    138  N         27.9360    8.3980    9.1610 N.am  199  SER199     -0.1935
    139  CA        28.9940    7.4120    9.4160 C.3   199  SER199      0.2055
    140  C         28.5200    5.9900    9.1150 C.2   199  SER199      0.2644
    141  O         29.1550    5.0180    9.5360 O.2   199  SER199     -0.2714
    142  CB        29.4810    7.5150   10.8560 C.3   199  SER199      0.2130
    143  OG        28.3750    7.5850   11.7400 O.3   199  SER199     -0.2179
    144  N         27.4160    5.8880    8.3820 N.am  200  GLY200     -0.1939
    145  CA        26.8400    4.6150    7.9810 C.3   200  GLY200      0.2014
    146  C         27.5200    4.1060    6.7400 C.2   200  GLY200      0.2640
    147  O         27.7510    4.8760    5.8130 O.2   200  GLY200     -0.2714
    148  N         27.8590    2.8160    6.7280 N.am  201  SER201     -0.1935
    149  CA        28.5320    2.1700    5.6140 C.3   201  SER201      0.2055
    150  C         27.6280    2.2170    4.3940 C.2   201  SER201      0.2642
    151  O         26.6200    1.5170    4.3570 O.2   201  SER201     -0.2714
    152  CB        28.9190    0.7380    5.9850 C.3   201  SER201      0.2130
    153  OG        29.9620    0.2390    5.1590 O.3   201  SER201     -0.2179
    154  N         27.9250    3.1350    3.4530 N.am  202  ARG202     -0.1977
    155  CA        27.1230    3.3060    2.2350 C.3   202  ARG202      0.1597
    156  C         27.9520    3.0450    0.9540 C.2   202  ARG202      0.2287
    157  O         29.0700    2.5210    1.0350 O.2   202  ARG202     -0.2864
    158  CB        26.4470    4.6900    2.2020 C.3   202  ARG202      0.0334
    159  CG        27.3730    5.8960    2.0940 C.3   202  ARG202      0.0492
    160  CD        26.5760    7.1750    1.8590 C.3   202  ARG202      0.2205
    161  NE        26.1260    7.2960    0.4710 N.pl3 202  ARG202     -0.0865
    162  CZ        26.7360    8.0250   -0.4590 C.cat 202  ARG202      0.5346
    163  NH1       27.8160    8.7390   -0.1550 N.pl3 202  ARG202      0.1354
    164  NH2       26.2650    8.0570   -1.6980 N.pl3 202  ARG202      0.1354
    165  N         29.4650    5.0360   -2.2560 N.3   204  CYS204     -0.1235
    166  CA        29.8120    6.3360   -2.8390 C.3   204  CYS204      0.1677
    167  C         29.9630    6.3110   -4.3660 C.2   204  CYS204      0.2270
    168  O         30.2940    5.2740   -4.9530 O.2   204  CYS204     -0.2867
    169  CB        31.0730    6.9120   -2.2000 C.3   204  CYS204      0.0956
    170  SG        31.4940    6.2160   -0.5840 S.3   204  CYS204     -0.0801
@<TRIPOS>BOND
     1   168   167    2
     2   167   166    1
     3   166   165    1
     4   166   169    1
     5    84    85    1
     6   169   170    1
     7   164   162    1
     8    85    86    1
     9    79    78    2
    10    78    77    1
    11   170   104    1
    12    86    87    2
    13   104   103    1
    14    83    81    1
    15   162   163    1
    16   162   161    2
    17   103   100    1
    18    81    80    1
    19   161   160    1
    20    80    77    1
    21    80    82    1
    22    77    76    1
    23    88    89    1
    24    99   100    1
    25   156   157    2
    26   156   155    1
    27   100   101    1
    28    91    90    2
    29    75    74    2
    30    90    89    1
    31    76    74   am
    32    89    92    1
    33   160   159    1
    34    74    73    1
    35   159   158    1
    36   158   155    1
    37   155   154    1
    38   101   105   am
    39   101   102    2
    40   105   106    1
    41    92    93    1
    42   109   106    1
    43   109   110    1
    44    73    72    1
    45   154   150   am
    46   108   107    2
    47   106   107    1
    48   112   111    1
    49   112   113    1
    50    93    94    1
    51    72    60   am
    52   111   110    1
    53    60    61    2
    54    60    59    1
    55   107   114   am
    56   151   150    2
    57   150   149    1
    58    59    58    1
    59    59    62    1
    60    94    95    1
    61   129   128    1
    62   153   152    1
    63   130   128    1
    64    64    66   ar
    65    64    63   ar
    66   114   115    1
    67   149   152    1
    68   149   148    1
    69    62    63    1
    70   147   146    2
    71    95    96    2
    72    66    67   ar
    73   128   125    1
    74    63    65   ar
    75   116   115    1
    76   116   117    2
    77   136   135    1
    78   125   124    1
    79   125   126    1
    80   118   119    1
    81   148   146   am
    82   146   145    1
    83    67    65   ar
    84    67    69   ar
    85    65    68   ar
    86    96    97    1
    87    96    98    1
    88   134   133    2
    89   131   126   am
    90   131   132    1
    91   137   135    1
    92   135   132    1
    93   126   127    2
    94    69    71   ar
    95   119   122    1
    96   119   120    1
    97    68    70   ar
    98   132   133    1
    99   145   144    1
   100   133   138   am
   101    10     8   ar
   102    10     9   ar
   103   122   123    1
   104     8     6   ar
   105   144   140   am
   106    71    70   ar
   107     9     7   ar
   108     6     7   ar
   109     6     5    1
   110   120   121    2
   111   140   139    1
   112   140   141    2
   113   138   139    1
   114   139   142    1
   115     5     2    1
   116    14    13    2
   117     4     3    2
   118     3     2    1
   119     3    11   am
   120    21    20    1
   121    21    22    2
   122     2     1    1
   123    13    19   am
   124    13    12    1
   125    20    19    1
   126    20    23    1
   127   142   143    1
   128    11    12    1
   129    12    15    1
   130    24    23    1
   131    24    40    1
   132    49    47   ar
   133    32    34   ar
   134    32    30   ar
   135    40    39    1
   136    17    16    1
   137    34    33   ar
   138    47    48   ar
   139    47    46    1
   140    57    55   ar
   141    15    16    1
   142    29    30    1
   143    29    26    1
   144    30    31   ar
   145    16    18    1
   146    28    27    2
   147    27    26    1
   148    27    35   am
   149    46    45    1
   150    33    31   ar
   151    55    56   ar
   152    55    54    1
   153    36    39    1
   154    36    35    1
   155    36    37    1
   156    26    25    1
   157    38    37    2
   158    54    51    1
   159    45    42    1
   160    50    51    1
   161    50    43   am
   162    51    52    1
   163    41    42    1
   164    42    43    1
   165    53    52    2
   166    43    44    2
