@<TRIPOS>MOLECULE
tmp/5tccC01.pdb
 99 94 0 0 0
SMALL
GASTEIGER

@<TRIPOS>ATOM
      1  N          2.4270   28.7230   77.3640 N.3     3  GLY3       -0.1210
      2  CA         3.2320   28.9640   78.5530 C.3     3  GLY3        0.1956
      3  C          4.5150   29.7580   78.3740 C.2     3  GLY3        0.2612
      4  O          5.4740   29.5560   79.1170 O.2     3  GLY3       -0.2717
      5  N          4.5330   30.6730   77.4150 N.am    4  GLY4       -0.1942
      6  CA         5.7020   31.5130   77.1720 C.3     4  GLY4        0.2014
      7  C          5.4850   32.9870   77.4790 C.2     4  GLY4        0.2638
      8  O          4.4000   33.3930   77.8930 O.2     4  GLY4       -0.2714
      9  N          6.5240   33.8010   77.2650 N.am    5  ARG5       -0.1977
     10  CA         6.5290   35.2500   77.4580 C.3     5  ARG5        0.1597
     11  C          6.3180   35.9620   76.1360 C.2     5  ARG5        0.2287
     12  O          6.4130   35.3290   75.0820 O.2     5  ARG5       -0.2864
     13  CB         7.8910   35.6790   78.0340 C.3     5  ARG5        0.0334
     14  CG         8.1050   35.3760   79.5120 C.3     5  ARG5        0.0492
     15  CD         9.5850   35.2790   79.8720 C.3     5  ARG5        0.2205
     16  NE        10.3650   36.4460   79.4500 N.pl3   5  ARG5       -0.0865
     17  CZ        10.6020   37.5070   80.2120 C.cat   5  ARG5        0.5346
     18  NH1       10.1220   37.5660   81.4500 N.pl3   5  ARG5        0.1354
     19  NH2       11.3180   38.5200   79.7430 N.pl3   5  ARG5        0.1354
     20  N         18.7950   18.1680   76.5180 N.3   120  GLY120     -0.1225
     21  CA        18.8550   18.9790   77.7180 C.3   120  GLY120      0.1811
     22  C         19.2100   20.4040   77.3810 C.2   120  GLY120      0.2280
     23  O         19.0310   21.2830   78.2240 O.2   120  GLY120     -0.2866
     24  N         18.9040   24.0710   76.1620 N.3   122  LEU122     -0.1245
     25  CA        17.7550   24.9700   76.1450 C.3   122  LEU122      0.1561
     26  C         17.7010   25.7170   74.8150 C.2   122  LEU122      0.2260
     27  O         18.6800   26.3620   74.4190 O.2   122  LEU122     -0.2867
     28  CB        17.7920   25.9410   77.3270 C.3   122  LEU122      0.0270
     29  CG        16.4480   26.3870   77.8660 C.3   122  LEU122      0.0019
     30  CD1       15.6910   25.2390   78.5310 C.3   122  LEU122      0.0001
     31  CD2       16.6200   27.5280   78.8190 C.3   122  LEU122      0.0001
     32  N          7.3760   33.8480   72.6360 N.3   143  HIS143     -0.1226
     33  CA         8.4780   32.8890   72.5870 C.3   143  HIS143      0.1752
     34  C          8.5380   32.0610   73.8830 C.2   143  HIS143      0.2596
     35  O          8.0090   32.4790   74.9140 O.2   143  HIS143     -0.2718
     36  CB         9.8190   33.5810   72.3150 C.3   143  HIS143      0.0759
     37  CG        10.4690   34.0990   73.5460 C.ar  143  HIS143      0.0818
     38  ND1       11.4790   33.3970   74.1690 N.ar  143  HIS143     -0.2268
     39  CD2       10.1850   35.2040   74.2710 C.ar  143  HIS143      0.1154
     40  CE1       11.8170   34.1150   75.2240 C.ar  143  HIS143      0.1986
     41  NE2       11.0560   35.2060   75.3370 N.ar  143  HIS143     -0.2212
     42  N          9.1980   30.8910   73.8170 N.am  144  VAL144     -0.1966
     43  CA         9.3550   29.9690   74.9310 C.3   144  VAL144      0.1727
     44  C         10.7080   29.2710   74.7910 C.2   144  VAL144      0.2616
     45  O         11.2150   29.1000   73.6760 O.2   144  VAL144     -0.2715
     46  CB         8.1700   28.9640   75.0580 C.3   144  VAL144      0.0290
     47  CG1        8.1570   27.9370   73.9380 C.3   144  VAL144      0.0023
     48  CG2        8.1260   28.2800   76.4230 C.3   144  VAL144      0.0023
     49  N         11.3150   28.9230   75.9380 N.am  145  LEU145     -0.1963
     50  CA        12.5870   28.2270   76.0080 C.3   145  LEU145      0.1728
     51  C         12.3100   26.8040   76.3850 C.2   145  LEU145      0.2616
     52  O         11.8200   26.5370   77.4860 O.2   145  LEU145     -0.2715
     53  CB        13.5330   28.9090   76.9970 C.3   145  LEU145      0.0311
     54  CG        14.2440   30.1090   76.4510 C.3   145  LEU145      0.0022
     55  CD1       14.3750   31.1490   77.5130 C.3   145  LEU145      0.0001
     56  CD2       15.5860   29.7070   75.8470 C.3   145  LEU145      0.0001
     57  N         12.5420   25.8950   75.4460 N.am  146  LEU146     -0.1964
     58  CA        12.2810   24.4760   75.6720 C.3   146  LEU146      0.1713
     59  C         13.5730   23.6500   75.6210 C.2   146  LEU146      0.2458
     60  O         14.4300   23.8790   74.7460 O.2   146  LEU146     -0.2730
     61  CB        11.2510   23.9320   74.6640 C.3   146  LEU146      0.0310
     62  CG         9.9090   24.6530   74.6020 C.3   146  LEU146      0.0022
     63  CD1        9.0890   24.1350   73.4700 C.3   146  LEU146      0.0001
     64  CD2        9.1420   24.5310   75.9200 C.3   146  LEU146      0.0001
     65  N         13.7360   22.6940   76.5660 N.am  147  PRO147     -0.2727
     66  CA        14.9330   21.8450   76.5310 C.3   147  PRO147      0.1402
     67  C         14.7740   20.7110   75.5150 C.2   147  PRO147      0.2269
     68  O         13.6730   20.1730   75.3630 O.2   147  PRO147     -0.2865
     69  CB        15.0450   21.3300   77.9630 C.3   147  PRO147      0.0296
     70  CG        13.6690   21.4050   78.5150 C.3   147  PRO147      0.0237
     71  CD        12.8280   22.3000   77.6600 C.3   147  PRO147      0.0939
     72  N         10.8280   19.3300   75.0180 N.3   172  GLU172     -0.1245
     73  CA         9.8380   19.0330   76.0470 C.3   172  GLU172      0.1567
     74  C          8.5330   19.7870   75.7750 C.2   172  GLU172      0.2260
     75  O          8.5260   20.8240   75.1140 O.2   172  GLU172     -0.2867
     76  CB        10.3800   19.3430   77.4440 C.3   172  GLU172      0.0388
     77  CG        11.5160   18.4140   77.8450 C.3   172  GLU172      0.1160
     78  CD        11.9310   18.3610   79.3040 C.2   172  GLU172      0.3649
     79  OE1       11.4660   19.2110   80.1020 O.co2 172  GLU172     -0.2457
     80  OE2       12.7630   17.4830   79.6360 O.co2 172  GLU172     -0.2457
     81  N          5.8450   19.8070   78.4340 N.3   174  ASN174     -0.1240
     82  CA         5.0690   19.8380   79.6790 C.3   174  ASN174      0.1653
     83  C          4.5520   21.2460   79.9350 C.2   174  ASN174      0.2266
     84  O          5.2830   22.0850   80.4590 O.2   174  ASN174     -0.2867
     85  CB         5.8770   19.3240   80.8690 C.3   174  ASN174      0.1155
     86  CG         5.0150   18.9590   82.0480 C.2   174  ASN174      0.2627
     87  OD1        3.9260   18.3760   81.9110 O.2   174  ASN174     -0.2716
     88  ND2        5.4800   19.2970   83.2340 N.am  174  ASN174     -0.0877
     89  N          4.4700   24.0870   78.7870 N.3   176  ARG176     -0.1245
     90  CA         5.2280   24.9580   77.8840 C.3   176  ARG176      0.1563
     91  C          5.5350   24.1810   76.6140 C.2   176  ARG176      0.2260
     92  O          6.1420   23.1120   76.6820 O.2   176  ARG176     -0.2867
     93  CB         6.5130   25.4780   78.5310 C.3   176  ARG176      0.0307
     94  CG         6.2390   26.5540   79.5500 C.3   176  ARG176      0.0489
     95  CD         7.3780   26.6910   80.5140 C.3   176  ARG176      0.2205
     96  NE         6.9400   27.1760   81.8280 N.pl3 176  ARG176     -0.0865
     97  CZ         7.3700   26.7050   82.9990 C.cat 176  ARG176      0.5346
     98  NH1        8.2200   25.6830   83.0450 N.pl3 176  ARG176      0.1354
     99  NH2        6.9440   27.2440   84.1350 N.pl3 176  ARG176      0.1354
@<TRIPOS>BOND
     1    36    33    1
     2    36    37    1
     3    33    32    1
     4    33    34    1
     5    63    62    1
     6    37    38   ar
     7    37    39   ar
     8    45    44    2
     9    42    34   am
    10    42    43    1
    11    34    35    2
    12    47    46    1
    13    38    40   ar
    14    39    41   ar
    15    27    26    2
    16    62    61    1
    17    62    64    1
    18    61    58    1
    19    60    59    2
    20    44    43    1
    21    44    49   am
    22    26    25    1
    23    43    46    1
    24    72    73    1
    25    46    48    1
    26    12    11    2
    27    75    74    2
    28    40    41   ar
    29    68    67    2
    30    57    58    1
    31    57    51   am
    32    67    66    1
    33    59    58    1
    34    59    65   am
    35    74    73    1
    36    56    54    1
    37    49    50    1
    38    50    51    1
    39    50    53    1
    40    73    76    1
    41    11    10    1
    42    25    24    1
    43    25    28    1
    44    51    52    2
    45    54    53    1
    46    54    55    1
    47    20    21    1
    48    66    65    1
    49    66    69    1
    50    65    71    1
    51    91    92    2
    52    91    90    1
    53     6     5    1
    54     6     7    1
    55     9    10    1
    56     9     7   am
    57    28    29    1
    58     1     2    1
    59    22    21    1
    60    22    23    2
    61     5     3   am
    62    76    77    1
    63    10    13    1
    64     7     8    2
    65    71    70    1
    66    77    78    1
    67    29    30    1
    68    29    31    1
    69    90    93    1
    70    90    89    1
    71    69    70    1
    72    13    14    1
    73     3     2    1
    74     3     4    2
    75    81    82    1
    76    93    94    1
    77    78    80   ar
    78    78    79   ar
    79    16    15    1
    80    16    17    2
    81    14    15    1
    82    94    95    1
    83    82    83    1
    84    82    85    1
    85    19    17    1
    86    83    84    2
    87    17    18    1
    88    95    96    1
    89    85    86    1
    90    96    97    2
    91    87    86    2
    92    86    88   am
    93    97    98    1
    94    97    99    1
