@<TRIPOS>MOLECULE
tmp/5tcdA06.pdb
 109 104 0 0 0
SMALL
GASTEIGER

@<TRIPOS>ATOM
      1  N         38.3130   37.3500   46.4160 N.3    10  ASP10      -0.1239
      2  CA        39.0620   38.4120   47.0720 C.3    10  ASP10       0.1674
      3  C         39.7460   37.8940   48.3320 C.2    10  ASP10       0.2266
      4  O         39.1440   37.1690   49.1280 O.2    10  ASP10      -0.2867
      5  CB        38.1210   39.5680   47.4130 C.3    10  ASP10       0.1410
      6  CG        38.8610   40.8570   47.7120 C.2    10  ASP10       0.3668
      7  OD1       39.9580   40.7960   48.3070 O.co2  10  ASP10      -0.2456
      8  OD2       38.3420   41.9330   47.3480 O.co2  10  ASP10      -0.2456
      9  N         42.5320   45.9000   47.1250 N.3    46  THR46      -0.1218
     10  CA        41.6430   45.1640   46.2340 C.3    46  THR46       0.1862
     11  C         41.6160   45.7810   44.8390 C.2    46  THR46       0.2287
     12  O         41.8350   45.0860   43.8400 O.2    46  THR46      -0.2866
     13  CB        40.2360   45.1180   46.8380 C.3    46  THR46       0.1770
     14  OG1       40.2870   44.4510   48.1050 O.3    46  THR46      -0.2211
     15  CG2       39.2600   44.3860   45.9260 C.3    46  THR46       0.0375
     16  N         42.0710   51.9320   46.9420 N.3    67  ASN67      -0.1240
     17  CA        40.6730   51.5140   46.8850 C.3    67  ASN67       0.1653
     18  C         39.7400   52.7140   46.8340 C.2    67  ASN67       0.2266
     19  O         38.6840   52.6530   46.1940 O.2    67  ASN67      -0.2867
     20  CB        40.3190   50.6440   48.0960 C.3    67  ASN67       0.1155
     21  CG        40.6020   49.1700   47.8720 C.2    67  ASN67       0.2627
     22  OD1       40.7190   48.7100   46.7350 O.2    67  ASN67      -0.2716
     23  ND2       40.6990   48.4160   48.9650 N.am   67  ASN67      -0.0877
     24  N         35.1880   52.2140   48.8730 N.3    80  TYR80      -0.1241
     25  CA        35.4580   51.2640   47.7960 C.3    80  TYR80       0.1605
     26  C         34.3040   51.1980   46.8010 C.2    80  TYR80       0.2264
     27  O         34.5060   51.3310   45.5880 O.2    80  TYR80      -0.2867
     28  CB        35.7390   49.8830   48.3920 C.3    80  TYR80       0.0534
     29  CG        35.6800   48.7480   47.3940 C.ar   80  TYR80      -0.0201
     30  CD1       36.7790   48.4310   46.6030 C.ar   80  TYR80      -0.0009
     31  CD2       34.5280   47.9860   47.2520 C.ar   80  TYR80      -0.0009
     32  CE1       36.7260   47.3930   45.6920 C.ar   80  TYR80       0.0417
     33  CE2       34.4670   46.9490   46.3460 C.ar   80  TYR80       0.0417
     34  CZ        35.5650   46.6570   45.5700 C.ar   80  TYR80       0.1957
     35  OH        35.4930   45.6210   44.6700 O.3    80  TYR80      -0.2866
     36  N         28.1400   39.3910   50.3600 N.3   137  TYR137     -0.1241
     37  CA        29.1610   38.7420   49.5480 C.3   137  TYR137      0.1605
     38  C         29.3260   37.2550   49.8400 C.2   137  TYR137      0.2264
     39  O         30.1280   36.6010   49.1670 O.2   137  TYR137     -0.2867
     40  CB        30.5140   39.4370   49.7470 C.3   137  TYR137      0.0534
     41  CG        30.6030   40.8170   49.1330 C.ar  137  TYR137     -0.0201
     42  CD1       30.9240   40.9820   47.7910 C.ar  137  TYR137     -0.0009
     43  CD2       30.3770   41.9540   49.8960 C.ar  137  TYR137     -0.0009
     44  CE1       31.0110   42.2440   47.2260 C.ar  137  TYR137      0.0417
     45  CE2       30.4610   43.2180   49.3400 C.ar  137  TYR137      0.0417
     46  CZ        30.7790   43.3580   48.0060 C.ar  137  TYR137      0.1957
     47  OH        30.8640   44.6150   47.4480 O.3   137  TYR137     -0.2866
     48  N         33.9850   38.2180   39.8550 N.3   165  TYR165     -0.1241
     49  CA        34.5540   38.6110   41.1360 C.3   165  TYR165      0.1605
     50  C         33.6810   38.1180   42.2830 C.2   165  TYR165      0.2264
     51  O         32.4490   38.1640   42.2070 O.2   165  TYR165     -0.2867
     52  CB        34.7040   40.1350   41.2110 C.3   165  TYR165      0.0534
     53  CG        35.0040   40.6680   42.5970 C.ar  165  TYR165     -0.0201
     54  CD1       36.3120   40.7870   43.0510 C.ar  165  TYR165     -0.0009
     55  CD2       33.9790   41.0590   43.4470 C.ar  165  TYR165     -0.0009
     56  CE1       36.5890   41.2780   44.3130 C.ar  165  TYR165      0.0417
     57  CE2       34.2470   41.5480   44.7130 C.ar  165  TYR165      0.0417
     58  CZ        35.5530   41.6560   45.1390 C.ar  165  TYR165      0.1957
     59  OH        35.8280   42.1440   46.3960 O.3   165  TYR165     -0.2866
     60  N         33.5850   38.5110   46.6960 N.3   167  GLY167     -0.1225
     61  CA        34.1060   39.2510   47.8270 C.3   167  GLY167      0.1811
     62  C         34.5580   38.4220   49.0100 C.2   167  GLY167      0.2280
     63  O         34.9050   38.9890   50.0510 O.2   167  GLY167     -0.2866
     64  N         37.7130   37.3990   51.6800 N.3   170  ASP170     -0.1225
     65  CA        38.2420   38.6390   52.2420 C.3   170  ASP170      0.1805
     66  C         37.3620   39.1560   53.3760 C.2   170  ASP170      0.2598
     67  O         37.8570   39.4710   54.4650 O.2   170  ASP170     -0.2718
     68  CB        38.3770   39.6930   51.1440 C.3   170  ASP170      0.1424
     69  CG        39.0010   40.9800   51.6430 C.2   170  ASP170      0.3668
     70  OD1       40.2350   41.0110   51.8290 O.co2 170  ASP170     -0.2456
     71  OD2       38.2610   41.9660   51.8400 O.co2 170  ASP170     -0.2456
     72  N         36.0520   39.2550   53.1390 N.am  171  SER171     -0.1952
     73  CA        35.1540   39.7940   54.1580 C.3   171  SER171      0.1924
     74  C         35.2650   39.0090   55.4550 C.2   171  SER171      0.2314
     75  O         35.4060   39.5910   56.5370 O.2   171  SER171     -0.2863
     76  CB        33.7120   39.7820   53.6540 C.3   171  SER171      0.2116
     77  OG        33.5430   40.7030   52.5940 O.3   171  SER171     -0.2180
     78  N         38.6180   39.5210   57.2190 N.3   174  HIS174     -0.1241
     79  CA        38.6570   40.7880   57.9430 C.3   174  HIS174      0.1621
     80  C         37.9540   40.6730   59.2870 C.2   174  HIS174      0.2264
     81  O         38.4990   41.0680   60.3240 O.2   174  HIS174     -0.2867
     82  CB        38.0110   41.8940   57.1100 C.3   174  HIS174      0.0745
     83  CG        38.9110   42.4690   56.0640 C.ar  174  HIS174      0.0817
     84  ND1       40.1100   43.0750   56.3690 N.ar  174  HIS174     -0.2268
     85  CD2       38.7800   42.5440   54.7190 C.ar  174  HIS174      0.1154
     86  CE1       40.6840   43.4920   55.2540 C.ar  174  HIS174      0.1986
     87  NE2       39.8990   43.1810   54.2390 N.ar  174  HIS174     -0.2212
     88  N         43.2040   53.4380   57.4420 N.3   251  TYR251     -0.1241
     89  CA        42.8340   52.5650   56.3380 C.3   251  TYR251      0.1605
     90  C         43.9060   51.4830   56.1980 C.2   251  TYR251      0.2264
     91  O         44.6280   51.3920   55.2090 O.2   251  TYR251     -0.2867
     92  CB        42.6700   53.3660   55.0470 C.3   251  TYR251      0.0534
     93  CG        41.8120   52.6860   54.0030 C.ar  251  TYR251     -0.0201
     94  CD1       40.4750   53.0200   53.8600 C.ar  251  TYR251     -0.0009
     95  CD2       42.3400   51.7160   53.1600 C.ar  251  TYR251     -0.0009
     96  CE1       39.6830   52.4080   52.9110 C.ar  251  TYR251      0.0417
     97  CE2       41.5530   51.0960   52.2060 C.ar  251  TYR251      0.0417
     98  CZ        40.2250   51.4470   52.0870 C.ar  251  TYR251      0.1957
     99  OH        39.4300   50.8390   51.1430 O.3   251  TYR251     -0.2866
    100  N         45.0240   43.3840   55.1890 N.3   324  HIS324     -0.1241
    101  CA        45.9850   43.2870   54.1060 C.3   324  HIS324      0.1621
    102  C         46.4360   44.7020   53.7670 C.2   324  HIS324      0.2264
    103  O         46.0440   45.6730   54.4220 O.2   324  HIS324     -0.2867
    104  CB        45.3870   42.5610   52.8940 C.3   324  HIS324      0.0745
    105  CG        44.0630   43.1060   52.4550 C.ar  324  HIS324      0.0817
    106  ND1       43.9440   44.0860   51.4930 N.ar  324  HIS324     -0.2268
    107  CD2       42.8020   42.8110   52.8500 C.ar  324  HIS324      0.1154
    108  CE1       42.6660   44.3720   51.3150 C.ar  324  HIS324      0.1986
    109  NE2       41.9530   43.6110   52.1250 N.ar  324  HIS324     -0.2212
@<TRIPOS>BOND
     1    48    49    1
     2    49    52    1
     3    49    50    1
     4    52    53    1
     5    51    50    2
     6    53    54   ar
     7    53    55   ar
     8    54    56   ar
     9    55    57   ar
    10    12    11    2
    11    56    58   ar
    12    35    34    1
    13    57    58   ar
    14    11    10    1
    15    58    59    1
    16    34    32   ar
    17    34    33   ar
    18    27    26    2
    19    32    30   ar
    20    15    13    1
    21    19    18    2
    22    10    13    1
    23    10     9    1
    24    33    31   ar
    25     1     2    1
    26    30    29   ar
    27    60    61    1
    28    22    21    2
    29    26    25    1
    30    18    17    1
    31    13    14    1
    32    17    16    1
    33    17    20    1
    34     2     5    1
    35     2     3    1
    36    44    42   ar
    37    44    46   ar
    38    31    29   ar
    39     8     6   ar
    40    29    28    1
    41     5     6    1
    42    47    46    1
    43     6     7   ar
    44    42    41   ar
    45    25    28    1
    46    25    24    1
    47    61    62    1
    48    21    20    1
    49    21    23   am
    50    46    45   ar
    51     3     4    2
    52    62    63    2
    53    41    40    1
    54    41    43   ar
    55    39    38    2
    56    45    43   ar
    57    37    40    1
    58    37    38    1
    59    37    36    1
    60    99    98    1
    61    68    69    1
    62    68    65    1
    63   108   106   ar
    64   108   109   ar
    65   106   105   ar
    66    69    70   ar
    67    69    71   ar
    68    64    65    1
    69    98    97   ar
    70    98    96   ar
    71   109   107   ar
    72    97    95   ar
    73    65    66    1
    74   105   107   ar
    75   105   104    1
    76    77    76    1
    77   104   101    1
    78    96    94   ar
    79    72    66   am
    80    72    73    1
    81    95    93   ar
    82    66    67    2
    83    76    73    1
    84   102   101    1
    85   102   103    2
    86    94    93   ar
    87    93    92    1
    88   101   100    1
    89    73    74    1
    90    87    85   ar
    91    87    86   ar
    92    85    83   ar
    93    92    89    1
    94    91    90    2
    95    86    84   ar
    96    74    75    2
    97    83    84   ar
    98    83    82    1
    99    90    89    1
   100    89    88    1
   101    82    79    1
   102    78    79    1
   103    79    80    1
   104    80    81    2
