@<TRIPOS>MOLECULE
tmp/5tchH00.pdb
 65 63 0 0 0
SMALL
GASTEIGER

@<TRIPOS>ATOM
      1  N         26.5820  -16.4340   56.5830 N.3   113  GLU113     -0.1231
      2  CA        27.2970  -17.6280   56.9960 C.3   113  GLU113      0.1699
      3  C         28.1990  -17.9680   55.8290 C.2   113  GLU113      0.2593
      4  O         27.9140  -17.5570   54.7050 O.2   113  GLU113     -0.2718
      5  CB        26.2600  -18.7640   57.2130 C.3   113  GLU113      0.0402
      6  CG        25.7810  -19.5370   55.9430 C.3   113  GLU113      0.1161
      7  CD        24.8630  -18.7730   54.9470 C.2   113  GLU113      0.3649
      8  OE1       24.3420  -17.6560   55.2600 O.co2 113  GLU113     -0.2457
      9  OE2       24.6590  -19.3080   53.8070 O.co2 113  GLU113     -0.2457
     10  N         29.2600  -18.7270   56.0460 N.am  114  THR114     -0.1939
     11  CA        30.0180  -19.2880   54.9320 C.3   114  THR114      0.2028
     12  C         30.7810  -20.5470   55.3670 C.2   114  THR114      0.2643
     13  O         31.1390  -20.7100   56.5330 O.2   114  THR114     -0.2714
     14  CB        30.9560  -18.2260   54.2680 C.3   114  THR114      0.1808
     15  OG1       31.4740  -18.6940   53.0080 O.3   114  THR114     -0.2208
     16  CG2       32.1340  -17.8270   55.1630 C.3   114  THR114      0.0379
     17  N         31.0200  -21.4310   54.4030 N.am  115  GLY115     -0.1939
     18  CA        31.6930  -22.7070   54.6390 C.3   115  GLY115      0.2014
     19  C         33.1720  -22.5630   54.4000 C.2   115  GLY115      0.2639
     20  O         33.9170  -22.3080   55.3310 O.2   115  GLY115     -0.2714
     21  N         33.6070  -22.7250   53.1600 N.am  116  ALA116     -0.1963
     22  CA        35.0290  -22.5470   52.8320 C.3   116  ALA116      0.1728
     23  C         35.3540  -21.0760   52.5140 C.2   116  ALA116      0.2617
     24  O         36.5470  -20.7050   52.4290 O.2   116  ALA116     -0.2715
     25  CB        35.4390  -23.4640   51.6880 C.3   116  ALA116      0.0334
     26  N         34.2980  -20.2650   52.3380 N.am  117  GLY117     -0.1940
     27  CA        34.4070  -18.8090   52.2170 C.3   117  GLY117      0.2014
     28  C         33.7510  -18.1440   51.0100 C.2   117  GLY117      0.2639
     29  O         33.7730  -16.9250   50.9090 O.2   117  GLY117     -0.2714
     30  N         33.1750  -18.9040   50.0910 N.am  118  GLN118     -0.1963
     31  CA        32.6880  -18.3220   48.8270 C.3   118  GLN118      0.1733
     32  C         31.5220  -17.3350   49.0210 C.2   118  GLN118      0.2616
     33  O         31.5770  -16.2000   48.5470 O.2   118  GLN118     -0.2715
     34  CB        32.2770  -19.4340   47.8570 C.3   118  GLN118      0.0408
     35  CG        31.8020  -18.9440   46.4900 C.3   118  GLN118      0.0908
     36  CD        32.8170  -19.1440   45.3810 C.2   118  GLN118      0.2608
     37  OE1       33.7880  -18.3760   45.2440 O.2   118  GLN118     -0.2717
     38  NE2       32.5920  -20.1890   44.5660 N.am  118  GLN118     -0.0878
     39  N         30.4800  -17.7820   49.7160 N.am  119  HIS119     -0.1973
     40  CA        29.3410  -16.9320   50.0160 C.3   119  HIS119      0.1656
     41  C         29.7170  -15.7240   50.8900 C.2   119  HIS119      0.2291
     42  O         29.1460  -14.6390   50.7280 O.2   119  HIS119     -0.2864
     43  CB        28.2100  -17.7150   50.6680 C.3   119  HIS119      0.0771
     44  CG        27.0090  -16.8740   50.9570 C.ar  119  HIS119      0.0820
     45  ND1       26.2950  -16.2450   49.9660 N.ar  119  HIS119     -0.2267
     46  CD2       26.4500  -16.4900   52.1230 C.ar  119  HIS119      0.1154
     47  CE1       25.3120  -15.5550   50.5080 C.ar  119  HIS119      0.1986
     48  NE2       25.3860  -15.6850   51.8180 N.ar  119  HIS119     -0.2212
     49  N         29.9890  -25.3280   58.7440 N.3   170  LEU170     -0.1245
     50  CA        28.9520  -24.5380   58.0770 C.3   170  LEU170      0.1561
     51  C         27.6380  -24.4350   58.8650 C.2   170  LEU170      0.2260
     52  O         27.2000  -23.3340   59.1930 O.2   170  LEU170     -0.2867
     53  CB        28.6890  -25.0720   56.6580 C.3   170  LEU170      0.0270
     54  CG        27.5990  -24.3580   55.8520 C.3   170  LEU170      0.0019
     55  CD1       27.8330  -22.8460   55.8320 C.3   170  LEU170      0.0001
     56  CD2       27.4720  -24.9020   54.4250 C.3   170  LEU170      0.0001
     57  N         33.7270  -28.7010   48.9820 N.3   306  ALA306     -0.1231
     58  CA        33.1390  -28.0770   50.1840 C.3   306  ALA306      0.1694
     59  C         31.7970  -27.3990   49.9060 C.2   306  ALA306      0.2592
     60  O         30.9130  -27.4450   50.7620 O.2   306  ALA306     -0.2718
     61  CB        34.1090  -27.0880   50.8280 C.3   306  ALA306      0.0304
     62  N         31.6330  -26.8060   48.7180 N.am  307  GLY307     -0.1957
     63  CA        30.3390  -26.2030   48.3170 C.3   307  GLY307      0.1869
     64  C         29.1110  -27.1060   48.1660 C.2   307  GLY307      0.2309
     65  O         27.9900  -26.6170   48.2540 O.2   307  GLY307     -0.2863
@<TRIPOS>BOND
     1    38    36   am
     2    37    36    2
     3    36    35    1
     4    35    34    1
     5    34    31    1
     6    64    65    2
     7    64    63    1
     8    63    62    1
     9    33    32    2
    10    62    59   am
    11    31    32    1
    12    31    30    1
    13    57    58    1
    14    32    39   am
    15    39    40    1
    16    59    58    1
    17    59    60    2
    18    45    47   ar
    19    45    44   ar
    20    40    43    1
    21    40    41    1
    22    30    28   am
    23    58    61    1
    24    47    48   ar
    25    43    44    1
    26    42    41    2
    27    29    28    2
    28    44    46   ar
    29    28    27    1
    30    25    22    1
    31    48    46   ar
    32    27    26    1
    33    26    23   am
    34    24    23    2
    35    23    22    1
    36    22    21    1
    37    15    14    1
    38    21    19   am
    39     9     7   ar
    40    14    11    1
    41    14    16    1
    42    19    18    1
    43    19    20    2
    44    17    18    1
    45    17    12   am
    46    56    54    1
    47     4     3    2
    48    11    12    1
    49    11    10    1
    50     7     8   ar
    51     7     6    1
    52    12    13    2
    53     3    10   am
    54     3     2    1
    55    55    54    1
    56    54    53    1
    57     6     5    1
    58     1     2    1
    59    53    50    1
    60     2     5    1
    61    50    49    1
    62    50    51    1
    63    51    52    2
