@<TRIPOS>MOLECULE
tmp/5tciD00.pdb
 145 145 0 0 0
SMALL
GASTEIGER

@<TRIPOS>ATOM
      1  N          1.9290   10.5840   15.2890 N.3    26  TYR26      -0.1227
      2  CA         0.6840   11.0640   14.6860 C.3    26  TYR26       0.1736
      3  C         -0.1390    9.8790   14.2020 C.2    26  TYR26       0.2595
      4  O         -0.2530    9.5960   13.0090 O.2    26  TYR26      -0.2718
      5  CB         0.9760   12.0980   13.6030 C.3    26  TYR26       0.0548
      6  CG         1.5010   13.3880   14.1980 C.ar   26  TYR26      -0.0200
      7  CD1        2.8490   13.5450   14.4970 C.ar   26  TYR26      -0.0009
      8  CD2        0.6430   14.4320   14.4910 C.ar   26  TYR26      -0.0009
      9  CE1        3.3300   14.7210   15.0510 C.ar   26  TYR26       0.0417
     10  CE2        1.1080   15.6080   15.0410 C.ar   26  TYR26       0.0417
     11  CZ         2.4490   15.7530   15.3170 C.ar   26  TYR26       0.1957
     12  OH         2.8930   16.9240   15.8580 O.3    26  TYR26      -0.2866
     13  N         -0.6970    9.1900   15.1860 N.am   27  VAL27      -0.1966
     14  CA        -1.4230    7.9490   15.0010 C.3    27  VAL27       0.1712
     15  C         -2.6660    7.9550   15.8770 C.2    27  VAL27       0.2458
     16  O         -2.7710    8.7740   16.7830 O.2    27  VAL27      -0.2730
     17  CB        -0.5450    6.7180   15.3330 C.3    27  VAL27       0.0289
     18  CG1        0.5910    6.6240   14.3520 C.3    27  VAL27       0.0023
     19  CG2        0.0010    6.7730   16.7500 C.3    27  VAL27       0.0023
     20  N         -3.6230    7.0670   15.5880 N.am   28  PRO28      -0.2727
     21  CA        -4.8060    6.9820   16.4300 C.3    28  PRO28       0.1402
     22  C         -4.4990    6.2850   17.7410 C.2    28  PRO28       0.2269
     23  O         -3.5840    5.4640   17.7950 O.2    28  PRO28      -0.2865
     24  CB        -5.8000    6.1710   15.5930 C.3    28  PRO28       0.0296
     25  CG        -5.0110    5.5270   14.5250 C.3    28  PRO28       0.0237
     26  CD        -3.7490    6.2940   14.3420 C.3    28  PRO28       0.0939
     27  N         -3.8910    2.4640   18.0330 N.3    31  LEU31      -0.1245
     28  CA        -2.5610    1.8880   17.8340 C.3    31  LEU31       0.1561
     29  C         -1.5930    2.0660   18.9910 C.2    31  LEU31       0.2260
     30  O         -0.5150    1.4940   18.9610 O.2    31  LEU31      -0.2867
     31  CB        -1.9080    2.4550   16.5610 C.3    31  LEU31       0.0270
     32  CG        -2.2260    1.6750   15.2940 C.3    31  LEU31       0.0019
     33  CD1       -1.9210    2.4720   14.0250 C.3    31  LEU31       0.0001
     34  CD2       -1.4720    0.3540   15.2920 C.3    31  LEU31       0.0001
     35  N          2.1410    0.1940   19.8770 N.3    35  ILE35      -0.1245
     36  CA         3.3050    1.0710   19.6930 C.3    35  ILE35       0.1561
     37  C          4.0860    1.2580   20.9930 C.2    35  ILE35       0.2260
     38  O          5.3020    1.2520   20.9670 O.2    35  ILE35      -0.2867
     39  CB         2.8940    2.4270   19.0510 C.3    35  ILE35       0.0252
     40  CG1        2.8810    2.2780   17.5190 C.3    35  ILE35       0.0019
     41  CG2        3.8350    3.5750   19.4270 C.3    35  ILE35       0.0019
     42  CD1        2.0370    3.3120   16.8130 C.3    35  ILE35       0.0001
     43  N         -1.5770   -0.7080    2.9710 N.3   180  ILE180     -0.1245
     44  CA        -1.1770   -0.2340    4.2820 C.3   180  ILE180      0.1561
     45  C         -2.4050   -0.1650    5.1760 C.2   180  ILE180      0.2260
     46  O         -2.3030   -0.1730    6.4000 O.2   180  ILE180     -0.2867
     47  CB        -0.5300    1.1620    4.1860 C.3   180  ILE180      0.0252
     48  CG1        0.8050    1.0730    3.4360 C.3   180  ILE180      0.0019
     49  CG2       -0.3340    1.7620    5.5680 C.3   180  ILE180      0.0019
     50  CD1        1.4760    2.4080    3.2190 C.3   180  ILE180      0.0001
     51  N         -2.3550   -2.3550    8.9530 N.3   184  PHE184     -0.1241
     52  CA        -2.4610   -1.7230   10.2610 C.3   184  PHE184      0.1605
     53  C         -3.6470   -2.3020   11.0260 C.2   184  PHE184      0.2264
     54  O         -3.5220   -2.7040   12.1810 O.2   184  PHE184     -0.2867
     55  CB        -2.6230   -0.2070   10.1140 C.3   184  PHE184      0.0534
     56  CG        -1.3250    0.5520    9.9430 C.ar  184  PHE184     -0.0203
     57  CD1       -0.7120    0.6920    8.7330 C.ar  184  PHE184     -0.0042
     58  CD2       -0.7640    1.1710   11.0430 C.ar  184  PHE184     -0.0042
     59  CE1        0.4620    1.4130    8.5950 C.ar  184  PHE184     -0.0003
     60  CE2        0.4120    1.8870   10.9260 C.ar  184  PHE184     -0.0003
     61  CZ         0.9900    2.0550    9.6890 C.ar  184  PHE184     -0.0000
     62  N         -2.8980   -5.6360   12.5140 N.3   187  TRP187     -0.1241
     63  CA        -1.9350   -5.5420   13.5970 C.3   187  TRP187      0.1605
     64  C         -2.6790   -5.3950   14.9160 C.2   187  TRP187      0.2264
     65  O         -2.3060   -5.9910   15.9250 O.2   187  TRP187     -0.2867
     66  CB        -1.0380   -4.3250   13.3650 C.3   187  TRP187      0.0550
     67  CG         0.1560   -4.2320   14.2640 C.ar  187  TRP187      0.0003
     68  CD1        0.7100   -5.2330   15.0010 C.ar  187  TRP187      0.0946
     69  CD2        0.9690   -3.0730   14.4840 C.ar  187  TRP187      0.0152
     70  NE1        1.8070   -4.7660   15.6840 N.ar  187  TRP187     -0.2442
     71  CE2        1.9890   -3.4430   15.3810 C.ar  187  TRP187      0.0810
     72  CE3        0.9270   -1.7560   14.0160 C.ar  187  TRP187      0.0012
     73  CZ2        2.9560   -2.5460   15.8210 C.ar  187  TRP187      0.0191
     74  CZ3        1.8870   -0.8680   14.4530 C.ar  187  TRP187      0.0001
     75  CH2        2.8890   -1.2670   15.3470 C.ar  187  TRP187      0.0015
     76  N          4.3880   -5.6050   13.2810 N.3   196  TYR196     -0.1241
     77  CA         4.3490   -4.8160   12.0450 C.3   196  TYR196      0.1605
     78  C          5.7500   -4.3330   11.6530 C.2   196  TYR196      0.2264
     79  O          6.2820   -3.3970   12.2530 O.2   196  TYR196     -0.2867
     80  CB         3.3960   -3.6250   12.2190 C.3   196  TYR196      0.0534
     81  CG         3.1860   -2.7640   10.9860 C.ar  196  TYR196     -0.0201
     82  CD1        3.3180   -3.2920    9.7100 C.ar  196  TYR196     -0.0009
     83  CD2        2.8140   -1.4290   11.1030 C.ar  196  TYR196     -0.0009
     84  CE1        3.1170   -2.5090    8.5860 C.ar  196  TYR196      0.0417
     85  CE2        2.6040   -0.6400    9.9850 C.ar  196  TYR196      0.0417
     86  CZ         2.7580   -1.1860    8.7290 C.ar  196  TYR196      0.1957
     87  OH         2.5570   -0.4120    7.6090 O.3   196  TYR196     -0.2866
     88  N          7.9920   -2.3780    9.6040 N.3   198  PHE198     -0.1241
     89  CA         7.9460   -1.2150    8.7360 C.3   198  PHE198      0.1605
     90  C          9.2850   -1.0690    8.0350 C.2   198  PHE198      0.2264
     91  O         10.3230   -1.3110    8.6370 O.2   198  PHE198     -0.2867
     92  CB         7.6160    0.0510    9.5300 C.3   198  PHE198      0.0534
     93  CG         7.4420    1.2730    8.6650 C.ar  198  PHE198     -0.0203
     94  CD1        6.4490    1.3100    7.6860 C.ar  198  PHE198     -0.0042
     95  CD2        8.2590    2.3880    8.8230 C.ar  198  PHE198     -0.0042
     96  CE1        6.2730    2.4290    6.8810 C.ar  198  PHE198     -0.0003
     97  CE2        8.0920    3.5060    8.0180 C.ar  198  PHE198     -0.0003
     98  CZ         7.0950    3.5280    7.0470 C.ar  198  PHE198     -0.0000
     99  N          7.5570    6.9800   10.0250 N.3   203  GLY203     -0.1210
    100  CA         6.5340    6.4350   10.8910 C.3   203  GLY203      0.1940
    101  C          6.5710    7.0520   12.2610 C.2   203  GLY203      0.2453
    102  O          7.4570    7.8580   12.5600 O.2   203  GLY203     -0.2732
    103  N          5.6310    6.6490   13.1210 N.am  204  PRO204     -0.2728
    104  CA         5.6280    7.1090   14.4990 C.3   204  PRO204      0.1401
    105  C          6.7710    6.4820   15.2980 C.2   204  PRO204      0.2269
    106  O          7.2770    5.4210   14.9300 O.2   204  PRO204     -0.2865
    107  CB         4.2780    6.6100   15.0200 C.3   204  PRO204      0.0296
    108  CG         4.0550    5.3340   14.2670 C.3   204  PRO204      0.0237
    109  CD         4.7490    5.4850   12.9310 C.3   204  PRO204      0.0939
    110  N          9.8240    3.9260   15.3050 N.3   207  PHE207     -0.1241
    111  CA        10.3000    3.3890   14.0200 C.3   207  PHE207      0.1605
    112  C         11.4720    4.1520   13.3800 C.2   207  PHE207      0.2264
    113  O         12.4250    3.5280   12.8900 O.2   207  PHE207     -0.2867
    114  CB         9.1230    3.1560   13.0500 C.3   207  PHE207      0.0534
    115  CG         8.2670    1.9840   13.4330 C.ar  207  PHE207     -0.0203
    116  CD1        8.6490    0.6960   13.0870 C.ar  207  PHE207     -0.0042
    117  CD2        7.1020    2.1590   14.1720 C.ar  207  PHE207     -0.0042
    118  CE1        7.8830   -0.4020   13.4530 C.ar  207  PHE207     -0.0003
    119  CE2        6.3230    1.0760   14.5460 C.ar  207  PHE207     -0.0003
    120  CZ         6.7130   -0.2120   14.1940 C.ar  207  PHE207     -0.0000
    121  N          2.3080   13.1770    8.3820 N.3   289  PHE289     -0.1227
    122  CA         2.0650   12.1590    7.3790 C.3   289  PHE289      0.1736
    123  C          2.6660   10.8510    7.8460 C.2   289  PHE289      0.2595
    124  O          3.8410   10.8090    8.2600 O.2   289  PHE289     -0.2718
    125  CB         2.7060   12.5730    6.0510 C.3   289  PHE289      0.0547
    126  CG         2.5190   11.5810    4.9240 C.ar  289  PHE289     -0.0202
    127  CD1        1.2500   11.2750    4.4490 C.ar  289  PHE289     -0.0042
    128  CD2        3.6180   10.9860    4.3080 C.ar  289  PHE289     -0.0042
    129  CE1        1.0760   10.3800    3.4020 C.ar  289  PHE289     -0.0003
    130  CE2        3.4500   10.0910    3.2570 C.ar  289  PHE289     -0.0003
    131  CZ         2.1760    9.7890    2.8080 C.ar  289  PHE289     -0.0000
    132  N          1.8650    9.7920    7.8300 N.am  290  HIS290     -0.1961
    133  CA         2.4000    8.4570    8.0090 C.3   290  HIS290      0.1787
    134  C          2.9140    8.2250    9.4270 C.2   290  HIS290      0.2620
    135  O          3.8990    7.5220    9.6050 O.2   290  HIS290     -0.2715
    136  CB         3.5570    8.2720    7.0270 C.3   290  HIS290      0.0785
    137  CG         3.5690    6.9570    6.3440 C.ar  290  HIS290      0.0821
    138  ND1        4.7370    6.2930    6.0450 N.ar  290  HIS290     -0.2267
    139  CD2        2.5620    6.1810    5.8900 C.ar  290  HIS290      0.1154
    140  CE1        4.4490    5.1590    5.4400 C.ar  290  HIS290      0.1986
    141  NE2        3.1370    5.0690    5.3330 N.ar  290  HIS290     -0.2212
    142  N          2.2630    8.8260   10.4230 N.am  291  GLY291     -0.1954
    143  CA         2.7050    8.7180   11.8120 C.3   291  GLY291      0.1869
    144  C          3.7010    9.7280   12.3580 C.2   291  GLY291      0.2309
    145  O          3.8600    9.7770   13.5750 O.2   291  GLY291     -0.2863
@<TRIPOS>BOND
     1   131   130   ar
     2   131   129   ar
     3    43    44    1
     4    50    48    1
     5   130   128   ar
     6   129   127   ar
     7    48    47    1
     8    47    44    1
     9    47    49    1
    10    44    45    1
    11   128   126   ar
    12   127   126   ar
    13   126   125    1
    14    45    46    2
    15   141   140   ar
    16   141   139   ar
    17   140   138   ar
    18   139   137   ar
    19   138   137   ar
    20   125   122    1
    21   137   136    1
    22    96    98   ar
    23    96    94   ar
    24   136   133    1
    25    98    97   ar
    26   122   123    1
    27   122   121    1
    28    87    86    1
    29    94    93   ar
    30   132   123   am
    31   132   133    1
    32   123   124    2
    33   133   134    1
    34    97    95   ar
    35    90    91    2
    36    90    89    1
    37    84    86   ar
    38    84    82   ar
    39    59    57   ar
    40    59    61   ar
    41    93    95   ar
    42    93    92    1
    43    86    85   ar
    44    57    56   ar
    45    89    92    1
    46    89    88    1
    47    51    52    1
    48   134   135    2
    49   134   142   am
    50    61    60   ar
    51    82    81   ar
    52    56    55    1
    53    56    58   ar
    54    85    83   ar
    55    99   100    1
    56    55    52    1
    57    52    53    1
    58   142   143    1
    59   100   101    1
    60    60    58   ar
    61    81    83   ar
    62    81    80    1
    63    53    54    2
    64    78    77    1
    65    78    79    2
    66   143   144    1
    67    77    80    1
    68    77    76    1
    69   101   102    2
    70   101   103   am
    71   144   145    2
    72    62    63    1
    73   113   112    2
    74   109   103    1
    75   109   108    1
    76     4     3    2
    77   114   115    1
    78   114   111    1
    79   116   115   ar
    80   116   118   ar
    81   103   104    1
    82    66    63    1
    83    66    67    1
    84   112   111    1
    85   115   117   ar
    86   118   120   ar
    87    63    64    1
    88     5     6    1
    89     5     2    1
    90    72    74   ar
    91    72    69   ar
    92   111   110    1
    93    33    32    1
    94   117   119   ar
    95   120   119   ar
    96     6     8   ar
    97     6     7   ar
    98     3     2    1
    99     3    13   am
   100    67    69   ar
   101    67    68   ar
   102   108   107    1
   103    26    25    1
   104    26    20    1
   105    18    17    1
   106    74    75   ar
   107    69    71   ar
   108     8    10   ar
   109     7     9   ar
   110   104   107    1
   111   104   105    1
   112    25    24    1
   113     2     1    1
   114    64    65    2
   115   106   105    2
   116    14    13    1
   117    14    17    1
   118    14    15    1
   119    68    70   ar
   120    10    11   ar
   121     9    11   ar
   122    34    32    1
   123    32    31    1
   124    11    12    1
   125    17    19    1
   126    75    73   ar
   127    71    70   ar
   128    71    73   ar
   129    20    15   am
   130    20    21    1
   131    24    21    1
   132    15    16    2
   133    21    22    1
   134    31    28    1
   135    42    40    1
   136    40    39    1
   137    22    23    2
   138    28    27    1
   139    28    29    1
   140    30    29    2
   141    39    41    1
   142    39    36    1
   143    36    35    1
   144    36    37    1
   145    38    37    2
