@<TRIPOS>MOLECULE
tmp/5tckA00.pdb
 86 84 0 0 0
SMALL
GASTEIGER

@<TRIPOS>ATOM
      1  N         13.4590   51.2400    0.9830 N.3    20  GLU20      -0.1231
      2  CA        14.6430   50.3890    0.7980 C.3    20  GLU20       0.1699
      3  C         14.9730   49.5480    2.0360 C.2    20  GLU20       0.2592
      4  O         15.7800   48.6400    1.9330 O.2    20  GLU20      -0.2718
      5  CB        15.8820   51.2220    0.4100 C.3    20  GLU20       0.0402
      6  CG        16.4880   52.0280    1.5520 C.3    20  GLU20       0.1161
      7  CD        17.5010   53.0550    1.0920 C.2    20  GLU20       0.3649
      8  OE1       18.6720   52.6720    0.8640 O.co2  20  GLU20      -0.2457
      9  OE2       17.1180   54.2370    0.9320 O.co2  20  GLU20      -0.2457
     10  N         14.4220   49.8870    3.2110 N.am   21  ASP21      -0.1974
     11  CA        14.6690   49.1100    4.4120 C.3    21  ASP21       0.1709
     12  C         13.6870   47.9540    4.5480 C.2    21  ASP21       0.2293
     13  O         13.9100   47.0960    5.3920 O.2    21  ASP21      -0.2864
     14  CB        14.6010   50.0020    5.6550 C.3    21  ASP21       0.1436
     15  CG        15.6540   51.0920    5.6560 C.2    21  ASP21       0.3671
     16  OD1       16.7470   50.8700    5.0790 O.co2  21  ASP21      -0.2456
     17  OD2       15.3930   52.1680    6.2330 O.co2  21  ASP21      -0.2456
     18  N         12.7200   46.5500    7.9250 N.3    24  ALA24      -0.1231
     19  CA        13.7840   45.9850    8.7740 C.3    24  ALA24       0.1694
     20  C         13.8830   46.6850   10.1190 C.2    24  ALA24       0.2592
     21  O         14.1860   46.0280   11.1090 O.2    24  ALA24      -0.2718
     22  CB        15.1220   46.0620    8.0690 C.3    24  ALA24       0.0304
     23  N         13.5870   48.0020   10.1780 N.am   25  PHE25      -0.1976
     24  CA        13.6970   48.7550   11.4410 C.3    25  PHE25       0.1639
     25  C         12.3450   48.9580   12.1040 C.2    25  PHE25       0.2290
     26  O         12.2810   49.5650   13.1790 O.2    25  PHE25      -0.2864
     27  CB        14.3570   50.1040   11.1640 C.3    25  PHE25       0.0560
     28  CG        15.7020   49.9220   10.5270 C.ar   25  PHE25      -0.0200
     29  CD1       16.7710   49.4170   11.2600 C.ar   25  PHE25      -0.0042
     30  CD2       15.8680   50.0960    9.1650 C.ar   25  PHE25      -0.0042
     31  CE1       18.0070   49.1760   10.6480 C.ar   25  PHE25      -0.0003
     32  CE2       17.1050   49.8420    8.5550 C.ar   25  PHE25      -0.0003
     33  CZ        18.1490   49.3560    9.2930 C.ar   25  PHE25      -0.0000
     34  N         20.9430   46.2520   15.2970 N.3    92  CYS92      -0.1235
     35  CA        21.0390   45.7410   13.9460 C.3    92  CYS92       0.1677
     36  C         22.5030   45.4110   13.5680 C.2    92  CYS92       0.2270
     37  O         22.7440   44.3130   13.0650 O.2    92  CYS92      -0.2867
     38  CB        20.4210   46.7150   12.9590 C.3    92  CYS92       0.0956
     39  SG        20.2850   46.0680   11.2730 S.3    92  CYS92      -0.0801
     40  N         23.6790   42.2770   15.7450 N.3    95  PHE95      -0.1227
     41  CA        23.0220   41.0790   15.2410 C.3    95  PHE95       0.1736
     42  C         23.6060   40.6480   13.8750 C.2    95  PHE95       0.2595
     43  O         23.9220   39.4700   13.6830 O.2    95  PHE95      -0.2718
     44  CB        21.5050   41.3350   15.1190 C.3    95  PHE95       0.0547
     45  CG        20.7570   40.1810   14.5140 C.ar   95  PHE95      -0.0202
     46  CD1       20.7680   38.9350   15.1190 C.ar   95  PHE95      -0.0042
     47  CD2       20.1270   40.3080   13.2860 C.ar   95  PHE95      -0.0042
     48  CE1       20.1200   37.8520   14.5300 C.ar   95  PHE95      -0.0003
     49  CE2       19.4750   39.2280   12.7070 C.ar   95  PHE95      -0.0003
     50  CZ        19.4860   38.0050   13.3270 C.ar   95  PHE95      -0.0000
     51  N         23.7700   41.6080   12.9540 N.am   96  ASN96      -0.1974
     52  CA        24.2830   41.3560   11.6050 C.3    96  ASN96       0.1688
     53  C         25.8090   41.5790   11.4730 C.2    96  ASN96       0.2292
     54  O         26.2800   41.7530   10.3550 O.2    96  ASN96      -0.2864
     55  CB        23.5620   42.2810   10.5940 C.3    96  ASN96       0.1181
     56  CG        22.1290   41.9070   10.3790 C.2    96  ASN96       0.2629
     57  OD1       21.8340   40.7770   10.0530 O.2    96  ASN96      -0.2716
     58  ND2       21.2010   42.8650   10.4910 N.am   96  ASN96      -0.0877
     59  N         26.6710   43.6320    4.1600 N.3   101  SER101     -0.1202
     60  CA        25.6450   44.3450    3.4000 C.3   101  SER101      0.2020
     61  C         24.5130   44.8610    4.3190 C.2   101  SER101      0.2618
     62  O         24.0040   45.9670    4.1160 O.2   101  SER101     -0.2717
     63  CB        25.0750   43.4310    2.3160 C.3   101  SER101      0.2103
     64  OG        24.0440   44.0630    1.5780 O.3   101  SER101     -0.2182
     65  N         24.1660   44.0910    5.3490 N.am  102  TRP102     -0.1975
     66  CA        23.0660   44.4340    6.2420 C.3   102  TRP102      0.1640
     67  C         23.5740   45.3830    7.3400 C.2   102  TRP102      0.2290
     68  O         22.8420   46.3040    7.7150 O.2   102  TRP102     -0.2864
     69  CB        22.4140   43.1490    6.7800 C.3   102  TRP102      0.0576
     70  CG        21.7980   42.3300    5.6600 C.ar  102  TRP102      0.0006
     71  CD1       21.5220   42.7560    4.3900 C.ar  102  TRP102      0.0946
     72  CD2       21.3610   40.9650    5.7250 C.ar  102  TRP102      0.0152
     73  NE1       20.9820   41.7330    3.6540 N.ar  102  TRP102     -0.2442
     74  CE2       20.9120   40.6080    4.4340 C.ar  102  TRP102      0.0810
     75  CE3       21.3420   39.9950    6.7360 C.ar  102  TRP102      0.0012
     76  CZ2       20.4220   39.3370    4.1390 C.ar  102  TRP102      0.0191
     77  CZ3       20.8980   38.7220    6.4260 C.ar  102  TRP102      0.0001
     78  CH2       20.4360   38.4090    5.1410 C.ar  102  TRP102      0.0015
     79  N         23.4340   48.7110    5.4470 N.3   105  LEU105     -0.1245
     80  CA        22.0600   49.2150    5.4260 C.3   105  LEU105      0.1561
     81  C         21.7290   49.9070    6.7470 C.2   105  LEU105      0.2260
     82  O         21.1260   50.9750    6.7380 O.2   105  LEU105     -0.2867
     83  CB        21.0610   48.0870    5.1580 C.3   105  LEU105      0.0270
     84  CG        19.6140   48.5420    4.9020 C.3   105  LEU105      0.0019
     85  CD1       19.5270   49.4110    3.6460 C.3   105  LEU105      0.0001
     86  CD2       18.6870   47.3560    4.8050 C.3   105  LEU105      0.0001
@<TRIPOS>BOND
     1     5     2    1
     2     5     6    1
     3     2     1    1
     4     2     3    1
     5     8     7   ar
     6     9     7   ar
     7     7     6    1
     8    64    63    1
     9     4     3    2
    10     3    10   am
    11    63    60    1
    12    10    11    1
    13    60    59    1
    14    60    61    1
    15    85    84    1
    16    73    71   ar
    17    73    74   ar
    18    62    61    2
    19    76    74   ar
    20    76    78   ar
    21    61    65   am
    22    71    70   ar
    23    11    12    1
    24    11    14    1
    25    74    72   ar
    26    12    13    2
    27    86    84    1
    28    84    83    1
    29    16    15   ar
    30    78    77   ar
    31    83    80    1
    32    65    66    1
    33    80    79    1
    34    80    81    1
    35    14    15    1
    36    15    17   ar
    37    70    72   ar
    38    70    69    1
    39    72    75   ar
    40    66    69    1
    41    66    67    1
    42    77    75   ar
    43    82    81    2
    44    67    68    2
    45    18    19    1
    46    22    19    1
    47    32    30   ar
    48    32    33   ar
    49    19    20    1
    50    30    28   ar
    51    33    31   ar
    52    57    56    2
    53    20    23   am
    54    20    21    2
    55    23    24    1
    56    54    53    2
    57    56    58   am
    58    56    55    1
    59    28    27    1
    60    28    29   ar
    61    55    52    1
    62    31    29   ar
    63    27    24    1
    64    39    38    1
    65    24    25    1
    66    53    52    1
    67    52    51    1
    68    25    26    2
    69    49    47   ar
    70    49    50   ar
    71    51    42   am
    72    38    35    1
    73    37    36    2
    74    47    45   ar
    75    50    48   ar
    76    36    35    1
    77    43    42    2
    78    42    41    1
    79    35    34    1
    80    45    46   ar
    81    45    44    1
    82    48    46   ar
    83    44    41    1
    84    41    40    1
