@<TRIPOS>MOLECULE
tmp/5tckA01.pdb
 108 102 0 0 0
SMALL
GASTEIGER

@<TRIPOS>ATOM
      1  N         11.3890   52.8630    2.0230 N.3    19  ARG19      -0.1231
      2  CA        11.0240   51.7160    1.1950 C.3    19  ARG19       0.1694
      3  C         12.2090   50.7250    1.0760 C.2    19  ARG19       0.2592
      4  O         11.9940   49.5230    1.1560 O.2    19  ARG19      -0.2718
      5  CB        10.5710   52.1850   -0.2180 C.3    19  ARG19       0.0321
      6  CG         9.3700   53.1240   -0.1590 C.3    19  ARG19       0.0489
      7  CD         8.0380   52.3870   -0.2570 C.3    19  ARG19       0.2205
      8  NE         7.8950   51.3300    0.7290 N.pl3  19  ARG19      -0.0865
      9  CZ         7.5930   51.5950    2.0000 C.cat  19  ARG19       0.5346
     10  NH1        7.4200   52.8490    2.4140 N.pl3  19  ARG19       0.1354
     11  NH2        7.4200   50.5880    2.8500 N.pl3  19  ARG19       0.1354
     12  N         13.4590   51.2400    0.9830 N.am   20  GLU20      -0.1966
     13  CA        14.6430   50.3890    0.7980 C.3    20  GLU20       0.1733
     14  C         14.9730   49.5480    2.0360 C.2    20  GLU20       0.2616
     15  O         15.7800   48.6400    1.9330 O.2    20  GLU20      -0.2715
     16  CB        15.8820   51.2220    0.4100 C.3    20  GLU20       0.0429
     17  CG        16.4880   52.0280    1.5520 C.3    20  GLU20       0.1163
     18  CD        17.5010   53.0550    1.0920 C.2    20  GLU20       0.3649
     19  OE1       18.6720   52.6720    0.8640 O.co2  20  GLU20      -0.2457
     20  OE2       17.1180   54.2370    0.9320 O.co2  20  GLU20      -0.2457
     21  N         14.4220   49.8870    3.2110 N.am   21  ASP21      -0.1957
     22  CA        14.6690   49.1100    4.4120 C.3    21  ASP21       0.1840
     23  C         13.6870   47.9540    4.5480 C.2    21  ASP21       0.2622
     24  O         13.9100   47.0960    5.3920 O.2    21  ASP21      -0.2715
     25  CB        14.6010   50.0020    5.6550 C.3    21  ASP21       0.1450
     26  CG        15.6540   51.0920    5.6560 C.2    21  ASP21       0.3671
     27  OD1       16.7470   50.8700    5.0790 O.co2  21  ASP21      -0.2456
     28  OD2       15.3930   52.1680    6.2330 O.co2  21  ASP21      -0.2456
     29  N         12.6100   47.9440    3.7370 N.am   22  GLY22      -0.1954
     30  CA        11.6010   46.8850    3.7390 C.3    22  GLY22       0.1869
     31  C         11.0650   46.4560    5.0950 C.2    22  GLY22       0.2309
     32  O         10.7570   45.2730    5.2950 O.2    22  GLY22      -0.2863
     33  N         12.7200   46.5500    7.9250 N.3    24  ALA24      -0.1245
     34  CA        13.7840   45.9850    8.7740 C.3    24  ALA24       0.1562
     35  C         13.8830   46.6850   10.1190 C.2    24  ALA24       0.2260
     36  O         14.1860   46.0280   11.1090 O.2    24  ALA24      -0.2867
     37  CB        15.1220   46.0620    8.0690 C.3    24  ALA24       0.0290
     38  N          9.8780   46.0800   12.1290 N.3    27  VAL27      -0.1245
     39  CA         9.4450   44.7890   12.6610 C.3    27  VAL27       0.1561
     40  C          9.8200   44.6460   14.1460 C.2    27  VAL27       0.2260
     41  O         10.8880   45.0890   14.5760 O.2    27  VAL27      -0.2867
     42  CB        10.0350   43.6070   11.8370 C.3    27  VAL27       0.0252
     43  CG1       11.5500   43.4730   12.0500 C.3    27  VAL27       0.0019
     44  CG2        9.3320   42.2980   12.1770 C.3    27  VAL27       0.0019
     45  N         10.9570   41.9650   16.3090 N.3    29  VAL29      -0.1245
     46  CA        11.5190   40.6110   16.1630 C.3    29  VAL29       0.1561
     47  C         10.9520   39.6310   17.2050 C.2    29  VAL29       0.2260
     48  O         10.8750   38.4380   16.9080 O.2    29  VAL29      -0.2867
     49  CB        13.0740   40.5810   16.1980 C.3    29  VAL29       0.0252
     50  CG1       13.6580   41.2070   14.9380 C.3    29  VAL29       0.0019
     51  CG2       13.6370   41.2450   17.4540 C.3    29  VAL29       0.0019
     52  N          8.9940   36.5050   15.5260 N.3    33  TYR33      -0.1241
     53  CA         9.6180   35.1850   15.6460 C.3    33  TYR33       0.1605
     54  C          9.5680   34.6840   17.0820 C.2    33  TYR33       0.2264
     55  O         10.6110   34.6080   17.7410 O.2    33  TYR33      -0.2867
     56  CB        11.0780   35.2700   15.1670 C.3    33  TYR33       0.0534
     57  CG        11.2300   35.9340   13.8180 C.ar   33  TYR33      -0.0201
     58  CD1       10.6900   35.3610   12.6750 C.ar   33  TYR33      -0.0009
     59  CD2       11.8450   37.1770   13.6960 C.ar   33  TYR33      -0.0009
     60  CE1       10.7950   35.9840   11.4360 C.ar   33  TYR33       0.0417
     61  CE2       11.9560   37.8080   12.4640 C.ar   33  TYR33       0.0417
     62  CZ        11.4430   37.2000   11.3300 C.ar   33  TYR33       0.1957
     63  OH        11.6130   37.7970   10.1010 O.3    33  TYR33      -0.2866
     64  N         17.3030   36.3610   20.5350 N.3    40  TYR40      -0.1241
     65  CA        17.3450   37.8090   20.2820 C.3    40  TYR40       0.1605
     66  C         17.5840   38.5880   21.5670 C.2    40  TYR40       0.2264
     67  O         18.2100   39.6360   21.5140 O.2    40  TYR40      -0.2867
     68  CB        16.0370   38.3140   19.6040 C.3    40  TYR40       0.0534
     69  CG        15.8720   37.8610   18.1680 C.ar   40  TYR40      -0.0201
     70  CD1       16.8540   38.1120   17.2200 C.ar   40  TYR40      -0.0009
     71  CD2       14.7040   37.2390   17.7410 C.ar   40  TYR40      -0.0009
     72  CE1       16.7100   37.6950   15.9000 C.ar   40  TYR40       0.0417
     73  CE2       14.5490   36.8190   16.4210 C.ar   40  TYR40       0.0417
     74  CZ        15.5530   37.0570   15.5010 C.ar   40  TYR40       0.1957
     75  OH        15.4240   36.6320   14.1990 O.3    40  TYR40      -0.2866
     76  N         20.9430   46.2520   15.2970 N.3    92  CYS92      -0.1235
     77  CA        21.0390   45.7410   13.9460 C.3    92  CYS92       0.1677
     78  C         22.5030   45.4110   13.5680 C.2    92  CYS92       0.2270
     79  O         22.7440   44.3130   13.0650 O.2    92  CYS92      -0.2867
     80  CB        20.4210   46.7150   12.9590 C.3    92  CYS92       0.0956
     81  SG        20.2850   46.0680   11.2730 S.3    92  CYS92      -0.0801
     82  N         23.6790   42.2770   15.7450 N.3    95  PHE95      -0.1227
     83  CA        23.0220   41.0790   15.2410 C.3    95  PHE95       0.1736
     84  C         23.6060   40.6480   13.8750 C.2    95  PHE95       0.2595
     85  O         23.9220   39.4700   13.6830 O.2    95  PHE95      -0.2718
     86  CB        21.5050   41.3350   15.1190 C.3    95  PHE95       0.0547
     87  CG        20.7570   40.1810   14.5140 C.ar   95  PHE95      -0.0202
     88  CD1       20.7680   38.9350   15.1190 C.ar   95  PHE95      -0.0042
     89  CD2       20.1270   40.3080   13.2860 C.ar   95  PHE95      -0.0042
     90  CE1       20.1200   37.8520   14.5300 C.ar   95  PHE95      -0.0003
     91  CE2       19.4750   39.2280   12.7070 C.ar   95  PHE95      -0.0003
     92  CZ        19.4860   38.0050   13.3270 C.ar   95  PHE95      -0.0000
     93  N         23.7700   41.6080   12.9540 N.am   96  ASN96      -0.1974
     94  CA        24.2830   41.3560   11.6050 C.3    96  ASN96       0.1688
     95  C         25.8090   41.5790   11.4730 C.2    96  ASN96       0.2292
     96  O         26.2800   41.7530   10.3550 O.2    96  ASN96      -0.2864
     97  CB        23.5620   42.2810   10.5940 C.3    96  ASN96       0.1181
     98  CG        22.1290   41.9070   10.3790 C.2    96  ASN96       0.2629
     99  OD1       21.8340   40.7770   10.0530 O.2    96  ASN96      -0.2716
    100  ND2       21.2010   42.8650   10.4910 N.am   96  ASN96      -0.0877
    101  N         23.4340   48.7110    5.4470 N.3   105  LEU105     -0.1245
    102  CA        22.0600   49.2150    5.4260 C.3   105  LEU105      0.1561
    103  C         21.7290   49.9070    6.7470 C.2   105  LEU105      0.2260
    104  O         21.1260   50.9750    6.7380 O.2   105  LEU105     -0.2867
    105  CB        21.0610   48.0870    5.1580 C.3   105  LEU105      0.0270
    106  CG        19.6140   48.5420    4.9020 C.3   105  LEU105      0.0019
    107  CD1       19.5270   49.4110    3.6460 C.3   105  LEU105      0.0001
    108  CD2       18.6870   47.3560    4.8050 C.3   105  LEU105      0.0001
@<TRIPOS>BOND
     1     7     6    1
     2     7     8    1
     3     5     6    1
     4     5     2    1
     5    16    13    1
     6    16    17    1
     7     8     9    2
     8    13    12    1
     9    13    14    1
    10    19    18   ar
    11    20    18   ar
    12    12     3   am
    13     3     4    2
    14     3     2    1
    15    18    17    1
    16     2     1    1
    17    15    14    2
    18     9    10    1
    19     9    11    1
    20    14    21   am
    21    21    22    1
    22   107   106    1
    23    29    30    1
    24    29    23   am
    25    30    31    1
    26    22    23    1
    27    22    25    1
    28    23    24    2
    29   108   106    1
    30   106   105    1
    31    27    26   ar
    32    31    32    2
    33   105   102    1
    34   102   101    1
    35   102   103    1
    36    25    26    1
    37    26    28   ar
    38   104   103    2
    39    33    34    1
    40    37    34    1
    41    34    35    1
    42    99    98    2
    43    63    62    1
    44    35    36    2
    45    96    95    2
    46    98   100   am
    47    98    97    1
    48    97    94    1
    49    81    80    1
    50    62    60   ar
    51    62    61   ar
    52    60    58   ar
    53    95    94    1
    54    94    93    1
    55    42    43    1
    56    42    44    1
    57    42    39    1
    58    38    39    1
    59    61    59   ar
    60    39    40    1
    61    58    57   ar
    62    91    89   ar
    63    91    92   ar
    64    93    84   am
    65    80    77    1
    66    79    78    2
    67    89    87   ar
    68    92    90   ar
    69    78    77    1
    70    85    84    2
    71    59    57   ar
    72    57    56    1
    73    84    83    1
    74    77    76    1
    75    40    41    2
    76    75    74    1
    77    87    86    1
    78    87    88   ar
    79    90    88   ar
    80    50    49    1
    81    86    83    1
    82    56    53    1
    83    83    82    1
    84    74    72   ar
    85    74    73   ar
    86    52    53    1
    87    53    54    1
    88    72    70   ar
    89    46    49    1
    90    46    45    1
    91    46    47    1
    92    49    51    1
    93    73    71   ar
    94    48    47    2
    95    54    55    2
    96    70    69   ar
    97    71    69   ar
    98    69    68    1
    99    68    65    1
   100    65    64    1
   101    65    66    1
   102    67    66    2
