@<TRIPOS>MOLECULE
tmp/5tcmB00.pdb
 151 148 0 0 0
SMALL
GASTEIGER

@<TRIPOS>ATOM
      1  N         33.8940   47.6400   34.0900 N.3    17  ASP17      -0.1239
      2  CA        35.3510   47.6040   33.8600 C.3    17  ASP17       0.1674
      3  C         36.0470   47.9610   35.1670 C.2    17  ASP17       0.2266
      4  O         36.1740   49.1400   35.4950 O.2    17  ASP17      -0.2867
      5  CB        35.7390   48.6020   32.7600 C.3    17  ASP17       0.1410
      6  CG        37.1890   48.5620   32.3510 C.2    17  ASP17       0.3668
      7  OD1       37.8890   47.5970   32.7310 O.co2  17  ASP17      -0.2456
      8  OD2       37.6040   49.4420   31.5920 O.co2  17  ASP17      -0.2456
      9  N         41.9390   43.9100   36.8570 N.3    22  HIS22      -0.1226
     10  CA        43.0790   44.4270   36.0970 C.3    22  HIS22       0.1752
     11  C         42.6470   44.8690   34.6850 C.2    22  HIS22       0.2596
     12  O         43.4530   44.8640   33.7630 O.2    22  HIS22      -0.2718
     13  CB        44.2160   43.3920   36.0530 C.3    22  HIS22       0.0759
     14  CG        44.7300   43.0640   37.4150 C.ar   22  HIS22       0.0818
     15  ND1       45.1440   41.7930   37.7410 N.ar   22  HIS22      -0.2268
     16  CD2       44.7780   43.8360   38.5260 C.ar   22  HIS22       0.1154
     17  CE1       45.5140   41.8520   39.0060 C.ar   22  HIS22       0.1986
     18  NE2       45.2450   43.0430   39.5350 N.ar   22  HIS22      -0.2212
     19  N         41.3870   45.3440   34.5590 N.am   23  HIS23      -0.1961
     20  CA        40.8020   45.8320   33.2980 C.3    23  HIS23       0.1787
     21  C         40.9860   44.8340   32.1000 C.2    23  HIS23       0.2620
     22  O         40.9940   45.2720   30.9480 O.2    23  HIS23      -0.2715
     23  CB        41.4110   47.1950   32.9240 C.3    23  HIS23       0.0785
     24  CG        41.3350   48.2060   34.0160 C.ar   23  HIS23       0.0821
     25  ND1       40.1380   48.7660   34.3900 N.ar   23  HIS23      -0.2267
     26  CD2       42.3160   48.7190   34.7920 C.ar   23  HIS23       0.1154
     27  CE1       40.4190   49.6190   35.3570 C.ar   23  HIS23       0.1986
     28  NE2       41.7170   49.6020   35.6490 N.ar   23  HIS23      -0.2212
     29  N         41.0770   43.5070   32.3610 N.am   24  ILE24      -0.1963
     30  CA        41.3190   42.5520   31.2600 C.3    24  ILE24       0.1727
     31  C         40.0530   42.3550   30.3680 C.2    24  ILE24       0.2616
     32  O         40.1910   41.7970   29.3040 O.2    24  ILE24      -0.2715
     33  CB        41.8700   41.1760   31.7410 C.3    24  ILE24       0.0290
     34  CG1       40.8320   40.4140   32.5850 C.3    24  ILE24       0.0022
     35  CG2       43.1760   41.3680   32.5300 C.3    24  ILE24       0.0023
     36  CD1       41.0670   38.8990   32.5930 C.3    24  ILE24       0.0001
     37  N         38.8560   42.8540   30.7680 N.am   25  PHE25      -0.1960
     38  CA        37.6530   42.7500   29.9150 C.3    25  PHE25       0.1771
     39  C         37.3530   44.0720   29.2080 C.2    25  PHE25       0.2619
     40  O         36.3320   44.1830   28.5270 O.2    25  PHE25      -0.2715
     41  CB        36.4430   42.3320   30.7620 C.3    25  PHE25       0.0574
     42  CG        36.6660   41.0300   31.4880 C.ar   25  PHE25      -0.0200
     43  CD1       36.7440   39.8340   30.7890 C.ar   25  PHE25      -0.0042
     44  CD2       36.9140   41.0110   32.8530 C.ar   25  PHE25      -0.0042
     45  CE1       37.0230   38.6390   31.4470 C.ar   25  PHE25      -0.0003
     46  CE2       37.1620   39.8100   33.5150 C.ar   25  PHE25      -0.0003
     47  CZ        37.1990   38.6290   32.8070 C.ar   25  PHE25      -0.0000
     48  N         38.2450   45.0620   29.3390 N.am   26  ALA26      -0.1963
     49  CA        37.9990   46.4050   28.8210 C.3    26  ALA26       0.1728
     50  C         38.0750   46.4760   27.3150 C.2    26  ALA26       0.2616
     51  O         37.3530   47.2590   26.7270 O.2    26  ALA26      -0.2715
     52  CB        38.9930   47.3820   29.4130 C.3    26  ALA26       0.0334
     53  N         38.9950   45.7180   26.6930 N.am   27  VAL27      -0.1977
     54  CA        39.2970   45.8530   25.2710 C.3    27  VAL27       0.1596
     55  C         39.3860   44.4680   24.6070 C.2    27  VAL27       0.2287
     56  O         39.7900   43.5020   25.2480 O.2    27  VAL27      -0.2864
     57  CB        40.6410   46.6490   25.1570 C.3    27  VAL27       0.0276
     58  CG1       41.2750   46.5210   23.7800 C.3    27  VAL27       0.0022
     59  CG2       40.4310   48.1180   25.5360 C.3    27  VAL27       0.0022
     60  N         40.6210   41.2600   23.0160 N.3    29  VAL29      -0.1245
     61  CA        41.8820   40.5360   23.2510 C.3    29  VAL29       0.1561
     62  C         42.8260   40.6310   22.0300 C.2    29  VAL29       0.2260
     63  O         44.0590   40.6820   22.1990 O.2    29  VAL29      -0.2867
     64  CB        41.6160   39.0360   23.6050 C.3    29  VAL29       0.0252
     65  CG1       42.9190   38.2460   23.6730 C.3    29  VAL29       0.0019
     66  CG2       40.8770   38.9020   24.9190 C.3    29  VAL29       0.0019
     67  N         44.7210   44.0630   21.7770 N.3    32  THR32      -0.1203
     68  CA        45.8810   44.0710   22.6780 C.3    32  THR32       0.1994
     69  C         46.9460   43.1310   22.1690 C.2    32  THR32       0.2617
     70  O         48.1080   43.5010   22.1180 O.2    32  THR32      -0.2717
     71  CB        45.4540   43.6510   24.0920 C.3    32  THR32       0.1784
     72  OG1       44.3440   44.4540   24.4890 O.3    32  THR32      -0.2211
     73  CG2       46.5870   43.7800   25.1180 C.3    32  THR32       0.0376
     74  N         46.5480   41.9180   21.7580 N.am   33  TYR33      -0.1975
     75  CA        47.4940   40.8900   21.3050 C.3    33  TYR33       0.1639
     76  C         47.1650   40.3790   19.9180 C.2    33  TYR33       0.2290
     77  O         46.6900   39.2600   19.7790 O.2    33  TYR33      -0.2864
     78  CB        47.4850   39.7230   22.2820 C.3    33  TYR33       0.0560
     79  CG        47.9310   40.1100   23.6590 C.ar   33  TYR33      -0.0198
     80  CD1       49.2440   40.5080   23.9010 C.ar   33  TYR33      -0.0009
     81  CD2       47.0550   40.0580   24.7390 C.ar   33  TYR33      -0.0009
     82  CE1       49.6410   40.9490   25.1490 C.ar   33  TYR33       0.0417
     83  CE2       47.4630   40.4360   26.0140 C.ar   33  TYR33       0.0417
     84  CZ        48.7690   40.8560   26.2190 C.ar   33  TYR33       0.1957
     85  OH        49.1760   41.2870   27.4550 O.3    33  TYR33      -0.2866
     86  N         47.7910   36.6050   18.8190 N.3    36  LEU36      -0.1245
     87  CA        46.9800   35.5270   19.4000 C.3    36  LEU36       0.1561
     88  C         45.8380   35.0890   18.4590 C.2    36  LEU36       0.2260
     89  O         45.1580   34.1280   18.7790 O.2    36  LEU36      -0.2867
     90  CB        46.3480   35.9770   20.7570 C.3    36  LEU36       0.0270
     91  CG        47.2310   35.9230   21.9900 C.3    36  LEU36       0.0019
     92  CD1       46.4280   36.1980   23.2080 C.3    36  LEU36       0.0001
     93  CD2       47.9380   34.5660   22.1140 C.3    36  LEU36       0.0001
     94  N         43.8350   31.9160   19.6520 N.3    40  TYR40      -0.1241
     95  CA        42.6860   32.3450   20.4560 C.3    40  TYR40       0.1605
     96  C         41.3460   32.0340   19.7380 C.2    40  TYR40       0.2264
     97  O         40.4410   31.5060   20.3760 O.2    40  TYR40      -0.2867
     98  CB        42.7830   33.8460   20.7930 C.3    40  TYR40       0.0534
     99  CG        41.7520   34.3180   21.8010 C.ar   40  TYR40      -0.0201
    100  CD1       41.9830   34.2090   23.1680 C.ar   40  TYR40      -0.0009
    101  CD2       40.5550   34.8910   21.3870 C.ar   40  TYR40      -0.0009
    102  CE1       41.0340   34.6240   24.0980 C.ar   40  TYR40       0.0417
    103  CE2       39.6100   35.3390   22.3110 C.ar   40  TYR40       0.0417
    104  CZ        39.8420   35.1780   23.6640 C.ar   40  TYR40       0.1957
    105  OH        38.9240   35.6520   24.5580 O.3    40  TYR40      -0.2866
    106  N         32.2750   36.8300   27.5640 N.3    78  MET78      -0.1245
    107  CA        33.5560   37.3960   28.0130 C.3    78  MET78       0.1570
    108  C         34.1610   36.5050   29.0900 C.2    78  MET78       0.2261
    109  O         35.3340   36.1400   29.0070 O.2    78  MET78      -0.2867
    110  CB        33.3680   38.8120   28.6080 C.3    78  MET78       0.0387
    111  CG        32.9970   39.8840   27.5960 C.3    78  MET78       0.0595
    112  SD        32.6850   41.4920   28.4160 S.3    78  MET78      -0.1393
    113  CE        31.3610   42.1090   27.4350 C.3    78  MET78       0.0692
    114  N         37.4910   33.6940   28.7940 N.3    82  CYS82      -0.1235
    115  CA        38.6040   33.8580   29.7170 C.3    82  CYS82       0.1677
    116  C         38.9140   32.5520   30.4200 C.2    82  CYS82       0.2270
    117  O         40.0760   32.1820   30.5260 O.2    82  CYS82      -0.2867
    118  CB        38.2940   34.9550   30.7250 C.3    82  CYS82       0.0956
    119  SG        39.6690   35.3510   31.8140 S.3    82  CYS82      -0.0801
    120  N         40.1830   29.8070   27.6620 N.3    85  TYR85      -0.1227
    121  CA        41.4900   30.0600   27.0570 C.3    85  TYR85       0.1736
    122  C         42.6340   30.0210   28.0860 C.2    85  TYR85       0.2595
    123  O         43.7120   29.5210   27.7720 O.2    85  TYR85      -0.2718
    124  CB        41.4970   31.4070   26.3240 C.3    85  TYR85       0.0548
    125  CG        42.7430   31.5940   25.4970 C.ar   85  TYR85      -0.0200
    126  CD1       42.9410   30.8680   24.3330 C.ar   85  TYR85      -0.0009
    127  CD2       43.7890   32.3830   25.9520 C.ar   85  TYR85      -0.0009
    128  CE1       44.1260   30.9680   23.6100 C.ar   85  TYR85       0.0417
    129  CE2       44.9740   32.5030   25.2310 C.ar   85  TYR85       0.0417
    130  CZ        45.1530   31.7680   24.0790 C.ar   85  TYR85       0.1957
    131  OH        46.3290   31.8790   23.3850 O.3    85  TYR85      -0.2866
    132  N         42.4150   30.5510   29.2820 N.am   86  ASN86      -0.1974
    133  CA        43.4550   30.5860   30.3070 C.3    86  ASN86       0.1688
    134  C         43.5270   29.2790   31.0940 C.2    86  ASN86       0.2292
    135  O         44.5960   28.9270   31.5900 O.2    86  ASN86      -0.2864
    136  CB        43.2150   31.7480   31.2680 C.3    86  ASN86       0.1181
    137  CG        43.3910   33.0820   30.6140 C.2    86  ASN86       0.2629
    138  OD1       44.5110   33.4920   30.2890 O.2    86  ASN86      -0.2716
    139  ND2       42.3070   33.7850   30.3990 N.am   86  ASN86      -0.0877
    140  N         43.2240   34.0890   36.5460 N.3    92  TYR92      -0.1241
    141  CA        42.3230   34.9760   35.8500 C.3    92  TYR92       0.1605
    142  C         41.0020   34.2640   35.4910 C.2    92  TYR92       0.2264
    143  O         40.0290   34.9440   35.2380 O.2    92  TYR92      -0.2867
    144  CB        42.9940   35.6030   34.6340 C.3    92  TYR92       0.0534
    145  CG        43.9100   36.7240   35.0690 C.ar   92  TYR92      -0.0201
    146  CD1       43.3950   37.9720   35.4200 C.ar   92  TYR92      -0.0009
    147  CD2       45.2440   36.4760   35.3670 C.ar   92  TYR92      -0.0009
    148  CE1       44.2140   38.9790   35.9200 C.ar   92  TYR92       0.0417
    149  CE2       46.0680   37.4700   35.8870 C.ar   92  TYR92       0.0417
    150  CZ        45.5510   38.7200   36.1600 C.ar   92  TYR92       0.1957
    151  OH        46.3760   39.6720   36.7110 O.3    92  TYR92      -0.2866
@<TRIPOS>BOND
     1    88    89    2
     2    88    87    1
     3    86    87    1
     4    87    90    1
     5    94    95    1
     6    96    97    2
     7    96    95    1
     8    77    76    2
     9    76    75    1
    10    95    98    1
    11    90    91    1
    12    98    99    1
    13    75    74    1
    14    75    78    1
    15   101    99   ar
    16   101   103   ar
    17    74    69   am
    18    67    68    1
    19    99   100   ar
    20    91    93    1
    21    91    92    1
    22    62    63    2
    23    62    61    1
    24    70    69    2
    25    69    68    1
    26    78    79    1
    27   103   104   ar
    28    68    71    1
    29    60    61    1
    30   100   102   ar
    31    61    64    1
    32   131   130    1
    33    64    65    1
    34    64    66    1
    35   128   130   ar
    36   128   126   ar
    37    79    80   ar
    38    79    81   ar
    39   104   102   ar
    40   104   105    1
    41    58    57    1
    42    80    82   ar
    43   130   129   ar
    44    71    72    1
    45    71    73    1
    46   126   125   ar
    47    55    56    2
    48    55    54    1
    49    81    83   ar
    50    82    84   ar
    51    57    54    1
    52    57    59    1
    53   129   127   ar
    54    54    53    1
    55   125   127   ar
    56   125   124    1
    57    83    84   ar
    58    84    85    1
    59   124   121    1
    60    53    50   am
    61    51    50    2
    62   121   120    1
    63   121   122    1
    64    50    49    1
    65   113   112    1
    66   106   107    1
    67   111   112    1
    68   111   110    1
    69   123   122    2
    70   107   110    1
    71   107   108    1
    72   122   132   am
    73    40    39    2
    74   114   115    1
    75    49    48    1
    76    49    52    1
    77   109   108    2
    78    39    48   am
    79    39    38    1
    80   132   133    1
    81    32    31    2
    82   115   116    1
    83   115   118    1
    84    38    41    1
    85    38    37    1
    86   138   137    2
    87   133   134    1
    88   133   136    1
    89    31    37   am
    90    31    30    1
    91   139   137   am
    92   116   117    2
    93   137   136    1
    94   118   119    1
    95    41    42    1
    96    43    45   ar
    97    43    42   ar
    98    22    21    2
    99   134   135    2
   100    30    33    1
   101    30    29    1
   102    45    47   ar
   103    42    44   ar
   104     8     6   ar
   105    33    35    1
   106    33    34    1
   107    21    29   am
   108    21    20    1
   109     6     7   ar
   110     6     5    1
   111    34    36    1
   112     5     2    1
   113    47    46   ar
   114    44    46   ar
   115    23    20    1
   116    23    24    1
   117    20    19    1
   118    12    11    2
   119     2     1    1
   120     2     3    1
   121    24    25   ar
   122    24    26   ar
   123    25    27   ar
   124    19    11   am
   125   144   145    1
   126   144   141    1
   127    11    10    1
   128    26    28   ar
   129   145   147   ar
   130   145   146   ar
   131     3     4    2
   132   143   142    2
   133    27    28   ar
   134   147   149   ar
   135   146   148   ar
   136   142   141    1
   137   141   140    1
   138   149   150   ar
   139   148   150   ar
   140    13    10    1
   141    13    14    1
   142    10     9    1
   143   150   151    1
   144    14    15   ar
   145    14    16   ar
   146    15    17   ar
   147    16    18   ar
   148    17    18   ar
