@<TRIPOS>MOLECULE
tmp/5tcoA00.pdb
 196 184 0 0 0
SMALL
GASTEIGER

@<TRIPOS>ATOM
      1  N         28.6280    8.5310  -22.4490 N.3    24  PRO24      -0.2102
      2  CA        27.5360    8.2760  -21.5090 C.3    24  PRO24       0.1504
      3  C         26.1310    8.4490  -22.0570 C.2    24  PRO24       0.2575
      4  O         25.8880    9.3370  -22.8350 O.2    24  PRO24      -0.2718
      5  CB        27.8150    9.2890  -20.4260 C.3    24  PRO24       0.0282
      6  CG        29.3070    9.3060  -20.3550 C.3    24  PRO24       0.0208
      7  CD        29.7360    9.2510  -21.7900 C.3    24  PRO24       0.0893
      8  N         25.2250    7.5560  -21.6950 N.am   25  VAL25      -0.1980
      9  CA        23.8230    7.7750  -22.0010 C.3    25  VAL25       0.1595
     10  C         22.9930    7.9550  -20.7150 C.2    25  VAL25       0.2287
     11  O         22.0620    8.7610  -20.6900 O.2    25  VAL25      -0.2864
     12  CB        23.2190    6.6790  -22.9220 C.3    25  VAL25       0.0276
     13  CG1       24.0210    6.5810  -24.2050 C.3    25  VAL25       0.0022
     14  CG2       23.1740    5.3210  -22.2720 C.3    25  VAL25       0.0022
     15  N         25.6990    3.2250  -18.0250 N.3    29  VAL29      -0.1245
     16  CA        25.6900    2.8070  -19.4300 C.3    29  VAL29       0.1561
     17  C         26.2870    3.8530  -20.4150 C.2    29  VAL29       0.2260
     18  O         25.8830    5.0120  -20.4550 O.2    29  VAL29      -0.2867
     19  CB        24.2660    2.5560  -19.9280 C.3    29  VAL29       0.0252
     20  CG1       24.3100    1.9370  -21.3200 C.3    29  VAL29       0.0019
     21  CG2       23.4810    1.6810  -18.9620 C.3    29  VAL29       0.0019
     22  N         27.2050    4.4060  -24.6800 N.3    31  ALA31      -0.1245
     23  CA        26.9720    3.9890  -26.0300 C.3    31  ALA31       0.1562
     24  C         28.3520    3.8930  -26.6450 C.2    31  ALA31       0.2260
     25  O         29.2930    4.6260  -26.2880 O.2    31  ALA31      -0.2867
     26  CB        26.1210    4.9760  -26.7730 C.3    31  ALA31       0.0290
     27  N         25.5000   -0.9660  -26.2890 N.3    42  ALA42      -0.1245
     28  CA        25.4990   -0.3530  -24.9890 C.3    42  ALA42       0.1562
     29  C         26.3950   -1.2010  -24.0820 C.2    42  ALA42       0.2260
     30  O         26.2550   -2.4240  -24.0510 O.2    42  ALA42      -0.2867
     31  CB        24.0780   -0.2710  -24.4290 C.3    42  ALA42       0.0290
     32  N         27.6590   -1.4690  -20.1460 N.3    44  LYS44      -0.1245
     33  CA        27.1970   -1.1210  -18.8260 C.3    44  LYS44       0.1561
     34  C         28.2430   -1.6310  -17.8980 C.2    44  LYS44       0.2260
     35  O         28.4480   -2.8550  -17.8290 O.2    44  LYS44      -0.2867
     36  CB        25.8610   -1.8090  -18.5690 C.3    44  LYS44       0.0271
     37  CG        25.3880   -1.7600  -17.1450 C.3    44  LYS44       0.0035
     38  CD        23.9120   -2.2010  -16.9910 C.3    44  LYS44       0.0206
     39  CE        23.6180   -2.3140  -15.5030 C.3    44  LYS44       0.1093
     40  NZ        22.2420   -2.6570  -15.0990 N.3    44  LYS44      -0.1314
     41  N         22.5280  -12.3820  -10.9560 N.3    61  ARG61      -0.1231
     42  CA        21.1640  -12.4040  -11.5030 C.3    61  ARG61       0.1694
     43  C         21.1430  -11.6860  -12.8270 C.2    61  ARG61       0.2591
     44  O         20.6660  -12.2250  -13.8510 O.2    61  ARG61      -0.2718
     45  CB        20.1700  -11.7060  -10.5290 C.3    61  ARG61       0.0321
     46  CG        18.6870  -11.6470  -10.9870 C.3    61  ARG61       0.0489
     47  CD        17.7900  -10.8670  -10.0040 C.3    61  ARG61       0.2205
     48  NE        17.6820  -11.6080   -8.7360 N.pl3  61  ARG61      -0.0865
     49  CZ        18.1420  -11.2140   -7.5440 C.cat  61  ARG61       0.5346
     50  NH1       18.6490   -9.9930   -7.3540 N.pl3  61  ARG61       0.1354
     51  NH2       18.0560  -12.0540   -6.5090 N.pl3  61  ARG61       0.1354
     52  N         21.6810  -10.4700  -12.8440 N.am   62  GLU62      -0.1979
     53  CA        21.7010   -9.7350  -14.0980 C.3    62  GLU62       0.1602
     54  C         22.3780  -10.4970  -15.2370 C.2    62  GLU62       0.2287
     55  O         21.8340  -10.6150  -16.3470 O.2    62  GLU62      -0.2864
     56  CB        22.2810   -8.3200  -13.9630 C.3    62  GLU62       0.0415
     57  CG        22.1080   -7.4790  -15.2390 C.3    62  GLU62       0.1163
     58  CD        22.4760   -6.0210  -15.0700 C.2    62  GLU62       0.3649
     59  OE1       22.3200   -5.2230  -16.0360 O.co2  62  GLU62      -0.2457
     60  OE2       22.9760   -5.6780  -13.9870 O.co2  62  GLU62      -0.2457
     61  N         20.2090  -13.5470  -16.2150 N.3    65  LEU65      -0.1231
     62  CA        19.0160  -13.1210  -16.9600 C.3    65  LEU65       0.1693
     63  C         19.3650  -12.7770  -18.4340 C.2    65  LEU65       0.2591
     64  O         18.7380  -13.2740  -19.3960 O.2    65  LEU65      -0.2718
     65  CB        18.3620  -11.9170  -16.2550 C.3    65  LEU65       0.0284
     66  CG        17.5050  -12.2520  -15.0270 C.3    65  LEU65       0.0019
     67  CD1       17.0290  -11.0120  -14.2400 C.3    65  LEU65       0.0001
     68  CD2       16.3050  -13.0660  -15.4540 C.3    65  LEU65       0.0001
     69  N         20.3560  -11.9240  -18.5800 N.am   66  LEU66      -0.1980
     70  CA        20.7420  -11.4410  -19.8980 C.3    66  LEU66       0.1596
     71  C         21.2960  -12.5640  -20.7850 C.2    66  LEU66       0.2287
     72  O         21.0620  -12.5550  -21.9630 O.2    66  LEU66      -0.2864
     73  CB        21.7550  -10.3120  -19.7860 C.3    66  LEU66       0.0297
     74  CG        21.1510   -9.0030  -19.3760 C.3    66  LEU66       0.0022
     75  CD1       22.2420   -8.0910  -18.8840 C.3    66  LEU66       0.0001
     76  CD2       20.3960   -8.3780  -20.5580 C.3    66  LEU66       0.0001
     77  N         15.9340   -7.3050  -24.4040 N.3    75  ILE75      -0.1245
     78  CA        17.3510   -7.0620  -24.4410 C.3    75  ILE75       0.1561
     79  C         18.0550   -8.3740  -24.1100 C.2    75  ILE75       0.2260
     80  O         17.6230   -9.1290  -23.2320 O.2    75  ILE75      -0.2867
     81  CB        17.7660   -5.9190  -23.4930 C.3    75  ILE75       0.0252
     82  CG1       19.1140   -5.3280  -23.9010 C.3    75  ILE75       0.0019
     83  CG2       17.8410   -6.3850  -22.0750 C.3    75  ILE75       0.0019
     84  CD1       19.0810   -4.6120  -25.2520 C.3    75  ILE75       0.0001
     85  N         28.8210   -5.3640  -19.1270 N.3    95  LEU95      -0.1245
     86  CA        27.8630   -6.0580  -19.9570 C.3    95  LEU95       0.1561
     87  C         27.6260   -5.2180  -21.2030 C.2    95  LEU95       0.2260
     88  O         27.4620   -4.0120  -21.0890 O.2    95  LEU95      -0.2867
     89  CB        26.5500   -6.2130  -19.2020 C.3    95  LEU95       0.0270
     90  CG        26.6630   -6.8890  -17.8110 C.3    95  LEU95       0.0019
     91  CD1       25.3910   -6.7030  -16.9770 C.3    95  LEU95       0.0001
     92  CD2       26.9420   -8.3700  -17.9600 C.3    95  LEU95       0.0001
     93  N         25.2500   -4.8490  -24.7240 N.3    97  THR97      -0.1203
     94  CA        23.9820   -5.2140  -25.3360 C.3    97  THR97       0.1994
     95  C         23.7950   -4.3700  -26.5920 C.2    97  THR97       0.2618
     96  O         24.5710   -3.4520  -26.8680 O.2    97  THR97      -0.2717
     97  CB        22.7800   -4.9140  -24.3980 C.3    97  THR97       0.1784
     98  OG1       22.6950   -3.5010  -24.1720 O.3    97  THR97      -0.2211
     99  CG2       22.9450   -5.5770  -23.0860 C.3    97  THR97       0.0376
    100  N         22.7360   -4.6560  -27.3470 N.am   98  HIS98      -0.1961
    101  CA        22.3750   -3.7830  -28.4490 C.3    98  HIS98       0.1787
    102  C         22.1580   -2.3620  -27.9740 C.2    98  HIS98       0.2620
    103  O         21.7120   -2.1340  -26.8510 O.2    98  HIS98      -0.2715
    104  CB        21.1030   -4.2730  -29.1560 C.3    98  HIS98       0.0785
    105  CG        21.3530   -5.3460  -30.1670 C.ar   98  HIS98       0.0821
    106  ND1       21.8520   -5.0780  -31.4220 N.ar   98  HIS98      -0.2267
    107  CD2       21.1280   -6.6790  -30.1310 C.ar   98  HIS98       0.1154
    108  CE1       21.9900   -6.2050  -32.0920 C.ar   98  HIS98       0.1986
    109  NE2       21.5420   -7.1890  -31.3370 N.ar   98  HIS98      -0.2212
    110  N         22.5060   -1.4020  -28.8160 N.am   99  LEU99      -0.1963
    111  CA        22.1470   -0.0250  -28.5710 C.3    99  LEU99       0.1728
    112  C         20.9380    0.2830  -29.4410 C.2    99  LEU99       0.2616
    113  O         20.9980    0.0720  -30.6230 O.2    99  LEU99      -0.2715
    114  CB        23.3130    0.8850  -28.8960 C.3    99  LEU99       0.0311
    115  CG        23.1030    2.3230  -28.4220 C.3    99  LEU99       0.0022
    116  CD1       23.2600    2.4220  -26.9220 C.3    99  LEU99       0.0001
    117  CD2       24.0510    3.2720  -29.1280 C.3    99  LEU99       0.0001
    118  N         19.7980    0.6280  -28.8670 N.am  100  MET100     -0.1963
    119  CA        18.6560    0.9260  -29.7220 C.3   100  MET100      0.1736
    120  C         18.6530    2.4010  -30.1220 C.2   100  MET100      0.2617
    121  O         18.3380    2.7280  -31.2500 O.2   100  MET100     -0.2715
    122  CB        17.3360    0.5240  -29.0990 C.3   100  MET100      0.0427
    123  CG        17.2510   -0.9590  -28.7500 C.3   100  MET100      0.0599
    124  SD        17.4690   -2.0960  -30.1150 S.3   100  MET100     -0.1393
    125  CE        15.8390   -1.9170  -30.8590 C.3   100  MET100      0.0692
    126  N         19.0000    3.2680  -29.1790 N.am  101  GLY101     -0.1940
    127  CA        19.2520    4.6520  -29.4930 C.3   101  GLY101      0.2014
    128  C         18.2860    5.6360  -28.8570 C.2   101  GLY101      0.2639
    129  O         18.4930    6.8350  -28.9720 O.2   101  GLY101     -0.2714
    130  N         17.2380    5.1400  -28.2090 N.am  102  ALA102     -0.1963
    131  CA        16.2190    5.9990  -27.5920 C.3   102  ALA102      0.1728
    132  C         15.3730    5.1070  -26.6910 C.2   102  ALA102      0.2616
    133  O         15.4310    3.8950  -26.8670 O.2   102  ALA102     -0.2715
    134  CB        15.3370    6.5790  -28.6790 C.3   102  ALA102      0.0334
    135  N         14.6310    5.6800  -25.7390 N.am  103  ASP103     -0.1971
    136  CA        13.5820    4.9520  -25.0470 C.3   103  ASP103      0.1709
    137  C         12.2310    5.4310  -25.5290 C.2   103  ASP103      0.2293
    138  O         12.1580    6.3960  -26.2840 O.2   103  ASP103     -0.2864
    139  CB        13.7190    5.0490  -23.5210 C.3   103  ASP103      0.1436
    140  CG        13.5510    6.4520  -22.9900 C.2   103  ASP103      0.3671
    141  OD1       12.7110    7.2380  -23.4550 O.co2 103  ASP103     -0.2456
    142  OD2       14.2650    6.7620  -22.0610 O.co2 103  ASP103     -0.2456
    143  N         11.2100    9.1680  -25.6380 N.3   106  ASN106     -0.1240
    144  CA        11.8720    9.8560  -26.7470 C.3   106  ASN106      0.1653
    145  C         11.0630    9.7320  -28.0470 C.2   106  ASN106      0.2266
    146  O         11.0680   10.6490  -28.8620 O.2   106  ASN106     -0.2867
    147  CB        13.3240    9.3440  -26.9750 C.3   106  ASN106      0.1155
    148  CG        14.1790    9.2630  -25.6910 C.2   106  ASN106      0.2627
    149  OD1       15.2530    8.6500  -25.7010 O.2   106  ASN106     -0.2716
    150  ND2       13.7120    9.8560  -24.5810 N.am  106  ASN106     -0.0877
    151  N         10.6280    4.1660  -20.0320 N.3   145  SER145     -0.1217
    152  CA        12.0770    4.3530  -19.9650 C.3   145  SER145      0.1889
    153  C         12.8640    3.0210  -19.9360 C.2   145  SER145      0.2288
    154  O         14.1070    3.0190  -20.0530 O.2   145  SER145     -0.2866
    155  CB        12.4430    5.2030  -18.7330 C.3   145  SER145      0.2089
    156  OG        12.1040    4.4690  -17.5500 O.3   145  SER145     -0.2183
    157  N         13.4600    0.2430  -24.9010 N.3   148  ALA148     -0.1245
    158  CA        14.4420    0.7800  -25.8040 C.3   148  ALA148      0.1562
    159  C         13.9800    0.5740  -27.2190 C.2   148  ALA148      0.2260
    160  O         13.5620   -0.5480  -27.6160 O.2   148  ALA148     -0.2867
    161  CB        15.7920    0.1010  -25.5860 C.3   148  ALA148      0.0290
    162  N         13.9430   -3.6330  -21.2780 N.3   158  LEU158     -0.1231
    163  CA        15.0780   -3.5620  -20.3920 C.3   158  LEU158      0.1693
    164  C         14.6680   -3.8300  -18.9410 C.2   158  LEU158      0.2592
    165  O         13.5360   -3.6660  -18.5850 O.2   158  LEU158     -0.2718
    166  CB        15.6630   -2.1510  -20.4120 C.3   158  LEU158      0.0284
    167  CG        16.0270   -1.6340  -21.7900 C.3   158  LEU158      0.0019
    168  CD1       16.4930   -0.1990  -21.6710 C.3   158  LEU158      0.0001
    169  CD2       17.1630   -2.4740  -22.2950 C.3   158  LEU158      0.0001
    170  N         15.6490   -4.2420  -18.1420 N.am  159  ASP159     -0.1960
    171  CA        15.6040   -4.2220  -16.6550 C.3   159  ASP159      0.1840
    172  C         14.5130   -5.0620  -15.9930 C.2   159  ASP159      0.2622
    173  O         14.0070   -4.7080  -14.9300 O.2   159  ASP159     -0.2715
    174  CB        15.5420   -2.7710  -16.1330 C.3   159  ASP159      0.1450
    175  CG        16.7550   -1.9350  -16.5270 C.2   159  ASP159      0.3671
    176  OD1       17.8780   -2.4850  -16.6560 O.co2 159  ASP159     -0.2456
    177  OD2       16.5910   -0.6990  -16.7100 O.co2 159  ASP159     -0.2456
    178  N         14.1950   -6.1960  -16.6130 N.am  160  PHE160     -0.1974
    179  CA        13.1510   -7.1500  -16.1160 C.3   160  PHE160      0.1639
    180  C         13.6940   -8.1020  -15.0560 C.2   160  PHE160      0.2290
    181  O         14.8800   -8.4140  -15.0540 O.2   160  PHE160     -0.2864
    182  CB        12.6480   -7.9960  -17.2630 C.3   160  PHE160      0.0560
    183  CG        13.7520   -8.5500  -18.1160 C.ar  160  PHE160     -0.0200
    184  CD1       14.3350   -9.7370  -17.8070 C.ar  160  PHE160     -0.0042
    185  CD2       14.2170   -7.8400  -19.1970 C.ar  160  PHE160     -0.0042
    186  CE1       15.3840  -10.2390  -18.5760 C.ar  160  PHE160     -0.0003
    187  CE2       15.2670   -8.3000  -19.9620 C.ar  160  PHE160     -0.0003
    188  CZ        15.8610   -9.4930  -19.6410 C.ar  160  PHE160     -0.0000
    189  N         14.0430   -7.8910  -11.5990 N.3   162  LEU162     -0.1245
    190  CA        14.8870   -7.3670  -10.5090 C.3   162  LEU162      0.1561
    191  C         14.3440   -7.8060   -9.1470 C.2   162  LEU162      0.2260
    192  O         13.1410   -7.6980   -8.9000 O.2   162  LEU162     -0.2867
    193  CB        14.9390   -5.8280  -10.5610 C.3   162  LEU162      0.0270
    194  CG        15.6350   -5.1490  -11.7470 C.3   162  LEU162      0.0019
    195  CD1       15.4180   -3.6430  -11.6800 C.3   162  LEU162      0.0001
    196  CD2       17.1240   -5.4670  -11.7920 C.3   162  LEU162      0.0001
@<TRIPOS>BOND
     1   108   106   ar
     2   108   109   ar
     3   106   105   ar
     4   109   107   ar
     5   121   120    2
     6   125   124    1
     7   113   112    2
     8   105   107   ar
     9   105   104    1
    10   120   119    1
    11   120   126   am
    12   124   123    1
    13   119   122    1
    14   119   118    1
    15   127   126    1
    16   127   128    1
    17   112   118   am
    18   112   111    1
    19   104   101    1
    20   117   115    1
    21   122   123    1
    22   129   128    2
    23   114   111    1
    24   114   115    1
    25   146   145    2
    26   128   130   am
    27   110   111    1
    28   110   102   am
    29   134   131    1
    30   101   102    1
    31   101   100    1
    32   115   116    1
    33   130   131    1
    34   145   144    1
    35   102   103    2
    36   160   159    2
    37   131   132    1
    38   100    95   am
    39   159   158    1
    40   147   144    1
    41   147   148    1
    42    96    95    2
    43   133   132    2
    44    26    23    1
    45   144   143    1
    46   132   135   am
    47    24    25    2
    48    24    23    1
    49    95    94    1
    50    27    28    1
    51   138   137    2
    52    23    22    1
    53   158   161    1
    54   158   157    1
    55   135   136    1
    56   149   148    2
    57   148   150   am
    58   137   136    1
    59    94    93    1
    60    94    97    1
    61    84    82    1
    62   136   139    1
    63    28    31    1
    64    28    29    1
    65    78    77    1
    66    78    79    1
    67    78    81    1
    68    97    98    1
    69    97    99    1
    70    13    12    1
    71    79    80    2
    72    29    30    2
    73    82    81    1
    74   139   140    1
    75    81    83    1
    76   141   140   ar
    77   140   142   ar
    78    12    14    1
    79    12     9    1
    80     4     3    2
    81     1     7    1
    82     1     2    1
    83   169   167    1
    84     3     8   am
    85     3     2    1
    86     9     8    1
    87     9    10    1
    88    72    71    2
    89     7     6    1
    90   167   168    1
    91   167   166    1
    92     2     5    1
    93    20    19    1
    94   162   163    1
    95    87    88    2
    96    87    86    1
    97    71    70    1
    98    10    11    2
    99    76    74    1
   100    18    17    2
   101     5     6    1
   102    17    16    1
   103   166   163    1
   104   163   164    1
   105    32    33    1
   106   154   153    2
   107   151   152    1
   108   152   153    1
   109   152   155    1
   110   187   188   ar
   111   187   185   ar
   112    86    89    1
   113    86    85    1
   114    19    16    1
   115    19    21    1
   116    70    73    1
   117    70    69    1
   118    73    74    1
   119   188   186   ar
   120    16    15    1
   121    64    63    2
   122    74    75    1
   123    89    90    1
   124   185   183   ar
   125   164   165    2
   126   164   170   am
   127    33    36    1
   128    33    34    1
   129   155   156    1
   130    69    63   am
   131   186   184   ar
   132    36    37    1
   133    63    62    1
   134   170   171    1
   135   183   184   ar
   136   183   182    1
   137    92    90    1
   138    34    35    2
   139    90    91    1
   140   182   179    1
   141    37    38    1
   142    38    39    1
   143    62    65    1
   144    62    61    1
   145   177   175   ar
   146   176   175   ar
   147   171   174    1
   148   171   172    1
   149   178   179    1
   150   178   172   am
   151   175   174    1
   152    55    54    2
   153    65    66    1
   154   179   180    1
   155    59    58   ar
   156   172   173    2
   157    39    40    1
   158    68    66    1
   159    57    58    1
   160    57    56    1
   161    54    53    1
   162    58    60   ar
   163   180   181    2
   164    66    67    1
   165    53    56    1
   166    53    52    1
   167    44    43    2
   168    52    43   am
   169    43    42    1
   170   196   194    1
   171   194   195    1
   172   194   193    1
   173   189   190    1
   174    42    41    1
   175    42    45    1
   176    46    45    1
   177    46    47    1
   178   193   190    1
   179   190   191    1
   180    47    48    1
   181   191   192    2
   182    48    49    2
   183    49    50    1
   184    49    51    1
