@<TRIPOS>MOLECULE
tmp/5tcvA00.pdb
 101 93 0 0 0
SMALL
GASTEIGER

@<TRIPOS>ATOM
      1  N         11.7340   25.3470  137.3450 N.3    31  PHE31      -0.1241
      2  CA        12.0400   23.9480  137.0680 C.3    31  PHE31       0.1605
      3  C         12.9260   23.8990  135.8390 C.2    31  PHE31       0.2264
      4  O         12.7510   24.7000  134.9190 O.2    31  PHE31      -0.2867
      5  CB        10.7600   23.1690  136.7430 C.3    31  PHE31       0.0534
      6  CG        10.1570   22.4370  137.9100 C.ar   31  PHE31      -0.0203
      7  CD1        9.3340   23.0960  138.8190 C.ar   31  PHE31      -0.0042
      8  CD2       10.3730   21.0730  138.0730 C.ar   31  PHE31      -0.0042
      9  CE1        8.7610   22.4140  139.8840 C.ar   31  PHE31      -0.0003
     10  CE2        9.8030   20.3880  139.1350 C.ar   31  PHE31      -0.0003
     11  CZ         8.9960   21.0580  140.0420 C.ar   31  PHE31      -0.0000
     12  N          1.6030   21.1020  145.4630 N.3   175  HIS175     -0.1241
     13  CA         2.4120   21.8150  146.4460 C.3   175  HIS175      0.1621
     14  C          3.5650   22.5510  145.7910 C.2   175  HIS175      0.2264
     15  O          3.9140   22.2860  144.6420 O.2   175  HIS175     -0.2867
     16  CB         2.9890   20.8200  147.4570 C.3   175  HIS175      0.0745
     17  CG         3.9950   19.8820  146.8640 C.ar  175  HIS175      0.0817
     18  ND1        3.6340   18.7800  146.1190 N.ar  175  HIS175     -0.2268
     19  CD2        5.3490   19.8990  146.8780 C.ar  175  HIS175      0.1154
     20  CE1        4.7220   18.1500  145.7130 C.ar  175  HIS175      0.1986
     21  NE2        5.7760   18.8090  146.1590 N.ar  175  HIS175     -0.2212
     22  N          7.6450   23.0390  147.0480 N.3   177  ASP177     -0.1239
     23  CA         8.5920   22.4410  147.9960 C.3   177  ASP177      0.1674
     24  C          9.0680   23.4910  148.9940 C.2   177  ASP177      0.2266
     25  O          9.4340   24.5980  148.6050 O.2   177  ASP177     -0.2867
     26  CB         9.8050   21.8490  147.2700 C.3   177  ASP177      0.1410
     27  CG         9.4400   20.7170  146.3260 C.2   177  ASP177      0.3668
     28  OD1        8.3570   20.1110  146.4640 O.co2 177  ASP177     -0.2456
     29  OD2       10.2560   20.4360  145.4270 O.co2 177  ASP177     -0.2456
     30  N         16.0200   21.0840  144.8450 N.3   182  ILE182     -0.1245
     31  CA        15.5760   19.6920  144.8730 C.3   182  ILE182      0.1561
     32  C         15.9250   19.0410  143.5390 C.2   182  ILE182      0.2260
     33  O         15.5550   19.5520  142.4840 O.2   182  ILE182     -0.2867
     34  CB        14.0550   19.5960  145.1450 C.3   182  ILE182      0.0252
     35  CG1       13.6750   20.3750  146.4230 C.3   182  ILE182      0.0019
     36  CG2       13.6060   18.1420  145.2430 C.3   182  ILE182      0.0019
     37  CD1       13.2470   21.8150  146.1930 C.3   182  ILE182      0.0001
     38  N         15.8530   15.5820  141.2480 N.3   184  LEU184     -0.1245
     39  CA        15.1350   14.3250  141.0490 C.3   184  LEU184      0.1561
     40  C         15.7960   13.4910  139.9640 C.2   184  LEU184      0.2260
     41  O         15.8920   13.9230  138.8160 O.2   184  LEU184     -0.2867
     42  CB        13.6810   14.6020  140.6590 C.3   184  LEU184      0.0270
     43  CG        12.7530   13.3970  140.4440 C.3   184  LEU184      0.0019
     44  CD1       12.5100   12.6590  141.7500 C.3   184  LEU184      0.0001
     45  CD2       11.4380   13.8520  139.8340 C.3   184  LEU184      0.0001
     46  N          5.8400   13.9590  136.1910 N.3   193  LEU193     -0.1245
     47  CA         5.8870   15.1820  136.9830 C.3   193  LEU193      0.1561
     48  C          5.1750   16.2900  136.2120 C.2   193  LEU193      0.2260
     49  O          5.3950   16.4480  135.0100 O.2   193  LEU193     -0.2867
     50  CB         7.3480   15.5530  137.2400 C.3   193  LEU193      0.0270
     51  CG         7.7120   16.7330  138.1460 C.3   193  LEU193      0.0019
     52  CD1        6.9990   16.6790  139.4880 C.3   193  LEU193      0.0001
     53  CD2        9.2220   16.7630  138.3470 C.3   193  LEU193      0.0001
     54  N         16.0290   16.2360  137.0360 N.3   212  VAL212     -0.1245
     55  CA        15.0840   17.3470  137.0700 C.3   212  VAL212      0.1561
     56  C         15.3800   18.1530  138.3200 C.2   212  VAL212      0.2260
     57  O         15.4460   17.5970  139.4100 O.2   212  VAL212     -0.2867
     58  CB        13.6180   16.8720  137.0680 C.3   212  VAL212      0.0252
     59  CG1       12.6680   18.0640  137.0090 C.3   212  VAL212      0.0019
     60  CG2       13.3640   15.9360  135.8930 C.3   212  VAL212      0.0019
     61  N         14.4180   21.6700  140.6620 N.3   214  ASN214     -0.1240
     62  CA        13.4580   22.7270  140.9640 C.3   214  ASN214      0.1653
     63  C         13.8190   23.4700  142.2370 C.2   214  ASN214      0.2266
     64  O         14.5450   22.9510  143.0800 O.2   214  ASN214     -0.2867
     65  CB        12.0310   22.1750  141.0260 C.3   214  ASN214      0.1155
     66  CG        11.7380   21.4050  142.3010 C.2   214  ASN214      0.2627
     67  OD1       12.1100   20.2460  142.4330 O.2   214  ASN214     -0.2716
     68  ND2       11.0370   22.0410  143.2310 N.am  214  ASN214     -0.0877
     69  N          3.4510   22.0370  141.8540 N.3   232  HIS232     -0.1241
     70  CA         3.6820   20.7990  141.1130 C.3   232  HIS232      0.1621
     71  C          3.1740   19.5570  141.8510 C.2   232  HIS232      0.2264
     72  O          2.7740   19.6190  143.0210 O.2   232  HIS232     -0.2867
     73  CB         5.1820   20.6420  140.8110 C.3   232  HIS232      0.0745
     74  CG         6.0330   20.5050  142.0360 C.ar  232  HIS232      0.0817
     75  ND1        6.3840   21.5790  142.8240 N.ar  232  HIS232     -0.2268
     76  CD2        6.5890   19.4160  142.6130 C.ar  232  HIS232      0.1154
     77  CE1        7.1220   21.1570  143.8330 C.ar  232  HIS232      0.1986
     78  NE2        7.2590   19.8480  143.7310 N.ar  232  HIS232     -0.2212
     79  N          3.8380   14.9070  141.4030 N.3   234  VAL234     -0.1245
     80  CA         4.3560   13.7440  140.6670 C.3   234  VAL234      0.1561
     81  C          3.3240   12.6130  140.7280 C.2   234  VAL234      0.2260
     82  O          2.7710   12.3410  141.7910 O.2   234  VAL234     -0.2867
     83  CB         5.7460   13.2900  141.1920 C.3   234  VAL234      0.0252
     84  CG1        5.6620   12.6480  142.5740 C.3   234  VAL234      0.0019
     85  CG2        6.4160   12.3420  140.2040 C.3   234  VAL234      0.0019
     86  N         14.6850   11.3690  145.0840 N.3   246  ALA246     -0.1245
     87  CA        14.4770   12.8010  145.2540 C.3   246  ALA246      0.1562
     88  C         15.4240   13.3260  146.3220 C.2   246  ALA246      0.2260
     89  O         15.1980   13.1130  147.5150 O.2   246  ALA246     -0.2867
     90  CB        13.0320   13.0730  145.6490 C.3   246  ALA246      0.0290
     91  N         17.0120   16.3190  148.3970 N.3   248  PHE248     -0.1241
     92  CA        16.7300   17.6780  148.8670 C.3   248  PHE248      0.1605
     93  C         17.9870   18.2960  149.4660 C.2   248  PHE248      0.2264
     94  O         18.5380   17.7550  150.4170 O.2   248  PHE248     -0.2867
     95  CB        15.6310   17.6610  149.9370 C.3   248  PHE248      0.0534
     96  CG        14.4000   16.8930  149.5410 C.ar  248  PHE248     -0.0203
     97  CD1       13.3760   17.5100  148.8200 C.ar  248  PHE248     -0.0042
     98  CD2       14.2540   15.5530  149.8990 C.ar  248  PHE248     -0.0042
     99  CE1       12.2340   16.8030  148.4580 C.ar  248  PHE248     -0.0003
    100  CE2       13.1130   14.8410  149.5400 C.ar  248  PHE248     -0.0003
    101  CZ        12.1010   15.4670  148.8190 C.ar  248  PHE248     -0.0000
@<TRIPOS>BOND
     1     4     3    2
     2    49    48    2
     3     3     2    1
     4    60    58    1
     5    46    47    1
     6    48    47    1
     7     5     2    1
     8     5     6    1
     9    47    50    1
    10    59    58    1
    11    54    55    1
    12    58    55    1
    13     2     1    1
    14    55    56    1
    15    50    51    1
    16     6     8   ar
    17     6     7   ar
    18     8    10   ar
    19    51    53    1
    20    51    52    1
    21    56    57    2
    22    41    40    2
    23     7     9   ar
    24    10    11   ar
    25    45    43    1
    26     9    11   ar
    27    40    39    1
    28    85    83    1
    29    43    42    1
    30    43    44    1
    31    42    39    1
    32    61    62    1
    33    80    81    1
    34    80    83    1
    35    80    79    1
    36    81    82    2
    37    73    70    1
    38    73    74    1
    39    62    65    1
    40    62    63    1
    41    65    66    1
    42    39    38    1
    43    70    71    1
    44    70    69    1
    45    83    84    1
    46    71    72    2
    47    74    76   ar
    48    74    75   ar
    49    63    64    2
    50    66    67    2
    51    66    68   am
    52    33    32    2
    53    76    78   ar
    54    75    77   ar
    55    32    31    1
    56    78    77   ar
    57    15    14    2
    58    30    31    1
    59    31    34    1
    60    86    87    1
    61    34    36    1
    62    34    35    1
    63    87    90    1
    64    87    88    1
    65    29    27   ar
    66    12    13    1
    67    20    18   ar
    68    20    21   ar
    69    14    13    1
    70    18    17   ar
    71    21    19   ar
    72    37    35    1
    73    88    89    2
    74    27    28   ar
    75    27    26    1
    76    13    16    1
    77    17    19   ar
    78    17    16    1
    79    22    23    1
    80    26    23    1
    81    23    24    1
    82    91    92    1
    83    99   101   ar
    84    99    97   ar
    85    25    24    2
    86   101   100   ar
    87    97    96   ar
    88    92    93    1
    89    92    95    1
    90    93    94    2
    91   100    98   ar
    92    96    98   ar
    93    96    95    1
