@<TRIPOS>MOLECULE
tmp/5tcxA00.pdb
 138 126 0 0 0
SMALL
GASTEIGER

@<TRIPOS>ATOM
      1  N         15.4510   30.4550   31.3200 N.3    13  ASN13      -0.1240
      2  CA        16.8610   30.4880   30.9500 C.3    13  ASN13       0.1653
      3  C         17.4350   29.0920   30.7400 C.2    13  ASN13       0.2266
      4  O         18.3960   28.9340   29.9790 O.2    13  ASN13      -0.2867
      5  CB        17.6720   31.2370   32.0080 C.3    13  ASN13       0.1155
      6  CG        17.5120   32.7420   31.9090 C.2    13  ASN13       0.2627
      7  OD1       16.7220   33.3450   32.6360 O.2    13  ASN13      -0.2716
      8  ND2       18.2630   33.3570   31.0020 N.am   13  ASN13      -0.0877
      9  N         17.1590   28.2660   27.1460 N.3    16  PHE16      -0.1241
     10  CA        18.2470   28.8460   26.3690 C.3    16  PHE16       0.1605
     11  C         19.6050   28.2550   26.7250 C.2    16  PHE16       0.2264
     12  O         20.5500   28.4000   25.9430 O.2    16  PHE16      -0.2867
     13  CB        18.2770   30.3650   26.5500 C.3    16  PHE16       0.0534
     14  CG        17.2050   31.0860   25.7820 C.ar   16  PHE16      -0.0203
     15  CD1       17.3380   31.2980   24.4200 C.ar   16  PHE16      -0.0042
     16  CD2       16.0670   31.5500   26.4200 C.ar   16  PHE16      -0.0042
     17  CE1       16.3550   31.9590   23.7070 C.ar   16  PHE16      -0.0003
     18  CE2       15.0800   32.2130   25.7120 C.ar   16  PHE16      -0.0003
     19  CZ        15.2260   32.4170   24.3540 C.ar   16  PHE16      -0.0000
     20  N         30.2240   32.3970   13.5080 N.3    42  ILE42      -0.1245
     21  CA        29.1820   33.2130   14.1230 C.3    42  ILE42       0.1561
     22  C         28.2170   32.3310   14.9030 C.2    42  ILE42       0.2260
     23  O         27.8250   32.6560   16.0300 O.2    42  ILE42      -0.2867
     24  CB        28.4550   34.0480   13.0520 C.3    42  ILE42       0.0252
     25  CG1       29.4330   35.0120   12.3740 C.3    42  ILE42       0.0019
     26  CG2       27.2910   34.8080   13.6670 C.3    42  ILE42       0.0019
     27  CD1       28.8080   35.8750   11.2980 C.3    42  ILE42       0.0001
     28  N         29.9100   31.3190   18.0960 N.3    45  ALA45      -0.1231
     29  CA        29.8770   32.3830   19.0930 C.3    45  ALA45       0.1694
     30  C         28.4820   32.5340   19.6870 C.2    45  ALA45       0.2591
     31  O         28.3270   32.6510   20.9080 O.2    45  ALA45      -0.2718
     32  CB        30.3490   33.6980   18.4720 C.3    45  ALA45       0.0304
     33  N         27.4530   32.5250   18.8350 N.am   46  VAL46      -0.1980
     34  CA        26.0780   32.6290   19.3190 C.3    46  VAL46       0.1595
     35  C         25.7530   31.4650   20.2460 C.2    46  VAL46       0.2287
     36  O         25.1630   31.6460   21.3190 O.2    46  VAL46      -0.2864
     37  CB        25.0970   32.6980   18.1330 C.3    46  VAL46       0.0276
     38  CG1       23.6600   32.5450   18.6190 C.3    46  VAL46       0.0022
     39  CG2       25.2680   34.0070   17.3770 C.3    46  VAL46       0.0022
     40  N         27.6280   31.9720   23.5790 N.3    49  VAL49      -0.1231
     41  CA        27.1000   33.0600   24.3960 C.3    49  VAL49       0.1692
     42  C         25.7970   32.6380   25.0650 C.2    49  VAL49       0.2591
     43  O         25.6050   32.8420   26.2680 O.2    49  VAL49      -0.2718
     44  CB        26.9150   34.3320   23.5490 C.3    49  VAL49       0.0266
     45  CG1       26.1400   35.3760   24.3300 C.3    49  VAL49       0.0020
     46  CG2       28.2680   34.8880   23.1310 C.3    49  VAL49       0.0020
     47  N         24.8860   32.0320   24.2970 N.am   50  MET50      -0.1979
     48  CA        23.6290   31.5590   24.8680 C.3    50  MET50       0.1605
     49  C         23.8410   30.4880   25.9300 C.2    50  MET50       0.2287
     50  O         22.9950   30.3340   26.8180 O.2    50  MET50      -0.2864
     51  CB        22.7120   31.0120   23.7720 C.3    50  MET50       0.0413
     52  CG        22.2080   32.0520   22.7880 C.3    50  MET50       0.0598
     53  SD        20.8850   31.4170   21.7390 S.3    50  MET50      -0.1393
     54  CE        21.6580   29.9460   21.0710 C.3    50  MET50       0.0692
     55  N         25.5440   32.4850   29.2020 N.3    53  VAL53      -0.1231
     56  CA        24.5270   33.4020   29.7080 C.3    53  VAL53       0.1692
     57  C         23.3120   32.6220   30.1960 C.2    53  VAL53       0.2592
     58  O         22.7710   32.8910   31.2750 O.2    53  VAL53      -0.2718
     59  CB        24.1420   34.4320   28.6310 C.3    53  VAL53       0.0266
     60  CG1       22.9500   35.2600   29.0870 C.3    53  VAL53       0.0020
     61  CG2       25.3250   35.3330   28.3120 C.3    53  VAL53       0.0020
     62  N         22.8690   31.6410   29.4070 N.am   54  GLY54      -0.1957
     63  CA        21.8070   30.7620   29.8630 C.3    54  GLY54       0.1869
     64  C         22.2020   29.9480   31.0780 C.2    54  GLY54       0.2309
     65  O         21.3420   29.5370   31.8610 O.2    54  GLY54      -0.2863
     66  N         25.1010   37.8380   35.6070 N.3    68  PHE68      -0.1241
     67  CA        24.0730   37.6140   34.5960 C.3    68  PHE68       0.1605
     68  C         23.3800   38.9150   34.2160 C.2    68  PHE68       0.2264
     69  O         23.0590   39.1360   33.0430 O.2    68  PHE68      -0.2867
     70  CB        23.0570   36.5850   35.0980 C.3    68  PHE68       0.0534
     71  CG        21.8400   36.4470   34.2220 C.ar   68  PHE68      -0.0203
     72  CD1       21.9640   36.1890   32.8650 C.ar   68  PHE68      -0.0042
     73  CD2       20.5700   36.5590   34.7630 C.ar   68  PHE68      -0.0042
     74  CE1       20.8420   36.0590   32.0630 C.ar   68  PHE68      -0.0003
     75  CE2       19.4470   36.4290   33.9680 C.ar   68  PHE68      -0.0003
     76  CZ        19.5830   36.1790   32.6170 C.ar   68  PHE68      -0.0000
     77  N         23.3600   40.9180   30.4600 N.3    72  LEU72      -0.1245
     78  CA        22.2080   41.4290   29.7270 C.3    72  LEU72       0.1561
     79  C         22.3880   42.8930   29.3440 C.2    72  LEU72       0.2260
     80  O         21.8570   43.3310   28.3170 O.2    72  LEU72      -0.2867
     81  CB        20.9390   41.2470   30.5570 C.3    72  LEU72       0.0270
     82  CG        20.5020   39.8120   30.8580 C.3    72  LEU72       0.0019
     83  CD1       19.3620   39.8050   31.8630 C.3    72  LEU72       0.0001
     84  CD2       20.0960   39.0970   29.5800 C.3    72  LEU72       0.0001
     85  N         24.8990   42.8860   26.4220 N.3    75  LEU75      -0.1245
     86  CA        24.2350   42.3190   25.2530 C.3    75  LEU75       0.1561
     87  C         23.2220   43.2950   24.6710 C.2    75  LEU75       0.2260
     88  O         23.0370   43.3530   23.4500 O.2    75  LEU75      -0.2867
     89  CB        23.5580   40.9990   25.6190 C.3    75  LEU75       0.0270
     90  CG        24.2960   39.6980   25.2960 C.3    75  LEU75       0.0019
     91  CD1       25.7340   39.7300   25.7890 C.3    75  LEU75       0.0001
     92  CD2       23.5510   38.5220   25.9020 C.3    75  LEU75       0.0001
     93  N         23.4080   44.8400   20.9770 N.3    79  GLU79      -0.1245
     94  CA        22.2750   44.7180   20.0650 C.3    79  GLU79       0.1567
     95  C         21.9290   46.0630   19.4390 C.2    79  GLU79       0.2260
     96  O         21.5980   46.1340   18.2500 O.2    79  GLU79      -0.2867
     97  CB        21.0650   44.1400   20.7980 C.3    79  GLU79       0.0388
     98  CG        19.8270   44.0060   19.9240 C.3    79  GLU79       0.1160
     99  CD        18.5860   43.6410   20.7120 C.2    79  GLU79       0.3649
    100  OE1       18.7210   43.1800   21.8650 O.co2  79  GLU79      -0.2457
    101  OE2       17.4720   43.8230   20.1780 O.co2  79  GLU79      -0.2457
    102  N         24.7070   46.5150   16.9400 N.3    82  ALA82      -0.1245
    103  CA        24.4360   45.6260   15.8160 C.3    82  ALA82       0.1562
    104  C         23.1210   45.9570   15.1230 C.2    82  ALA82       0.2260
    105  O         22.9380   45.5850   13.9600 O.2    82  ALA82      -0.2867
    106  CB        24.4230   44.1690   16.2820 C.3    82  ALA82       0.0290
    107  N         13.8490   40.1620   21.0020 N.3   186  VAL186     -0.1245
    108  CA        15.0390   39.9240   21.8120 C.3   186  VAL186      0.1561
    109  C         15.3010   41.1090   22.7330 C.2   186  VAL186      0.2260
    110  O         15.8170   40.9410   23.8450 O.2   186  VAL186     -0.2867
    111  CB        16.2490   39.6230   20.9070 C.3   186  VAL186      0.0252
    112  CG1       17.5040   39.3980   21.7380 C.3   186  VAL186      0.0019
    113  CG2       15.9690   38.4090   20.0360 C.3   186  VAL186      0.0019
    114  N         12.6800   40.8850   25.7430 N.3   189  ILE189     -0.1231
    115  CA        12.9620   39.8070   26.6850 C.3   189  ILE189      0.1692
    116  C         14.2420   40.0660   27.4670 C.2   189  ILE189      0.2591
    117  O         14.4280   39.4880   28.5440 O.2   189  ILE189     -0.2718
    118  CB        13.0490   38.4400   25.9850 C.3   189  ILE189      0.0266
    119  CG1       14.2300   38.4030   25.0140 C.3   189  ILE189      0.0019
    120  CG2       11.7410   38.1190   25.2740 C.3   189  ILE189      0.0020
    121  CD1       14.4080   37.0700   24.3200 C.3   189  ILE189      0.0001
    122  N         15.1320   40.9200   26.9550 N.am  190  MET190     -0.1979
    123  CA        16.3070   41.3100   27.7260 C.3   190  MET190      0.1605
    124  C         15.9230   42.2520   28.8600 C.2   190  MET190      0.2287
    125  O         16.2910   42.0270   30.0180 O.2   190  MET190     -0.2864
    126  CB        17.3500   41.9580   26.8150 C.3   190  MET190      0.0413
    127  CG        18.1670   40.9750   25.9890 C.3   190  MET190      0.0598
    128  SD        19.4140   41.8080   24.9850 S.3   190  MET190     -0.1393
    129  CE        20.1820   40.4200   24.1560 C.3   190  MET190      0.0692
    130  N         14.0390   40.3330   31.4550 N.3   193  GLU193     -0.1245
    131  CA        14.9250   39.5670   32.3230 C.3   193  GLU193      0.1567
    132  C         15.7940   40.4780   33.1810 C.2   193  GLU193      0.2260
    133  O         16.1710   40.0980   34.2950 O.2   193  GLU193     -0.2867
    134  CB        15.8000   38.6280   31.4940 C.3   193  GLU193      0.0388
    135  CG        15.0710   37.4060   30.9570 C.3   193  GLU193      0.1160
    136  CD        15.9770   36.5010   30.1450 C.2   193  GLU193      0.3649
    137  OE1       16.9930   36.9960   29.6140 O.co2 193  GLU193     -0.2457
    138  OE2       15.6760   35.2940   30.0420 O.co2 193  GLU193     -0.2457
@<TRIPOS>BOND
     1    27    25    1
     2    25    24    1
     3    24    26    1
     4    24    21    1
     5    20    21    1
     6   105   104    2
     7    21    22    1
     8    22    23    2
     9   104   103    1
    10   103   106    1
    11   103   102    1
    12    39    37    1
    13    28    29    1
    14    37    38    1
    15    37    34    1
    16    96    95    2
    17    32    29    1
    18    33    34    1
    19    33    30   am
    20    29    30    1
    21    34    35    1
    22    95    94    1
    23    30    31    2
    24    98    99    1
    25    98    97    1
    26   113   111    1
    27    94    97    1
    28    94    93    1
    29   101    99   ar
    30    35    36    2
    31    99   100   ar
    32   111   112    1
    33   111   108    1
    34   107   108    1
    35    54    53    1
    36    53    52    1
    37   108   109    1
    38   109   110    2
    39    52    51    1
    40    46    44    1
    41    88    87    2
    42    44    45    1
    43    44    41    1
    44    40    41    1
    45    17    19   ar
    46    17    15   ar
    47    51    48    1
    48   129   128    1
    49    47    48    1
    50    47    42   am
    51   121   119    1
    52    19    18   ar
    53    41    42    1
    54    15    14   ar
    55    87    86    1
    56    48    49    1
    57   128   127    1
    58   119   118    1
    59    42    43    2
    60    86    89    1
    61    86    85    1
    62   120   118    1
    63    90    89    1
    64    90    91    1
    65    90    92    1
    66    18    16   ar
    67   114   115    1
    68    14    16   ar
    69    14    13    1
    70    49    50    2
    71    12    11    2
    72   118   115    1
    73   127   126    1
    74    10    13    1
    75    10    11    1
    76    10     9    1
    77   115   116    1
    78   126   123    1
    79   122   116   am
    80   122   123    1
    81   116   117    2
    82   123   124    1
    83    61    59    1
    84    80    79    2
    85    59    60    1
    86    59    56    1
    87   124   125    2
    88    55    56    1
    89    79    78    1
    90    62    63    1
    91    62    57   am
    92    84    82    1
    93   137   136   ar
    94    56    57    1
    95    78    77    1
    96    78    81    1
    97    63    64    1
    98     4     3    2
    99   138   136   ar
   100   136   135    1
   101    57    58    2
   102    81    82    1
   103     3     2    1
   104    82    83    1
   105     2     1    1
   106     2     5    1
   107   135   134    1
   108     8     6   am
   109    64    65    2
   110   130   131    1
   111   134   131    1
   112     6     5    1
   113     6     7    2
   114    74    76   ar
   115    74    72   ar
   116   131   132    1
   117    76    75   ar
   118    72    71   ar
   119    69    68    2
   120   132   133    2
   121    75    73   ar
   122    68    67    1
   123    71    73   ar
   124    71    70    1
   125    67    70    1
   126    67    66    1
