@<TRIPOS>MOLECULE
tmp/5tcyC00.pdb
 104 95 0 0 0
SMALL
GASTEIGER

@<TRIPOS>ATOM
      1  N         25.2270   22.8660    6.9620 N.3    76  GLN76      -0.1245
      2  CA        25.7890   22.4930    8.2590 C.3    76  GLN76       0.1566
      3  C         24.7050   21.9630    9.2190 C.2    76  GLN76       0.2260
      4  O         25.0500   21.4580   10.2770 O.2    76  GLN76      -0.2867
      5  CB        26.4420   23.7180    8.9160 C.3    76  GLN76       0.0367
      6  CG        27.6490   24.2390    8.1650 C.3    76  GLN76       0.0905
      7  CD        28.9300   23.4600    8.4730 C.2    76  GLN76       0.2608
      8  OE1       28.9330   22.3540    9.0750 O.2    76  GLN76      -0.2717
      9  NE2       30.0320   24.0180    8.0190 N.am   76  GLN76      -0.0878
     10  N         32.8930   18.4410    1.7150 N.3    95  GLY95      -0.1210
     11  CA        33.6190   18.4860    3.0280 C.3    95  GLY95       0.1956
     12  C         32.7800   19.0230    4.1920 C.2    95  GLY95       0.2611
     13  O         32.8680   18.5150    5.2800 O.2    95  GLY95      -0.2717
     14  N         31.9250   20.0010    3.9340 N.am   96  ARG96      -0.1979
     15  CA        30.9920   20.5160    4.9420 C.3    96  ARG96       0.1597
     16  C         30.1250   19.4800    5.6480 C.2    96  ARG96       0.2287
     17  O         29.7710   19.6930    6.8330 O.2    96  ARG96      -0.2864
     18  CB        30.1220   21.6500    4.3460 C.3    96  ARG96       0.0334
     19  CG        29.9310   22.8010    5.2910 C.3    96  ARG96       0.0492
     20  CD        29.1060   24.0030    4.7980 C.3    96  ARG96       0.2205
     21  NE        29.8840   25.2430    4.9670 N.pl3  96  ARG96      -0.0865
     22  CZ        30.8520   25.6540    4.1310 C.cat  96  ARG96       0.5346
     23  NH1       31.1300   24.9990    3.0000 N.pl3  96  ARG96       0.1354
     24  NH2       31.5620   26.7230    4.4230 N.pl3  96  ARG96       0.1354
     25  N         31.3150   15.4090    8.4240 N.3    99  LYS99      -0.1245
     26  CA        30.9100   15.1220    9.7980 C.3    99  LYS99       0.1561
     27  C         29.6280   14.2750    9.8540 C.2    99  LYS99       0.2260
     28  O         29.3750   13.6480   10.8430 O.2    99  LYS99      -0.2867
     29  CB        30.7000   16.4300   10.5860 C.3    99  LYS99       0.0271
     30  CG        29.5330   17.2570   10.0350 C.3    99  LYS99       0.0035
     31  CD        29.2790   18.6220   10.6660 C.3    99  LYS99       0.0206
     32  CE        30.2940   19.6660   10.2560 C.3    99  LYS99       0.1093
     33  NZ        31.4580   19.5670   11.1630 N.3    99  LYS99      -0.1314
     34  N         39.2300   36.3090    5.4200 N.3   169  LEU169     -0.1245
     35  CA        37.8830   35.9220    5.7900 C.3   169  LEU169      0.1561
     36  C         37.5590   36.6260    7.0880 C.2   169  LEU169      0.2260
     37  O         38.4050   36.6830    7.9640 O.2   169  LEU169     -0.2867
     38  CB        37.7630   34.4180    5.9400 C.3   169  LEU169      0.0270
     39  CG        36.3950   33.8730    6.3470 C.3   169  LEU169      0.0019
     40  CD1       36.1720   32.5540    5.6920 C.3   169  LEU169      0.0001
     41  CD2       36.1720   33.7480    7.8610 C.3   169  LEU169      0.0001
     42  N         34.9870   36.7670   10.3770 N.3   171  ASN171     -0.1240
     43  CA        34.0720   36.0270   11.2250 C.3   171  ASN171      0.1653
     44  C         34.0180   36.7410   12.5800 C.2   171  ASN171      0.2266
     45  O         35.0510   36.9490   13.2350 O.2   171  ASN171     -0.2867
     46  CB        34.5340   34.5920   11.4590 C.3   171  ASN171      0.1155
     47  CG        33.5470   33.8300   12.3020 C.2   171  ASN171      0.2627
     48  OD1       32.3650   33.7690   11.9740 O.2   171  ASN171     -0.2716
     49  ND2       34.0090   33.2840   13.4060 N.am  171  ASN171     -0.0877
     50  N         41.0530   36.5090    9.3360 N.3   176  SER176     -0.1217
     51  CA        42.0080   35.4520    9.0700 C.3   176  SER176      0.1889
     52  C         42.4540   35.5120    7.6650 C.2   176  SER176      0.2288
     53  O         41.6760   35.8870    6.7970 O.2   176  SER176     -0.2866
     54  CB        41.4640   34.0770    9.4100 C.3   176  SER176      0.2089
     55  OG        40.1610   33.8780    8.9550 O.3   176  SER176     -0.2183
     56  N         41.7900   27.0590    1.1580 N.3   183  ARG183     -0.1245
     57  CA        40.4040   26.9620    0.6440 C.3   183  ARG183      0.1563
     58  C         39.9600   28.0500   -0.3740 C.2   183  ARG183      0.2260
     59  O         38.9930   27.8550   -1.0790 O.2   183  ARG183     -0.2867
     60  CB        39.4260   26.9140    1.8080 C.3   183  ARG183      0.0307
     61  CG        39.1380   28.2800    2.3660 C.3   183  ARG183      0.0489
     62  CD        38.4170   28.2120    3.6730 C.3   183  ARG183      0.2205
     63  NE        37.0120   27.8780    3.5380 N.pl3 183  ARG183     -0.0865
     64  CZ        36.1800   27.9020    4.5550 C.cat 183  ARG183      0.5346
     65  NH1       36.6270   28.2000    5.8010 N.pl3 183  ARG183      0.1354
     66  NH2       34.9160   27.6610    4.3500 N.pl3 183  ARG183      0.1354
     67  N         41.6540   25.1630    6.9340 N.3   204  THR204     -0.1203
     68  CA        40.3150   25.7420    6.7580 C.3   204  THR204      0.1994
     69  C         40.0120   27.0060    7.5210 C.2   204  THR204      0.2617
     70  O         39.1060   27.7110    7.1100 O.2   204  THR204     -0.2717
     71  CB        39.2200   24.7730    7.2600 C.3   204  THR204      0.1784
     72  OG1       39.3240   23.5730    6.4890 O.3   204  THR204     -0.2211
     73  CG2       37.8250   25.2860    7.1720 C.3   204  THR204      0.0376
     74  N         40.6900   27.2310    8.6640 N.am  205  LEU205     -0.1979
     75  CA        40.3360   28.3320    9.5900 C.3   205  LEU205      0.1596
     76  C         41.0920   29.6330    9.2470 C.2   205  LEU205      0.2287
     77  O         40.5470   30.7430    9.5320 O.2   205  LEU205     -0.2864
     78  CB        40.5080   27.9290   11.1000 C.3   205  LEU205      0.0297
     79  CG        39.2740   27.5290   11.9650 C.3   205  LEU205      0.0022
     80  CD1       37.9850   27.1950   11.2080 C.3   205  LEU205      0.0001
     81  CD2       39.6340   26.3900   12.9150 C.3   205  LEU205      0.0001
     82  N         32.0530   35.5580    6.2290 N.3   227  ARG227     -0.1245
     83  CA        31.2130   34.5000    6.8270 C.3   227  ARG227      0.1563
     84  C         30.0090   35.0360    7.5630 C.2   227  ARG227      0.2260
     85  O         28.9720   34.3440    7.6580 O.2   227  ARG227     -0.2867
     86  CB        32.1020   33.7000    7.8250 C.3   227  ARG227      0.0307
     87  CG        31.4020   32.5760    8.5430 C.3   227  ARG227      0.0489
     88  CD        32.4190   31.6770    9.3500 C.3   227  ARG227      0.2205
     89  NE        31.7170   30.4850    9.7840 N.pl3 227  ARG227     -0.0865
     90  CZ        31.0670   30.3530   10.9410 C.cat 227  ARG227      0.5346
     91  NH1       30.4420   29.2320   11.2200 N.pl3 227  ARG227      0.1354
     92  NH2       31.0640   31.3360   11.8180 N.pl3 227  ARG227      0.1354
     93  N         32.0380   31.1940    0.4200 N.3   266  TYR266     -0.1241
     94  CA        32.0480   30.5040    1.7150 C.3   266  TYR266      0.1605
     95  C         31.2760   29.2060    1.6020 C.2   266  TYR266      0.2264
     96  O         31.7230   28.1830    2.1220 O.2   266  TYR266     -0.2867
     97  CB        31.4870   31.3760    2.8420 C.3   266  TYR266      0.0534
     98  CG        31.5590   30.7210    4.1560 C.ar  266  TYR266     -0.0201
     99  CD1       32.7700   30.6950    4.8700 C.ar  266  TYR266     -0.0009
    100  CD2       30.4640   30.0330    4.6670 C.ar  266  TYR266     -0.0009
    101  CE1       32.8500   30.0060    6.0930 C.ar  266  TYR266      0.0417
    102  CE2       30.5420   29.3780    5.8980 C.ar  266  TYR266      0.0417
    103  CZ        31.7400   29.3510    6.5840 C.ar  266  TYR266      0.1957
    104  OH        31.8030   28.6820    7.7980 O.3   266  TYR266     -0.2866
@<TRIPOS>BOND
     1    59    58    2
     2    58    57    1
     3    93    94    1
     4    57    56    1
     5    57    60    1
     6    95    94    1
     7    95    96    2
     8    94    97    1
     9    10    11    1
    10    60    61    1
    11    61    62    1
    12    97    98    1
    13    23    22    1
    14    11    12    1
    15    63    62    1
    16    63    64    2
    17    14    12   am
    18    14    15    1
    19    22    24    1
    20    22    21    2
    21    98   100   ar
    22    98    99   ar
    23    12    13    2
    24    18    15    1
    25    18    19    1
    26    66    64    1
    27    64    65    1
    28   100   102   ar
    29    20    21    1
    30    20    19    1
    31    99   101   ar
    32    15    16    1
    33    34    35    1
    34    16    17    2
    35    40    39    1
    36    35    38    1
    37    35    36    1
    38   102   103   ar
    39    38    39    1
    40   101   103   ar
    41    82    83    1
    42    39    41    1
    43    72    71    1
    44   103   104    1
    45    68    67    1
    46    68    71    1
    47    68    69    1
    48    53    52    2
    49    83    84    1
    50    83    86    1
    51     1     2    1
    52    36    37    2
    53    70    69    2
    54    73    71    1
    55    69    74   am
    56    84    85    2
    57    52    51    1
    58    86    87    1
    59     9     7   am
    60     6     7    1
    61     6     5    1
    62     2     5    1
    63     2     3    1
    64    25    26    1
    65     7     8    2
    66    87    88    1
    67    74    75    1
    68    55    54    1
    69    51    50    1
    70    51    54    1
    71     3     4    2
    72    76    77    2
    73    76    75    1
    74    88    89    1
    75    75    78    1
    76    89    90    2
    77    26    27    1
    78    26    29    1
    79    27    28    2
    80    30    29    1
    81    30    31    1
    82    32    31    1
    83    32    33    1
    84    42    43    1
    85    90    91    1
    86    90    92    1
    87    78    79    1
    88    80    79    1
    89    43    46    1
    90    43    44    1
    91    46    47    1
    92    79    81    1
    93    48    47    2
    94    47    49   am
    95    44    45    2
