@<TRIPOS>MOLECULE
tmp/5td2A00.pdb
 173 167 0 0 0
SMALL
GASTEIGER

@<TRIPOS>ATOM
      1  N         12.4780   16.3180    9.6140 N.3    17  LEU17      -0.1231
      2  CA        13.6520   15.8700   10.3710 C.3    17  LEU17       0.1693
      3  C         13.4090   14.5150   11.0170 C.2    17  LEU17       0.2593
      4  O         14.2910   13.6570   11.0210 O.2    17  LEU17      -0.2718
      5  CB        14.0120   16.9000   11.4420 C.3    17  LEU17       0.0284
      6  CG        14.3510   18.2870   10.9020 C.3    17  LEU17       0.0019
      7  CD1       14.5460   19.2620   12.0410 C.3    17  LEU17       0.0001
      8  CD2       15.5830   18.2340   10.0120 C.3    17  LEU17       0.0001
      9  N         12.2240   14.3360   11.5870 N.am   18  GLY18      -0.1942
     10  CA        11.8220   13.0490   12.1460 C.3    18  GLY18       0.2014
     11  C         10.3340   13.0200   12.4240 C.2    18  GLY18       0.2639
     12  O          9.6190   13.9650   12.0880 O.2    18  GLY18      -0.2714
     13  N          9.8770   11.9330   13.0400 N.am   19  GLU19      -0.1963
     14  CA         8.4740   11.7600   13.4030 C.3    19  GLU19       0.1733
     15  C          8.3290   11.6580   14.9110 C.2    19  GLU19       0.2616
     16  O          8.8860   10.7480   15.5280 O.2    19  GLU19      -0.2715
     17  CB         7.9040   10.4990   12.7480 C.3    19  GLU19       0.0429
     18  CG         7.7460   10.5880   11.2340 C.3    19  GLU19       0.1163
     19  CD         6.8030   11.6950   10.7890 C.2    19  GLU19       0.3649
     20  OE1        5.8240   11.9970   11.5130 O.co2  19  GLU19      -0.2457
     21  OE2        7.0460   12.2660    9.7070 O.co2  19  GLU19      -0.2457
     22  N          7.5910   12.6040   15.4920 N.am   20  GLY20      -0.1955
     23  CA         7.2020   12.5520   16.8920 C.3    20  GLY20       0.1869
     24  C          5.9290   11.7500   17.0750 C.2    20  GLY20       0.2309
     25  O          5.4420   11.1050   16.1410 O.2    20  GLY20      -0.2863
     26  N          8.2210   16.2060   12.9040 N.3    25  VAL25      -0.1245
     27  CA         9.1180   17.2800   13.3100 C.3    25  VAL25       0.1561
     28  C          9.7840   17.8000   12.0380 C.2    25  VAL25       0.2260
     29  O         10.4440   17.0430   11.3170 O.2    25  VAL25      -0.2867
     30  CB        10.1820   16.8050   14.3270 C.3    25  VAL25       0.0252
     31  CG1       11.0460   17.9740   14.7980 C.3    25  VAL25       0.0019
     32  CG2        9.5080   16.1160   15.5120 C.3    25  VAL25       0.0019
     33  N         13.7310   23.6180   15.0070 N.3    41  ALA41      -0.1245
     34  CA        12.9450   22.4060   14.8200 C.3    41  ALA41       0.1562
     35  C         11.5180   22.7000   15.2640 C.2    41  ALA41       0.2260
     36  O         11.3110   23.3670   16.2810 O.2    41  ALA41      -0.2867
     37  CB        13.5290   21.2690   15.6370 C.3    41  ALA41       0.0290
     38  N          7.9470   20.7460   16.0360 N.3    43  LYS43      -0.1245
     39  CA         6.9880   19.6340   16.2130 C.3    43  LYS43       0.1561
     40  C          5.5750   20.0840   15.8860 C.2    43  LYS43       0.2260
     41  O          5.1360   21.0990   16.4130 O.2    43  LYS43      -0.2867
     42  CB         6.9290   19.1020   17.6480 C.3    43  LYS43       0.0271
     43  CG         8.1950   18.6260   18.2900 C.3    43  LYS43       0.0035
     44  CD         7.8630   17.5920   19.3550 C.3    43  LYS43       0.0206
     45  CE         9.0810   17.1930   20.1610 C.3    43  LYS43       0.1093
     46  NZ         8.7030   16.7990   21.5450 N.3    43  LYS43      -0.1314
     47  N         16.3790   20.6580   27.0640 N.3    58  MET58      -0.1245
     48  CA        15.8650   21.4170   25.9350 C.3    58  MET58       0.1570
     49  C         14.8970   22.4990   26.4090 C.2    58  MET58       0.2261
     50  O         14.0500   22.2560   27.2780 O.2    58  MET58      -0.2867
     51  CB        15.1730   20.5050   24.9240 C.3    58  MET58       0.0387
     52  CG        14.7050   21.2410   23.6800 C.3    58  MET58       0.0595
     53  SD        14.4110   20.1570   22.2770 S.3    58  MET58      -0.1393
     54  CE        16.0960   19.8530   21.7470 C.3    58  MET58       0.0692
     55  N         11.3310   24.4550   18.8020 N.3    74  LEU74      -0.1231
     56  CA        12.4540   24.0080   19.6380 C.3    74  LEU74       0.1678
     57  C         13.7790   24.3250   18.9330 C.2    74  LEU74       0.2434
     58  O         13.7890   24.5430   17.7220 O.2    74  LEU74      -0.2733
     59  CB        12.3370   22.5060   19.8710 C.3    74  LEU74       0.0284
     60  CG        11.0160   21.9980   20.4580 C.3    74  LEU74       0.0019
     61  CD1       10.9530   20.4800   20.3990 C.3    74  LEU74       0.0001
     62  CD2       10.8380   22.4920   21.8830 C.3    74  LEU74       0.0001
     63  N         14.9060   24.3370   19.6730 N.am   75  PRO75      -0.2718
     64  CA        16.2040   24.5820   19.0260 C.3    75  PRO75       0.1535
     65  C         16.6240   23.4420   18.0990 C.2    75  PRO75       0.2599
     66  O         16.3540   22.2820   18.3990 O.2    75  PRO75      -0.2715
     67  CB        17.1910   24.6680   20.2040 C.3    75  PRO75       0.0310
     68  CG        16.3670   24.6790   21.4420 C.3    75  PRO75       0.0237
     69  CD        15.0670   24.0350   21.1030 C.3    75  PRO75       0.0939
     70  N         17.2970   23.7800   17.0020 N.am   76  PHE76      -0.1960
     71  CA        17.8330   22.7850   16.0770 C.3    76  PHE76       0.1771
     72  C         19.0530   22.0590   16.6500 C.2    76  PHE76       0.2619
     73  O         20.0690   22.6790   16.9700 O.2    76  PHE76      -0.2715
     74  CB        18.2090   23.4320   14.7510 C.3    76  PHE76       0.0574
     75  CG        18.5320   22.4450   13.6650 C.ar   76  PHE76      -0.0200
     76  CD1       17.5070   21.8330   12.9410 C.ar   76  PHE76      -0.0042
     77  CD2       19.8560   22.1340   13.3460 C.ar   76  PHE76      -0.0042
     78  CE1       17.7980   20.9310   11.9280 C.ar   76  PHE76      -0.0003
     79  CE2       20.1460   21.2310   12.3320 C.ar   76  PHE76      -0.0003
     80  CZ        19.1210   20.6260   11.6260 C.ar   76  PHE76      -0.0000
     81  N         18.9300   20.7380   16.7390 N.am   77  MET77      -0.1963
     82  CA        19.9680   19.8400   17.2190 C.3    77  MET77       0.1736
     83  C         20.6180   19.1750   16.0050 C.2    77  MET77       0.2616
     84  O         20.0480   18.2360   15.4410 O.2    77  MET77      -0.2715
     85  CB        19.3230   18.7810   18.1170 C.3    77  MET77       0.0427
     86  CG        18.5500   19.3390   19.2960 C.3    77  MET77       0.0599
     87  SD        19.6450   20.0150   20.5550 S.3    77  MET77      -0.1393
     88  CE        19.7980   21.7210   20.0160 C.3    77  MET77       0.0692
     89  N         21.8010   19.6430   15.6030 N.am   78  LYS78      -0.1963
     90  CA        22.3320   19.2920   14.2670 C.3    78  LYS78       0.1728
     91  C         22.7960   17.8470   14.1110 C.2    78  LYS78       0.2616
     92  O         22.7990   17.3310   12.9910 O.2    78  LYS78      -0.2715
     93  CB        23.3920   20.3030   13.7580 C.3    78  LYS78       0.0311
     94  CG        24.8350   19.8350   13.5650 C.3    78  LYS78       0.0038
     95  CD        25.6650   20.9860   13.0070 C.3    78  LYS78       0.0206
     96  CE        27.0550   20.5630   12.5530 C.3    78  LYS78       0.1093
     97  NZ        28.0700   20.6110   13.6400 N.3    78  LYS78      -0.1314
     98  N         23.1740   17.1990   15.2100 N.am   79  TYR79      -0.1960
     99  CA        23.5170   15.7660   15.1700 C.3    79  TYR79       0.1771
    100  C         22.3580   14.8240   15.5080 C.2    79  TYR79       0.2620
    101  O         22.5410   13.6080   15.5050 O.2    79  TYR79      -0.2715
    102  CB        24.6950   15.4880   16.0830 C.3    79  TYR79       0.0574
    103  CG        25.9350   16.2650   15.7260 C.ar   79  TYR79      -0.0198
    104  CD1       26.5650   16.0860   14.4960 C.ar   79  TYR79      -0.0009
    105  CD2       26.4960   17.1630   16.6250 C.ar   79  TYR79      -0.0009
    106  CE1       27.7120   16.7920   14.1700 C.ar   79  TYR79       0.0417
    107  CE2       27.6390   17.8700   16.3070 C.ar   79  TYR79       0.0417
    108  CZ        28.2450   17.6760   15.0850 C.ar   79  TYR79       0.1957
    109  OH        29.3870   18.3730   14.7900 O.3    79  TYR79      -0.2866
    110  N         21.1810   15.3730   15.7980 N.am   80  GLY80      -0.1940
    111  CA        19.9750   14.5740   15.9810 C.3    80  GLY80       0.2014
    112  C         19.9470   13.8360   17.3020 C.2    80  GLY80       0.2638
    113  O         20.6330   14.2140   18.2460 O.2    80  GLY80      -0.2714
    114  N         19.1520   12.7700   17.3620 N.am   81  ASP81      -0.1971
    115  CA        19.0520   11.9640   18.5780 C.3    81  ASP81       0.1709
    116  C         20.3580   11.2090   18.8310 C.2    81  ASP81       0.2293
    117  O         21.1210   10.9370   17.8970 O.2    81  ASP81      -0.2864
    118  CB        17.8750   10.9900   18.5190 C.3    81  ASP81       0.1436
    119  CG        18.0580    9.9040   17.4740 C.2    81  ASP81       0.3671
    120  OD1       17.7030   10.1360   16.2970 O.co2  81  ASP81      -0.2456
    121  OD2       18.5500    8.8150   17.8390 O.co2  81  ASP81      -0.2456
    122  N         25.6440    5.4090   13.9300 N.3    88  TYR88      -0.1241
    123  CA        26.5510    5.9320   12.8960 C.3    88  TYR88       0.1605
    124  C         28.0280    5.8930   13.2870 C.2    88  TYR88       0.2264
    125  O         28.8740    5.7090   12.4250 O.2    88  TYR88      -0.2867
    126  CB        26.2000    7.3750   12.5090 C.3    88  TYR88       0.0534
    127  CG        24.8900    7.5870   11.7680 C.ar   88  TYR88      -0.0201
    128  CD1       24.3760    6.6270   10.8890 C.ar   88  TYR88      -0.0009
    129  CD2       24.1850    8.7910   11.9100 C.ar   88  TYR88      -0.0009
    130  CE1       23.1910    6.8470   10.2060 C.ar   88  TYR88       0.0417
    131  CE2       22.9970    9.0210   11.2230 C.ar   88  TYR88       0.0417
    132  CZ        22.5010    8.0460   10.3730 C.ar   88  TYR88       0.1957
    133  OH        21.3260    8.2630    9.6860 O.3    88  TYR88      -0.2866
    134  N         17.2870    7.6470   22.3280 N.3   130  ARG130     -0.1231
    135  CA        16.5200    8.2550   21.2310 C.3   130  ARG130      0.1694
    136  C         15.8880    9.6020   21.6130 C.2   130  ARG130      0.2592
    137  O         15.6500   10.4370   20.7400 O.2   130  ARG130     -0.2718
    138  CB        15.4300    7.3010   20.7260 C.3   130  ARG130      0.0321
    139  CG        14.3030    7.0420   21.7180 C.3   130  ARG130      0.0489
    140  CD        13.1620    6.2520   21.1060 C.3   130  ARG130      0.2205
    141  NE        12.0330    6.2210   22.0310 N.pl3 130  ARG130     -0.0865
    142  CZ        11.9370    5.4340   23.1050 C.cat 130  ARG130      0.5346
    143  NH1       12.8970    4.5570   23.4280 N.pl3 130  ARG130      0.1354
    144  NH2       10.8550    5.5180   23.8720 N.pl3 130  ARG130      0.1354
    145  N         15.5920    9.7830   22.9030 N.am  131  ASN131     -0.1974
    146  CA        15.0390   11.0360   23.4350 C.3   131  ASN131      0.1688
    147  C         16.0830   12.0400   23.9380 C.2   131  ASN131      0.2292
    148  O         15.7180   13.0980   24.4410 O.2   131  ASN131     -0.2864
    149  CB        14.0170   10.7420   24.5450 C.3   131  ASN131      0.1181
    150  CG        12.7430   10.1020   24.0150 C.2   131  ASN131      0.2629
    151  OD1       12.2140   10.5100   22.9810 O.2   131  ASN131     -0.2716
    152  ND2       12.2390    9.0980   24.7240 N.am  131  ASN131     -0.0877
    153  N         19.0950   14.5270   22.7030 N.3   133  MET133     -0.1245
    154  CA        19.4660   15.2060   21.4620 C.3   133  MET133      0.1570
    155  C         20.8560   15.8280   21.5610 C.2   133  MET133      0.2261
    156  O         21.3680   16.0530   22.6510 O.2   133  MET133     -0.2867
    157  CB        18.4320   16.2870   21.1340 C.3   133  MET133      0.0387
    158  CG        16.9810   15.8070   21.0660 C.3   133  MET133      0.0595
    159  SD        16.6140   14.6390   19.7310 S.3   133  MET133     -0.1393
    160  CE        16.9370   15.6340   18.2790 C.3   133  MET133      0.0692
    161  N         15.2040   15.5600   26.2480 N.3   143  ALA143     -0.1231
    162  CA        14.0500   16.0780   25.5110 C.3   143  ALA143      0.1694
    163  C         12.8650   15.1160   25.6170 C.2   143  ALA143      0.2592
    164  O         13.0010   14.0300   26.1770 O.2   143  ALA143     -0.2718
    165  CB        14.4350   16.2960   24.0570 C.3   143  ALA143      0.0304
    166  N         11.7180   15.5350   25.0810 N.am  144  ASP144     -0.1974
    167  CA        10.4770   14.7300   25.0290 C.3   144  ASP144      0.1709
    168  C          9.8580   14.4310   26.3950 C.2   144  ASP144      0.2293
    169  O         10.0120   13.3320   26.9500 O.2   144  ASP144     -0.2864
    170  CB        10.6780   13.4340   24.2240 C.3   144  ASP144      0.1436
    171  CG         9.3720   12.7030   23.9600 C.2   144  ASP144      0.3671
    172  OD1        8.4210   13.3370   23.4620 O.co2 144  ASP144     -0.2456
    173  OD2        9.2890   11.4970   24.2630 O.co2 144  ASP144     -0.2456
@<TRIPOS>BOND
     1     1     2    1
     2   133   132    1
     3    21    19   ar
     4     8     6    1
     5   130   132   ar
     6   130   128   ar
     7     2     3    1
     8     2     5    1
     9   132   131   ar
    10    19    18    1
    11    19    20   ar
    12   128   127   ar
    13     6     5    1
    14     6     7    1
    15     3     4    2
    16     3     9   am
    17   131   129   ar
    18    18    17    1
    19    29    28    2
    20     9    10    1
    21    80    78   ar
    22    80    79   ar
    23   127   129   ar
    24   127   126    1
    25    78    76   ar
    26    28    27    1
    27    12    11    2
    28    10    11    1
    29    79    77   ar
    30    11    13   am
    31   125   124    2
    32   126   123    1
    33    96    95    1
    34    96    97    1
    35    17    14    1
    36   123   124    1
    37   123   122    1
    38    26    27    1
    39    76    75   ar
    40    92    91    2
    41    95    94    1
    42    13    14    1
    43    27    30    1
    44    77    75   ar
    45    14    15    1
    46    94    93    1
    47    75    74    1
    48    93    90    1
    49    91    90    1
    50    91    98   am
    51   106   104   ar
    52   106   108   ar
    53    90    89    1
    54    30    31    1
    55    30    32    1
    56   104   103   ar
    57    74    71    1
    58   109   108    1
    59    34    33    1
    60    34    35    1
    61    34    37    1
    62    15    22   am
    63    15    16    2
    64   108   107   ar
    65    99    98    1
    66    99   100    1
    67    99   102    1
    68    35    36    2
    69    84    83    2
    70    22    23    1
    71   101   100    2
    72   100   110   am
    73    89    83   am
    74   103   102    1
    75   103   105   ar
    76   110   111    1
    77    40    39    1
    78    40    41    2
    79   111   112    1
    80    83    82    1
    81    38    39    1
    82    71    72    1
    83    71    70    1
    84    25    24    2
    85    39    42    1
    86   120   119   ar
    87   107   105   ar
    88    72    81   am
    89    72    73    2
    90    81    82    1
    91    23    24    1
    92    70    65   am
    93    82    85    1
    94   112   114   am
    95   112   113    2
    96   114   115    1
    97   119   121   ar
    98   119   118    1
    99    42    43    1
   100    58    57    2
   101   117   116    2
   102    65    66    2
   103    65    64    1
   104    85    86    1
   105   160   159    1
   106    43    44    1
   107   118   115    1
   108   115   116    1
   109    55    56    1
   110    57    56    1
   111    57    63   am
   112    64    63    1
   113    64    67    1
   114    86    87    1
   115    44    45    1
   116    56    59    1
   117    63    69    1
   118   159   158    1
   119    59    60    1
   120    88    87    1
   121    45    46    1
   122    67    68    1
   123    61    60    1
   124    60    62    1
   125   138   135    1
   126   138   139    1
   127   137   136    2
   128   158   157    1
   129    69    68    1
   130   140   139    1
   131   140   141    1
   132   157   154    1
   133   135   136    1
   134   135   134    1
   135   154   155    1
   136   154   153    1
   137   155   156    2
   138   136   145   am
   139    54    53    1
   140   141   142    2
   141    53    52    1
   142   145   146    1
   143   151   150    2
   144   142   143    1
   145   142   144    1
   146   146   147    1
   147   146   149    1
   148   172   171   ar
   149    52    51    1
   150   147   148    2
   151   171   170    1
   152   171   173   ar
   153   150   149    1
   154   150   152   am
   155   165   162    1
   156   170   167    1
   157    51    48    1
   158   167   166    1
   159   167   168    1
   160   166   163   am
   161   162   163    1
   162   162   161    1
   163   163   164    2
   164    48    49    1
   165    48    47    1
   166   168   169    2
   167    49    50    2
