@<TRIPOS>MOLECULE
tmp/5td5A00.pdb
 177 178 0 0 0
SMALL
GASTEIGER

@<TRIPOS>ATOM
      1  N         13.8100   42.6520   -4.6750 N.3    17  ILE17      -0.1231
      2  CA        13.5840   42.2250   -3.2980 C.3    17  ILE17       0.1692
      3  C         12.9920   40.8240   -3.3050 C.2    17  ILE17       0.2593
      4  O         12.0420   40.5460   -4.0440 O.2    17  ILE17      -0.2718
      5  CB        12.6650   43.1940   -2.5250 C.3    17  ILE17       0.0266
      6  CG1       12.4730   42.7200   -1.0760 C.3    17  ILE17       0.0019
      7  CG2       11.3090   43.3330   -3.2150 C.3    17  ILE17       0.0020
      8  CD1       13.7710   42.5220   -0.2880 C.3    17  ILE17       0.0001
      9  N         13.5430   39.9550   -2.4670 N.am   18  GLY18      -0.1942
     10  CA        13.0420   38.6060   -2.3620 C.3    18  GLY18       0.2014
     11  C         11.8810   38.4820   -1.3960 C.2    18  GLY18       0.2639
     12  O         11.6140   39.3470   -0.5600 O.2    18  GLY18      -0.2714
     13  N         11.1660   37.3750   -1.5400 N.am   19  ARG19      -0.1963
     14  CA        10.1170   36.9840   -0.6160 C.3    19  ARG19       0.1729
     15  C         10.2780   35.5050   -0.3060 C.2    19  ARG19       0.2616
     16  O         10.8080   34.7420   -1.1190 O.2    19  ARG19      -0.2715
     17  CB         8.7240   37.2620   -1.2000 C.3    19  ARG19       0.0348
     18  CG         8.3610   38.7370   -1.2540 C.3    19  ARG19       0.0492
     19  CD         8.1750   39.2980    0.1460 C.3    19  ARG19       0.2205
     20  NE         7.7060   40.6820    0.1420 N.pl3  19  ARG19      -0.0865
     21  CZ         8.4780   41.7510    0.3190 C.cat  19  ARG19       0.5346
     22  NH1        9.7830   41.6240    0.5210 N.pl3  19  ARG19       0.1354
     23  NH2        7.9380   42.9610    0.2970 N.pl3  19  ARG19       0.1354
     24  N          9.8340   35.1050    0.8820 N.am   20  HIS20      -0.1959
     25  CA         9.8430   33.6980    1.2740 C.3    20  HIS20       0.1787
     26  C          8.6880   32.9200    0.6450 C.2    20  HIS20       0.2620
     27  O          8.0340   32.1120    1.3090 O.2    20  HIS20      -0.2715
     28  CB         9.8110   33.5950    2.8000 C.3    20  HIS20       0.0785
     29  CG        11.0210   34.1700    3.4750 C.ar   20  HIS20       0.0821
     30  ND1       12.2400   33.5250    3.4950 N.ar   20  HIS20      -0.2267
     31  CD2       11.1990   35.3290    4.1550 C.ar   20  HIS20       0.1154
     32  CE1       13.1150   34.2610    4.1590 C.ar   20  HIS20       0.1986
     33  NE2       12.5090   35.3610    4.5680 N.ar   20  HIS20      -0.2212
     34  N          8.4370   33.1550   -0.6430 N.am   21  LYS21      -0.1963
     35  CA         7.3530   32.5400   -1.3980 C.3    21  LYS21       0.1728
     36  C          7.7680   32.5290   -2.8620 C.2    21  LYS21       0.2616
     37  O          8.6660   33.2730   -3.2670 O.2    21  LYS21      -0.2715
     38  CB         6.0320   33.3140   -1.2330 C.3    21  LYS21       0.0311
     39  CG         5.4050   33.2500    0.1500 C.3    21  LYS21       0.0038
     40  CD         4.6450   31.9530    0.3410 C.3    21  LYS21       0.0206
     41  CE         4.3130   31.6970    1.7980 C.3    21  LYS21       0.1093
     42  NZ         3.7720   30.3230    2.0030 N.3    21  LYS21      -0.1314
     43  N          7.1030   31.6920   -3.6570 N.am   22  THR22      -0.1951
     44  CA         7.2970   31.6920   -5.1020 C.3    22  THR22       0.1897
     45  C          5.9530   31.6170   -5.7990 C.2    22  THR22       0.2313
     46  O          5.1410   30.7360   -5.4950 O.2    22  THR22      -0.2863
     47  CB         8.1670   30.5290   -5.5680 C.3    22  THR22       0.1794
     48  OG1        9.4490   30.6350   -4.9430 O.3    22  THR22      -0.2208
     49  CG2        8.3410   30.5470   -7.1030 C.3    22  THR22       0.0378
     50  N          3.9380   28.2160   -4.3680 N.3    48  ASN48      -0.1225
     51  CA         4.5020   27.0760   -3.6640 C.3    48  ASN48       0.1785
     52  C          3.6630   26.7360   -2.4360 C.2    48  ASN48       0.2597
     53  O          2.9290   27.5680   -1.8970 O.2    48  ASN48      -0.2718
     54  CB         5.9370   27.3730   -3.2310 C.3    48  ASN48       0.1169
     55  CG         6.0120   28.4870   -2.1920 C.2    48  ASN48       0.2627
     56  OD1        5.5720   29.6110   -2.4360 O.2    48  ASN48      -0.2716
     57  ND2        6.5530   28.1700   -1.0220 N.am   48  ASN48      -0.0877
     58  N          3.7920   25.4920   -1.9880 N.am   49  GLU49      -0.1965
     59  CA         3.1740   25.0430   -0.7510 C.3    49  GLU49       0.1733
     60  C          4.2270   24.3590    0.1080 C.2    49  GLU49       0.2617
     61  O          5.3540   24.1140   -0.3260 O.2    49  GLU49      -0.2715
     62  CB         1.9870   24.1130   -1.0370 C.3    49  GLU49       0.0429
     63  CG         0.8770   24.8190   -1.8060 C.3    49  GLU49       0.1163
     64  CD        -0.3420   23.9500   -2.0480 C.2    49  GLU49       0.3649
     65  OE1       -0.2310   22.7060   -1.9520 O.co2  49  GLU49      -0.2457
     66  OE2       -1.4140   24.5210   -2.3350 O.co2  49  GLU49      -0.2457
     67  N          3.8600   24.0640    1.3480 N.am   50  SER50      -0.1936
     68  CA         4.8130   23.4670    2.2710 C.3    50  SER50       0.2055
     69  C          5.3660   22.1780    1.6790 C.2    50  SER50       0.2643
     70  O          4.6160   21.2370    1.3990 O.2    50  SER50      -0.2714
     71  CB         4.1530   23.2000    3.6230 C.3    50  SER50       0.2130
     72  OG         5.0960   22.6890    4.5500 O.3    50  SER50      -0.2179
     73  N          6.6770   22.1430    1.4700 N.am   51  GLY51      -0.1954
     74  CA         7.2980   20.9420    0.9540 C.3    51  GLY51       0.1869
     75  C          7.0860   20.6750   -0.5200 C.2    51  GLY51       0.2309
     76  O          7.4590   19.5970   -0.9930 O.2    51  GLY51      -0.2863
     77  N          7.6220   22.9180   -4.1260 N.3    53  HIS53      -0.1226
     78  CA         7.9010   24.1530   -4.8310 C.3    53  HIS53       0.1752
     79  C          6.9510   24.3400   -6.0100 C.2    53  HIS53       0.2596
     80  O          6.3190   23.4020   -6.4940 O.2    53  HIS53      -0.2718
     81  CB         9.3490   24.1640   -5.3090 C.3    53  HIS53       0.0759
     82  CG        10.3390   24.2840   -4.1940 C.ar   53  HIS53       0.0818
     83  ND1       11.6980   24.1870   -4.3940 N.ar   53  HIS53      -0.2268
     84  CD2       10.1690   24.5010   -2.8680 C.ar   53  HIS53       0.1154
     85  CE1       12.3240   24.3320   -3.2400 C.ar   53  HIS53       0.1986
     86  NE2       11.4180   24.5240   -2.2970 N.ar   53  HIS53      -0.2212
     87  N          6.8770   25.5850   -6.4770 N.am   54  ALA54      -0.1966
     88  CA         5.8760   25.9690   -7.4660 C.3    54  ALA54       0.1728
     89  C          6.0220   25.1790   -8.7620 C.2    54  ALA54       0.2616
     90  O          5.0190   24.7620   -9.3610 O.2    54  ALA54      -0.2715
     91  CB         5.9870   27.4700   -7.7390 C.3    54  ALA54       0.0334
     92  N          7.2600   24.9880   -9.2260 N.am   55  ALA55      -0.1977
     93  CA         7.4920   24.2430  -10.4590 C.3    55  ALA55       0.1597
     94  C          6.8770   22.8570  -10.3930 C.2    55  ALA55       0.2287
     95  O          6.3190   22.3700  -11.3820 O.2    55  ALA55      -0.2864
     96  CB         8.9900   24.1280  -10.7390 C.3    55  ALA55       0.0319
     97  N          8.0570   33.0360  -13.4620 N.3    79  ILE79      -0.1245
     98  CA         8.2750   32.4440  -12.1470 C.3    79  ILE79       0.1561
     99  C          9.1020   33.4180  -11.3140 C.2    79  ILE79       0.2260
    100  O         10.1020   33.9650  -11.7960 O.2    79  ILE79      -0.2867
    101  CB         8.9300   31.0480  -12.2700 C.3    79  ILE79       0.0252
    102  CG1        8.8680   30.2980  -10.9370 C.3    79  ILE79       0.0019
    103  CG2       10.3660   31.1540  -12.8100 C.3    79  ILE79       0.0019
    104  CD1        9.3280   28.8370  -10.9970 C.3    79  ILE79       0.0001
    105  N         10.9830   33.0910   -8.6670 N.3    81  TRP81      -0.1227
    106  CA        12.3310   32.6020   -8.3680 C.3    81  TRP81       0.1737
    107  C         12.7230   31.5340   -9.3800 C.2    81  TRP81       0.2596
    108  O         11.9030   30.6790   -9.7330 O.2    81  TRP81      -0.2718
    109  CB        12.4230   31.9760   -6.9660 C.3    81  TRP81       0.0564
    110  CG        12.4260   32.9220   -5.7890 C.ar   81  TRP81       0.0003
    111  CD1       11.4410   33.0690   -4.8510 C.ar   81  TRP81       0.0946
    112  CD2       13.4830   33.8120   -5.4010 C.ar   81  TRP81       0.0152
    113  NE1       11.8200   33.9970   -3.9080 N.ar   81  TRP81      -0.2442
    114  CE2       13.0680   34.4670   -4.2240 C.ar   81  TRP81       0.0810
    115  CE3       14.7390   34.1150   -5.9330 C.ar   81  TRP81       0.0012
    116  CZ2       13.8580   35.4120   -3.5800 C.ar   81  TRP81       0.0191
    117  CZ3       15.5210   35.0520   -5.2940 C.ar   81  TRP81       0.0001
    118  CH2       15.0790   35.6880   -4.1220 C.ar   81  TRP81       0.0015
    119  N         13.9840   31.5410   -9.8180 N.am   82  SER82      -0.1938
    120  CA        14.4250   30.4950  -10.7340 C.3    82  SER82       0.2040
    121  C         14.3560   29.1290  -10.0440 C.2    82  SER82       0.2485
    122  O         14.4830   29.0340   -8.8210 O.2    82  SER82      -0.2729
    123  CB        15.8420   30.7730  -11.2440 C.3    82  SER82       0.2129
    124  OG        16.7900   30.7620  -10.2010 O.3    82  SER82      -0.2179
    125  N         14.1220   28.0550  -10.7960 N.am   83  PRO83      -0.2715
    126  CA        13.9830   26.7410  -10.1570 C.3    83  PRO83       0.1536
    127  C         15.2470   26.3200   -9.4200 C.2    83  PRO83       0.2598
    128  O         16.3680   26.6870   -9.7840 O.2    83  PRO83      -0.2715
    129  CB        13.6740   25.8100  -11.3270 C.3    83  PRO83       0.0310
    130  CG        13.0340   26.6830  -12.3270 C.3    83  PRO83       0.0237
    131  CD        13.7640   27.9950  -12.2240 C.3    83  PRO83       0.0939
    132  N         15.0430   25.5520   -8.3560 N.am   84  CYS84      -0.1968
    133  CA        16.1450   25.0840   -7.5320 C.3    84  CYS84       0.1712
    134  C         16.7230   23.7800   -8.0800 C.2    84  CYS84       0.2296
    135  O         16.1480   23.1200   -8.9560 O.2    84  CYS84      -0.2864
    136  CB        15.6810   24.8830   -6.0910 C.3    84  CYS84       0.0983
    137  SG        14.9590   23.2510   -5.7640 S.3    84  CYS84      -0.0798
    138  N         16.9850   35.2300   -9.5490 N.3   112  ILE112     -0.1231
    139  CA        17.7730   34.0070   -9.5000 C.3   112  ILE112      0.1692
    140  C         17.8530   33.5390   -8.0540 C.2   112  ILE112      0.2592
    141  O         18.2600   34.2960   -7.1640 O.2   112  ILE112     -0.2718
    142  CB        19.1730   34.2130  -10.1050 C.3   112  ILE112      0.0266
    143  CG1       19.0660   34.3720  -11.6280 C.3   112  ILE112      0.0019
    144  CG2       20.0800   33.0320   -9.7840 C.3   112  ILE112      0.0020
    145  CD1       20.3740   34.8000  -12.3060 C.3   112  ILE112      0.0001
    146  N         17.4880   32.2810   -7.8260 N.am  113  TYR113     -0.1962
    147  CA        17.3740   31.7220   -6.4800 C.3   113  TYR113      0.1771
    148  C         18.7360   31.1910   -6.0220 C.2   113  TYR113      0.2620
    149  O         18.9560   29.9890   -5.8540 O.2   113  TYR113     -0.2715
    150  CB        16.3020   30.6400   -6.4820 C.3   113  TYR113      0.0574
    151  CG        15.9290   30.0380   -5.1440 C.ar  113  TYR113     -0.0198
    152  CD1       15.3910   30.8190   -4.1320 C.ar  113  TYR113     -0.0009
    153  CD2       16.0820   28.6740   -4.9130 C.ar  113  TYR113     -0.0009
    154  CE1       15.0210   30.2600   -2.9150 C.ar  113  TYR113      0.0417
    155  CE2       15.7080   28.1060   -3.6990 C.ar  113  TYR113      0.0417
    156  CZ        15.1810   28.9060   -2.7070 C.ar  113  TYR113      0.1957
    157  OH        14.8100   28.3410   -1.4980 O.3   113  TYR113     -0.2866
    158  N         19.6780   32.1200   -5.8130 N.am  114  ASP114     -0.1957
    159  CA        21.0250   31.6940   -5.4410 C.3   114  ASP114      0.1840
    160  C         21.1690   31.4270   -3.9460 C.2   114  ASP114      0.2622
    161  O         22.2860   31.1600   -3.4890 O.2   114  ASP114     -0.2715
    162  CB        22.0920   32.6990   -5.9170 C.3   114  ASP114      0.1450
    163  CG        21.8380   34.1380   -5.4690 C.2   114  ASP114      0.3671
    164  OD1       20.8910   34.4180   -4.7060 O.co2 114  ASP114     -0.2456
    165  OD2       22.6290   35.0050   -5.8950 O.co2 114  ASP114     -0.2456
    166  N         20.0690   31.4640   -3.1890 N.am  115  TYR115     -0.1974
    167  CA        20.0610   30.8230   -1.8780 C.3   115  TYR115      0.1639
    168  C         20.4470   29.3570   -2.0110 C.2   115  TYR115      0.2290
    169  O         21.1480   28.8070   -1.1540 O.2   115  TYR115     -0.2864
    170  CB        18.6830   30.9780   -1.2370 C.3   115  TYR115      0.0560
    171  CG        18.4970   30.2600    0.0840 C.ar  115  TYR115     -0.0198
    172  CD1       19.0830   30.7350    1.2490 C.ar  115  TYR115     -0.0009
    173  CD2       17.7130   29.1170    0.1640 C.ar  115  TYR115     -0.0009
    174  CE1       18.9040   30.0790    2.4580 C.ar  115  TYR115      0.0417
    175  CE2       17.5260   28.4570    1.3680 C.ar  115  TYR115      0.0417
    176  CZ        18.1220   28.9430    2.5100 C.ar  115  TYR115      0.1957
    177  OH        17.9380   28.2900    3.7050 O.3   115  TYR115     -0.2866
@<TRIPOS>BOND
     1    97    98    1
     2   103   101    1
     3   130   131    1
     4   130   129    1
     5   145   143    1
     6   101    98    1
     7   101   102    1
     8   131   125    1
     9    98    99    1
    10   100    99    2
    11   143   142    1
    12    95    94    2
    13   129   126    1
    14   123   120    1
    15   123   124    1
    16   104   102    1
    17   125   126    1
    18   125   121   am
    19    96    93    1
    20   120   121    1
    21   120   119    1
    22    93    94    1
    23    93    92    1
    24   126   127    1
    25   142   144    1
    26   142   139    1
    27   121   122    2
    28   119   107   am
    29   128   127    2
    30   108   107    2
    31   138   139    1
    32   139   140    1
    33   127   132   am
    34   107   106    1
    35    90    89    2
    36    92    89   am
    37   135   134    2
    38    89    88    1
    39   105   106    1
    40   106   109    1
    41   132   133    1
    42   134   133    1
    43   140   146   am
    44   140   141    2
    45   146   147    1
    46    91    88    1
    47   133   136    1
    48    88    87    1
    49    49    47    1
    50   109   110    1
    51    80    79    2
    52   150   147    1
    53   150   151    1
    54   147   148    1
    55    87    79   am
    56   136   137    1
    57   148   149    2
    58   148   158   am
    59    79    78    1
    60   115   112   ar
    61   115   117   ar
    62   162   163    1
    63   162   159    1
    64   165   163   ar
    65   158   159    1
    66    45    46    2
    67    45    44    1
    68   110   112   ar
    69   110   111   ar
    70    47    44    1
    71    47    48    1
    72   163   164   ar
    73   159   160    1
    74   112   114   ar
    75    81    78    1
    76    81    82    1
    77   117   118   ar
    78   151   153   ar
    79   151   152   ar
    80    44    43    1
    81   153   155   ar
    82   111   113   ar
    83    78    77    1
    84     1     2    1
    85    83    82   ar
    86    83    85   ar
    87    50    51    1
    88   114   113   ar
    89   114   116   ar
    90    82    84   ar
    91   152   154   ar
    92   118   116   ar
    93     4     3    2
    94   160   161    2
    95   160   166   am
    96   155   156   ar
    97    51    54    1
    98    51    52    1
    99    43    36   am
   100     3     2    1
   101     3     9   am
   102     2     5    1
   103    37    36    2
   104    85    86   ar
   105    54    55    1
   106     7     5    1
   107   166   167    1
   108   154   156   ar
   109    84    86   ar
   110    36    35    1
   111   156   157    1
   112     5     6    1
   113     9    10    1
   114    52    58   am
   115    52    53    2
   116    56    55    2
   117    10    11    1
   118    66    64   ar
   119    55    57   am
   120    64    65   ar
   121    64    63    1
   122   168   167    1
   123   168   169    2
   124    58    59    1
   125   167   170    1
   126    63    62    1
   127    13    11   am
   128    13    14    1
   129    35    38    1
   130    35    34    1
   131    11    12    2
   132    18    17    1
   133    18    19    1
   134   170   171    1
   135    38    39    1
   136    17    14    1
   137    16    15    2
   138     6     8    1
   139    62    59    1
   140    76    75    2
   141    59    60    1
   142    34    26   am
   143    14    15    1
   144    75    74    1
   145    61    60    2
   146    15    24   am
   147   171   173   ar
   148   171   172   ar
   149    60    67   am
   150    20    19    1
   151    20    21    2
   152    39    40    1
   153   173   175   ar
   154    23    21    1
   155    21    22    1
   156    40    41    1
   157    26    25    1
   158    26    27    2
   159    24    25    1
   160    74    73    1
   161   172   174   ar
   162    25    28    1
   163    67    68    1
   164   175   176   ar
   165    70    69    2
   166    73    69   am
   167    69    68    1
   168    41    42    1
   169    68    71    1
   170   174   176   ar
   171   176   177    1
   172    28    29    1
   173    29    30   ar
   174    29    31   ar
   175    30    32   ar
   176    71    72    1
   177    31    33   ar
   178    32    33   ar
