@<TRIPOS>MOLECULE
tmp/5td7A01.pdb
 89 86 0 0 0
SMALL
GASTEIGER

@<TRIPOS>ATOM
      1  N         23.9320    9.6080   80.9780 N.3   459  ARG459     -0.1245
      2  CA        22.7270    9.2000   81.6850 C.3   459  ARG459      0.1563
      3  C         22.2100   10.3660   82.5090 C.2   459  ARG459      0.2260
      4  O         22.9860   11.0560   83.1750 O.2   459  ARG459     -0.2867
      5  CB        22.9990    7.9970   82.5890 C.3   459  ARG459      0.0307
      6  CG        23.7870    6.9040   81.9060 C.3   459  ARG459      0.0489
      7  CD        24.2140    5.8340   82.8720 C.3   459  ARG459      0.2205
      8  NE        25.4500    5.2100   82.4220 N.pl3 459  ARG459     -0.0865
      9  CZ        26.6560    5.5430   82.8660 C.cat 459  ARG459      0.5346
     10  NH1       26.7830    6.4880   83.7850 N.pl3 459  ARG459      0.1354
     11  NH2       27.7340    4.9260   82.3960 N.pl3 459  ARG459      0.1354
     12  N         10.0210    7.5960   79.3680 N.3   474  THR474     -0.1218
     13  CA        11.1110    6.6920   79.7170 C.3   474  THR474      0.1862
     14  C         12.0370    6.3980   78.5350 C.2   474  THR474      0.2287
     15  O         12.9890    5.6210   78.6830 O.2   474  THR474     -0.2866
     16  CB        10.5440    5.3860   80.2890 C.3   474  THR474      0.1770
     17  OG1       11.5340    4.3560   80.2170 O.3   474  THR474     -0.2211
     18  CG2        9.2920    4.9480   79.5310 C.3   474  THR474      0.0375
     19  N         16.6200    8.8050   75.7630 N.3   477  GLY477     -0.1210
     20  CA        17.9770    8.4390   76.1130 C.3   477  GLY477      0.1956
     21  C         18.0230    7.5340   77.3330 C.2   477  GLY477      0.2612
     22  O         17.0230    6.9280   77.7410 O.2   477  GLY477     -0.2717
     23  N         19.2200    7.4330   77.9130 N.am  478  LYS478     -0.1965
     24  CA        19.4070    6.7600   79.1980 C.3   478  LYS478      0.1728
     25  C         18.8710    7.6770   80.2870 C.2   478  LYS478      0.2616
     26  O         19.5430    8.6210   80.7050 O.2   478  LYS478     -0.2715
     27  CB        20.8780    6.4370   79.4430 C.3   478  LYS478      0.0311
     28  CG        21.5030    5.4280   78.4930 C.3   478  LYS478      0.0038
     29  CD        22.9730    5.2150   78.8470 C.3   478  LYS478      0.0206
     30  CE        23.6960    4.3420   77.8320 C.3   478  LYS478      0.1093
     31  NZ        23.6890    4.9240   76.4580 N.3   478  LYS478     -0.1314
     32  N         17.6520    7.4190   80.7430 N.am  479  VAL479     -0.1977
     33  CA        17.0440    8.2270   81.7880 C.3   479  VAL479      0.1596
     34  C         16.4780    7.3130   82.8590 C.2   479  VAL479      0.2287
     35  O         16.0220    6.1990   82.5780 O.2   479  VAL479     -0.2864
     36  CB        15.9400    9.1590   81.2430 C.3   479  VAL479      0.0276
     37  CG1       16.5540   10.4040   80.6310 C.3   479  VAL479      0.0022
     38  CG2       15.0800    8.4250   80.2280 C.3   479  VAL479      0.0022
     39  N         11.4780   -0.6100   84.4490 N.3   494  VAL494     -0.1231
     40  CA        12.5790   -0.7190   85.4080 C.3   494  VAL494      0.1692
     41  C         13.3660    0.5660   85.5790 C.2   494  VAL494      0.2592
     42  O         14.2080    0.6410   86.4820 O.2   494  VAL494     -0.2718
     43  CB        13.6110   -1.7980   85.0320 C.3   494  VAL494      0.0266
     44  CG1       13.1080   -3.1730   85.4230 C.3   494  VAL494      0.0020
     45  CG2       13.9250   -1.7290   83.5430 C.3   494  VAL494      0.0020
     46  N         13.1460    1.5720   84.7320 N.am  495  ASN495     -0.1974
     47  CA        13.8090    2.8570   84.8930 C.3   495  ASN495      0.1688
     48  C         12.8700    3.9240   85.4310 C.2   495  ASN495      0.2292
     49  O         13.1890    5.1150   85.3610 O.2   495  ASN495     -0.2864
     50  CB        14.4350    3.3130   83.5770 C.3   495  ASN495      0.1181
     51  CG        13.4310    3.4300   82.4650 C.2   495  ASN495      0.2629
     52  OD1       12.4150    2.7370   82.4590 O.2   495  ASN495     -0.2716
     53  ND2       13.7030    4.3170   81.5120 N.am  495  ASN495     -0.0877
     54  N         22.9710    3.9580   89.1550 N.3   526  PHE526     -0.1241
     55  CA        22.7420    4.4820   87.8120 C.3   526  PHE526      0.1605
     56  C         23.9440    5.2790   87.3210 C.2   526  PHE526      0.2264
     57  O         24.3010    5.2110   86.1380 O.2   526  PHE526     -0.2867
     58  CB        21.4770    5.3420   87.8140 C.3   526  PHE526      0.0534
     59  CG        21.0040    5.7390   86.4520 C.ar  526  PHE526     -0.0203
     60  CD1       20.8550    4.7950   85.4520 C.ar  526  PHE526     -0.0042
     61  CD2       20.6680    7.0530   86.1820 C.ar  526  PHE526     -0.0042
     62  CE1       20.4110    5.1590   84.2030 C.ar  526  PHE526     -0.0003
     63  CE2       20.2200    7.4230   84.9310 C.ar  526  PHE526     -0.0003
     64  CZ        20.0910    6.4740   83.9420 C.ar  526  PHE526     -0.0000
     65  N         16.9720   -5.6890   89.0360 N.3   614  ARG614     -0.1231
     66  CA        17.7310   -4.8840   88.0880 C.3   614  ARG614      0.1694
     67  C         18.7430   -3.9880   88.7960 C.2   614  ARG614      0.2592
     68  O         19.8760   -3.8370   88.3260 O.2   614  ARG614     -0.2718
     69  CB        16.7620   -4.0550   87.2400 C.3   614  ARG614      0.0321
     70  CG        17.3950   -2.9730   86.3980 C.3   614  ARG614      0.0489
     71  CD        18.2670   -3.5460   85.2910 C.3   614  ARG614      0.2205
     72  NE        18.9230   -2.4810   84.5390 N.pl3 614  ARG614     -0.0865
     73  CZ        20.0460   -1.8870   84.9220 C.cat 614  ARG614      0.5346
     74  NH1       20.6450   -2.2610   86.0450 N.pl3 614  ARG614      0.1354
     75  NH2       20.5750   -0.9210   84.1860 N.pl3 614  ARG614      0.1354
     76  N         18.3590   -3.4010   89.9290 N.am  615  TRP615     -0.1976
     77  CA        19.2010   -2.4740   90.6860 C.3   615  TRP615      0.1640
     78  C         19.5770   -3.1380   92.0100 C.2   615  TRP615      0.2290
     79  O         18.9350   -2.9180   93.0380 O.2   615  TRP615     -0.2864
     80  CB        18.4740   -1.1450   90.9000 C.3   615  TRP615      0.0576
     81  CG        17.8960   -0.6080   89.6310 C.ar  615  TRP615      0.0006
     82  CD1       16.5980   -0.6850   89.2250 C.ar  615  TRP615      0.0946
     83  CD2       18.6050    0.0630   88.5830 C.ar  615  TRP615      0.0152
     84  NE1       16.4490   -0.0910   87.9960 N.ar  615  TRP615     -0.2442
     85  CE2       17.6670    0.3730   87.5770 C.ar  615  TRP615      0.0810
     86  CE3       19.9400    0.4390   88.4010 C.ar  615  TRP615      0.0012
     87  CZ2       18.0200    1.0390   86.4050 C.ar  615  TRP615      0.0191
     88  CZ3       20.2890    1.1030   87.2380 C.ar  615  TRP615      0.0001
     89  CH2       19.3320    1.3960   86.2550 C.ar  615  TRP615      0.0015
@<TRIPOS>BOND
     1    19    20    1
     2    20    21    1
     3    31    30    1
     4    21    22    2
     5    21    23   am
     6    30    29    1
     7    23    24    1
     8    28    29    1
     9    28    27    1
    10    14    15    2
    11    14    13    1
    12    24    27    1
    13    24    25    1
    14    12    13    1
    15    18    16    1
    16    13    16    1
    17    17    16    1
    18    38    36    1
    19    25    26    2
    20    25    32   am
    21    37    36    1
    22    32    33    1
    23     1     2    1
    24    36    33    1
    25    53    51   am
    26     2     3    1
    27     2     5    1
    28    33    34    1
    29     6     5    1
    30     6     7    1
    31    11     9    1
    32     8     9    2
    33     8     7    1
    34    52    51    2
    35    51    50    1
    36     3     4    2
    37    35    34    2
    38     9    10    1
    39    45    43    1
    40    50    47    1
    41    64    62   ar
    42    64    63   ar
    43    75    73    1
    44    62    60   ar
    45    39    40    1
    46    72    73    2
    47    72    71    1
    48    46    47    1
    49    46    41   am
    50    47    48    1
    51    73    74    1
    52    63    61   ar
    53    43    40    1
    54    43    44    1
    55    71    70    1
    56    49    48    2
    57    40    41    1
    58    60    59   ar
    59    41    42    2
    60    57    56    2
    61    61    59   ar
    62    89    87   ar
    63    89    88   ar
    64    70    69    1
    65    87    85   ar
    66    59    58    1
    67    88    86   ar
    68    69    66    1
    69    56    55    1
    70    85    84   ar
    71    85    83   ar
    72    55    58    1
    73    55    54    1
    74    84    82   ar
    75    66    67    1
    76    66    65    1
    77    68    67    2
    78    86    83   ar
    79    83    81   ar
    80    67    76   am
    81    82    81   ar
    82    81    80    1
    83    76    77    1
    84    77    80    1
    85    77    78    1
    86    78    79    2
