@<TRIPOS>MOLECULE
tmp/5td7A00.pdb
 153 147 0 0 0
SMALL
GASTEIGER

@<TRIPOS>ATOM
      1  N         53.6340   -6.8480  115.5730 N.3    24  ALA24      -0.1245
      2  CA        52.2550   -6.3930  115.6770 C.3    24  ALA24       0.1562
      3  C         52.1380   -4.8860  115.5240 C.2    24  ALA24       0.2260
      4  O         51.1330   -4.3970  114.9940 O.2    24  ALA24      -0.2867
      5  CB        51.6640   -6.8120  117.0170 C.3    24  ALA24       0.0290
      6  N         53.3550   -1.4240  111.9490 N.3    27  ILE27      -0.1245
      7  CA        52.6220   -0.6490  110.9600 C.3    27  ILE27       0.1561
      8  C         52.2540    0.7360  111.4670 C.2    27  ILE27       0.2260
      9  O         51.9080    1.6010  110.6560 O.2    27  ILE27      -0.2867
     10  CB        51.3520   -1.3910  110.5180 C.3    27  ILE27       0.0252
     11  CG1       50.4950   -1.7270  111.7400 C.3    27  ILE27       0.0019
     12  CG2       51.7200   -2.6420  109.7390 C.3    27  ILE27       0.0019
     13  CD1       49.1250   -2.2350  111.3940 C.3    27  ILE27       0.0001
     14  N         52.6020    8.1250  109.1210 N.3    32  ARG32      -0.1245
     15  CA        51.1710    8.2190  108.8460 C.3    32  ARG32       0.1563
     16  C         50.6820    9.6490  109.0170 C.2    32  ARG32       0.2260
     17  O         49.8230   10.1190  108.2620 O.2    32  ARG32      -0.2867
     18  CB        50.3880    7.2860  109.7660 C.3    32  ARG32       0.0307
     19  CG        50.8750    5.8440  109.7880 C.3    32  ARG32       0.0489
     20  CD        49.8120    4.9180  110.3860 C.3    32  ARG32       0.2205
     21  NE        49.2830    5.4250  111.6520 N.pl3  32  ARG32      -0.0865
     22  CZ        48.0560    5.9120  111.8200 C.cat  32  ARG32       0.5346
     23  NH1       47.2070    5.9520  110.7960 N.pl3  32  ARG32       0.1354
     24  NH2       47.6770    6.3540  113.0180 N.pl3  32  ARG32       0.1354
     25  N         48.7740   -5.2870  122.0790 N.3    94  ASP94      -0.1239
     26  CA        49.1360   -4.6530  120.8030 C.3    94  ASP94       0.1674
     27  C         49.2230   -3.1280  120.9180 C.2    94  ASP94       0.2266
     28  O         48.4590   -2.3790  120.3100 O.2    94  ASP94      -0.2867
     29  CB        48.1520   -5.0510  119.6960 C.3    94  ASP94       0.1410
     30  CG        48.0760   -6.5470  119.5000 C.2    94  ASP94       0.3668
     31  OD1       48.9900   -7.1120  118.8640 O.co2  94  ASP94      -0.2456
     32  OD2       47.1030   -7.1590  119.9870 O.co2  94  ASP94      -0.2456
     33  N         45.9680    6.8390  117.9850 N.3   134  PRO134     -0.2116
     34  CA        44.5240    6.6950  117.7650 C.3   134  PRO134      0.1372
     35  C         43.7610    6.5260  119.0690 C.2   134  PRO134      0.2244
     36  O         44.3360    6.6420  120.1570 O.2   134  PRO134     -0.2868
     37  CB        44.4250    5.4350  116.8950 C.3   134  PRO134      0.0268
     38  CG        45.8300    5.1120  116.4830 C.3   134  PRO134      0.0207
     39  CD        46.7160    5.6640  117.5110 C.3   134  PRO134      0.0892
     40  N         40.0300    4.5470  119.3360 N.3   136  HIS136     -0.1226
     41  CA        38.8050    3.7920  119.6010 C.3   136  HIS136      0.1752
     42  C         39.0290    2.4320  120.2690 C.2   136  HIS136      0.2596
     43  O         38.0530    1.8460  120.7460 O.2   136  HIS136     -0.2718
     44  CB        37.9840    3.6340  118.3120 C.3   136  HIS136      0.0759
     45  CG        38.6770    2.8750  117.2250 C.ar  136  HIS136      0.0818
     46  ND1       38.0080    2.4150  116.1140 N.ar  136  HIS136     -0.2268
     47  CD2       39.9730    2.5080  117.0640 C.ar  136  HIS136      0.1154
     48  CE1       38.8580    1.7920  115.3170 C.ar  136  HIS136      0.1986
     49  NE2       40.0570    1.8330  115.8700 N.ar  136  HIS136     -0.2212
     50  N         40.2590    1.9180  120.3390 N.am  137  HIS137     -0.1975
     51  CA        40.5100    0.6930  121.0960 C.3   137  HIS137      0.1656
     52  C         40.8360    0.9490  122.5600 C.2   137  HIS137      0.2291
     53  O         40.7900    0.0110  123.3630 O.2   137  HIS137     -0.2864
     54  CB        41.6710   -0.1070  120.4960 C.3   137  HIS137      0.0771
     55  CG        41.4780   -0.4800  119.0630 C.ar  137  HIS137      0.0820
     56  ND1       40.3090   -1.0310  118.5890 N.ar  137  HIS137     -0.2267
     57  CD2       42.3110   -0.3950  118.0000 C.ar  137  HIS137      0.1154
     58  CE1       40.4280   -1.2680  117.2960 C.ar  137  HIS137      0.1986
     59  NE2       41.6320   -0.8870  116.9120 N.ar  137  HIS137     -0.2212
     60  N         45.5240   -1.7670  121.2160 N.3   145  GLY145     -0.1210
     61  CA        45.5250   -1.5480  119.7820 C.3   145  GLY145      0.1956
     62  C         46.0110   -0.1770  119.3730 C.2   145  GLY145      0.2612
     63  O         45.2600    0.6030  118.7760 O.2   145  GLY145     -0.2717
     64  N         47.2610    0.1350  119.7190 N.am  146  PHE146     -0.1962
     65  CA        47.9500    1.3880  119.4110 C.3   146  PHE146      0.1771
     66  C         47.3430    2.6020  120.1110 C.2   146  PHE146      0.2619
     67  O         47.8870    3.7080  119.9780 O.2   146  PHE146     -0.2715
     68  CB        47.9990    1.6710  117.9010 C.3   146  PHE146      0.0574
     69  CG        48.4540    0.5020  117.0700 C.ar  146  PHE146     -0.0200
     70  CD1       49.3250   -0.4480  117.5840 C.ar  146  PHE146     -0.0042
     71  CD2       48.0120    0.3600  115.7620 C.ar  146  PHE146     -0.0042
     72  CE1       49.7390   -1.5230  116.8140 C.ar  146  PHE146     -0.0003
     73  CE2       48.4250   -0.7080  114.9880 C.ar  146  PHE146     -0.0003
     74  CZ        49.2880   -1.6530  115.5170 C.ar  146  PHE146     -0.0000
     75  N         46.2500    2.4430  120.8520 N.am  147  CYS147     -0.1968
     76  CA        45.5530    3.5630  121.4670 C.3   147  CYS147      0.1712
     77  C         45.9230    3.6930  122.9410 C.2   147  CYS147      0.2296
     78  O         46.1200    2.6910  123.6360 O.2   147  CYS147     -0.2864
     79  CB        44.0380    3.4000  121.3320 C.3   147  CYS147      0.0983
     80  SG        43.4620    3.0810  119.6490 S.3   147  CYS147     -0.0798
     81  N         36.6340    3.0370  110.5990 N.3   174  ASP174     -0.1239
     82  CA        37.8830    2.2950  110.6690 C.3   174  ASP174      0.1674
     83  C         37.5970    0.8060  110.4610 C.2   174  ASP174      0.2266
     84  O         36.5280    0.3010  110.8130 O.2   174  ASP174     -0.2867
     85  CB        38.5460    2.5690  112.0270 C.3   174  ASP174      0.1410
     86  CG        39.9080    1.9390  112.1640 C.2   174  ASP174      0.3668
     87  OD1       40.9060    2.5840  111.7910 O.co2 174  ASP174     -0.2456
     88  OD2       39.9830    0.8020  112.6660 O.co2 174  ASP174     -0.2456
     89  N         38.7830   -1.7100  111.9230 N.3   176  HIS176     -0.1241
     90  CA        38.7360   -2.4230  113.1920 C.3   176  HIS176      0.1621
     91  C         37.5650   -1.9380  114.0310 C.2   176  HIS176      0.2264
     92  O         37.1070   -0.7990  113.9010 O.2   176  HIS176     -0.2867
     93  CB        40.0120   -2.2270  114.0040 C.3   176  HIS176      0.0745
     94  CG        41.2610   -2.6230  113.2910 C.ar  176  HIS176      0.0817
     95  ND1       41.8740   -1.8120  112.3610 N.ar  176  HIS176     -0.2268
     96  CD2       42.0330   -3.7290  113.3960 C.ar  176  HIS176      0.1154
     97  CE1       42.9650   -2.4060  111.9150 C.ar  176  HIS176      0.1986
     98  NE2       43.0830   -3.5720  112.5250 N.ar  176  HIS176     -0.2212
     99  N         41.3710   -9.7990  114.6940 N.3   205  TRP205     -0.1241
    100  CA        41.5870   -8.8700  115.8170 C.3   205  TRP205      0.1605
    101  C         40.5660   -7.7230  115.8790 C.2   205  TRP205      0.2264
    102  O         40.2840   -7.0860  114.8590 O.2   205  TRP205     -0.2867
    103  CB        43.0060   -8.2860  115.7290 C.3   205  TRP205      0.0550
    104  CG        43.4510   -7.6050  116.9790 C.ar  205  TRP205      0.0003
    105  CD1       44.1890   -8.1480  117.9890 C.ar  205  TRP205      0.0946
    106  CD2       43.1810   -6.2510  117.3630 C.ar  205  TRP205      0.0152
    107  NE1       44.3840   -7.2200  118.9830 N.ar  205  TRP205     -0.2442
    108  CE2       43.7780   -6.0460  118.6200 C.ar  205  TRP205      0.0810
    109  CE3       42.4920   -5.1930  116.7660 C.ar  205  TRP205      0.0012
    110  CZ2       43.7100   -4.8280  119.2870 C.ar  205  TRP205      0.0191
    111  CZ3       42.4180   -3.9890  117.4340 C.ar  205  TRP205      0.0001
    112  CH2       43.0240   -3.8150  118.6780 C.ar  205  TRP205      0.0015
    113  N         42.2570    2.4310  107.1130 N.3   267  ASP267     -0.1239
    114  CA        42.6460    1.0500  106.8720 C.3   267  ASP267      0.1674
    115  C         41.5150    0.2310  106.2580 C.2   267  ASP267      0.2266
    116  O         41.7190   -0.9450  105.9330 O.2   267  ASP267     -0.2867
    117  CB        43.1240    0.4030  108.1740 C.3   267  ASP267      0.1410
    118  CG        42.2050    0.6910  109.3460 C.2   267  ASP267      0.3668
    119  OD1       41.1620    1.3500  109.1570 O.co2 267  ASP267     -0.2456
    120  OD2       42.5240    0.2410  110.4650 O.co2 267  ASP267     -0.2456
    121  N         46.1390   -4.1950  106.5250 N.3   274  GLU274     -0.1245
    122  CA        45.4220   -4.6780  107.6950 C.3   274  GLU274      0.1567
    123  C         43.9360   -4.9110  107.4300 C.2   274  GLU274      0.2260
    124  O         43.3750   -5.9030  107.9080 O.2   274  GLU274     -0.2867
    125  CB        45.5970   -3.6840  108.8450 C.3   274  GLU274      0.0388
    126  CG        45.0240   -4.1500  110.1510 C.3   274  GLU274      0.1160
    127  CD        45.9960   -4.9640  110.9810 C.2   274  GLU274      0.3649
    128  OE1       45.5910   -5.4090  112.0780 O.co2 274  GLU274     -0.2457
    129  OE2       47.1560   -5.1550  110.5480 O.co2 274  GLU274     -0.2457
    130  N         41.9880    7.9090  112.9070 N.3   304  GLU304     -0.1231
    131  CA        42.2000    6.6810  113.6500 C.3   304  GLU304      0.1699
    132  C         43.3030    5.9060  112.9440 C.2   304  GLU304      0.2592
    133  O         44.4850    6.2530  113.0820 O.2   304  GLU304     -0.2718
    134  CB        40.9000    5.8830  113.7810 C.3   304  GLU304      0.0402
    135  CG        39.7980    6.5680  114.5800 C.3   304  GLU304      0.1161
    136  CD        39.9230    6.3380  116.0890 C.2   304  GLU304      0.3649
    137  OE1       40.9370    5.7620  116.5360 O.co2 304  GLU304     -0.2457
    138  OE2       39.0010    6.7250  116.8380 O.co2 304  GLU304     -0.2457
    139  N         42.9730    4.8730  112.1680 N.am  305  GLY305     -0.1957
    140  CA        43.9590    4.0620  111.4900 C.3   305  GLY305      0.1869
    141  C         44.0990    4.3930  110.0120 C.2   305  GLY305      0.2309
    142  O         43.5340    5.3590  109.4970 O.2   305  GLY305     -0.2863
    143  N         47.2220    2.4960  107.2140 N.3   307  PHE307     -0.1241
    144  CA        48.6190    2.1150  107.3590 C.3   307  PHE307      0.1605
    145  C         49.3980    2.0090  106.0560 C.2   307  PHE307      0.2264
    146  O         50.6320    1.9320  106.1090 O.2   307  PHE307     -0.2867
    147  CB        48.7160    0.7910  108.1320 C.3   307  PHE307      0.0534
    148  CG        48.0450    0.8460  109.4670 C.ar  307  PHE307     -0.0203
    149  CD1       48.6820    1.4230  110.5490 C.ar  307  PHE307     -0.0042
    150  CD2       46.7570    0.3620  109.6300 C.ar  307  PHE307     -0.0042
    151  CE1       48.0550    1.5010  111.7770 C.ar  307  PHE307     -0.0003
    152  CE2       46.1250    0.4350  110.8550 C.ar  307  PHE307     -0.0003
    153  CZ        46.7720    1.0070  111.9290 C.ar  307  PHE307     -0.0000
@<TRIPOS>BOND
     1   116   115    2
     2   145   146    2
     3   145   144    1
     4   115   114    1
     5   121   122    1
     6   114   113    1
     7   114   117    1
     8   143   144    1
     9   144   147    1
    10   123   122    1
    11   123   124    2
    12   122   125    1
    13   147   148    1
    14   117   118    1
    15    17    16    2
    16   125   126    1
    17    15    16    1
    18    15    14    1
    19    15    18    1
    20   119   118   ar
    21   118   120   ar
    22   148   150   ar
    23   148   149   ar
    24   142   141    2
    25   150   152   ar
    26    12    10    1
    27    18    19    1
    28    19    20    1
    29   141   140    1
    30   126   127    1
    31    20    21    1
    32    83    82    1
    33    83    84    2
    34    10     7    1
    35    10    11    1
    36   129   127   ar
    37   149   151   ar
    38    81    82    1
    39     9     8    2
    40    82    85    1
    41    23    22    1
    42   152   153   ar
    43     7     8    1
    44     7     6    1
    45   127   128   ar
    46    13    11    1
    47   140   139    1
    48    21    22    2
    49   151   153   ar
    50    87    86   ar
    51    22    24    1
    52    97    95   ar
    53    97    98   ar
    54    89    90    1
    55    85    86    1
    56    86    88   ar
    57   139   132   am
    58    95    94   ar
    59    98    96   ar
    60   130   131    1
    61   132   133    2
    62   132   131    1
    63    90    93    1
    64    90    91    1
    65    94    96   ar
    66    94    93    1
    67   131   134    1
    68   134   135    1
    69    92    91    2
    70   135   136    1
    71    99   100    1
    72   102   101    2
    73    73    74   ar
    74    73    71   ar
    75     4     3    2
    76    48    49   ar
    77    48    46   ar
    78    74    72   ar
    79     3     2    1
    80     1     2    1
    81     2     5    1
    82   103   100    1
    83   103   104    1
    84    71    69   ar
    85   100   101    1
    86    49    47   ar
    87   136   137   ar
    88   136   138   ar
    89    46    45   ar
    90    38    37    1
    91    38    39    1
    92   109   106   ar
    93   109   111   ar
    94    72    70   ar
    95    37    34    1
    96    59    58   ar
    97    59    57   ar
    98   104   106   ar
    99   104   105   ar
   100    47    45   ar
   101    69    70   ar
   102    69    68    1
   103    45    44    1
   104    58    56   ar
   105   106   108   ar
   106   111   112   ar
   107    39    33    1
   108    34    33    1
   109    34    35    1
   110    68    65    1
   111   105   107   ar
   112    57    55   ar
   113    44    41    1
   114    56    55   ar
   115   108   107   ar
   116   108   110   ar
   117   112   110   ar
   118    63    62    2
   119    31    30   ar
   120    55    54    1
   121    35    36    2
   122    40    41    1
   123    62    64   am
   124    62    61    1
   125    65    64    1
   126    65    66    1
   127    30    29    1
   128    30    32   ar
   129    41    42    1
   130    80    79    1
   131    29    26    1
   132    61    60    1
   133    67    66    2
   134    66    75   am
   135    42    50   am
   136    42    43    2
   137    28    27    2
   138    50    51    1
   139    54    51    1
   140    26    27    1
   141    26    25    1
   142    75    76    1
   143    51    52    1
   144    79    76    1
   145    76    77    1
   146    52    53    2
   147    77    78    2
