@<TRIPOS>MOLECULE
tmp/5tdbA00.pdb
 133 126 0 0 0
SMALL
GASTEIGER

@<TRIPOS>ATOM
      1  N         18.4110   -4.2510   14.5560 N.3     6  PHE6       -0.1241
      2  CA        18.9460   -5.4410   13.9050 C.3     6  PHE6        0.1605
      3  C         20.4190   -5.6640   14.2170 C.2     6  PHE6        0.2264
      4  O         21.2180   -4.7220   14.3070 O.2     6  PHE6       -0.2867
      5  CB        18.7500   -5.3700   12.3930 C.3     6  PHE6        0.0534
      6  CG        17.3220   -5.2750   11.9990 C.ar    6  PHE6       -0.0203
      7  CD1       16.4530   -6.3140   12.2870 C.ar    6  PHE6       -0.0042
      8  CD2       16.8310   -4.1430   11.3680 C.ar    6  PHE6       -0.0042
      9  CE1       15.1270   -6.2280   11.9420 C.ar    6  PHE6       -0.0003
     10  CE2       15.5020   -4.0570   11.0250 C.ar    6  PHE6       -0.0003
     11  CZ        14.6480   -5.0930   11.3160 C.ar    6  PHE6       -0.0000
     12  N         15.9060   -9.2230    7.6100 N.3    12  THR12      -0.1218
     13  CA        14.8720   -8.1980    7.6710 C.3    12  THR12       0.1862
     14  C         13.9300   -8.4140    6.4970 C.2    12  THR12       0.2287
     15  O         14.3320   -8.9190    5.4380 O.2    12  THR12      -0.2866
     16  CB        15.4330   -6.7540    7.6310 C.3    12  THR12       0.1770
     17  OG1       15.7890   -6.3920    6.2880 O.3    12  THR12      -0.2211
     18  CG2       16.6340   -6.6260    8.5530 C.3    12  THR12       0.0375
     19  N          5.8940    1.6270    2.2930 N.3    20  VAL20      -0.1231
     20  CA         5.8170    2.9760    1.7290 C.3    20  VAL20       0.1692
     21  C          7.0490    3.2670    0.8870 C.2    20  VAL20       0.2592
     22  O          6.9620    3.9450   -0.1410 O.2    20  VAL20      -0.2718
     23  CB         5.6270    4.0040    2.8600 C.3    20  VAL20       0.0266
     24  CG1        5.9750    5.4350    2.4060 C.3    20  VAL20       0.0020
     25  CG2        4.2160    3.9200    3.3940 C.3    20  VAL20       0.0020
     26  N          8.2070    2.7720    1.3080 N.am   21  ASP21      -0.1960
     27  CA         9.4380    2.8920    0.5390 C.3    21  ASP21       0.1825
     28  C         10.3320    1.7120    0.8910 C.2    21  ASP21       0.2464
     29  O         10.0470    0.9590    1.8360 O.2    21  ASP21      -0.2730
     30  CB        10.1340    4.2430    0.7780 C.3    21  ASP21       0.1450
     31  CG        10.6320    4.4180    2.1990 C.2    21  ASP21       0.3671
     32  OD1       11.4560    3.6010    2.6600 O.co2  21  ASP21      -0.2456
     33  OD2       10.2120    5.4020    2.8550 O.co2  21  ASP21      -0.2456
     34  N         11.4270    1.5100    0.1430 N.am   22  PRO22      -0.2715
     35  CA        12.2070    0.2680    0.3090 C.3    22  PRO22       0.1536
     36  C         12.9490    0.1470    1.6310 C.2    22  PRO22       0.2599
     37  O         13.4790   -0.9320    1.9130 O.2    22  PRO22      -0.2715
     38  CB        13.1920    0.2980   -0.8700 C.3    22  PRO22       0.0310
     39  CG        12.6420    1.2750   -1.8170 C.3    22  PRO22       0.0237
     40  CD        11.8880    2.2850   -1.0250 C.3    22  PRO22       0.0939
     41  N         13.0360    1.2030    2.4340 N.am   23  THR23      -0.1937
     42  CA        13.6940    1.1040    3.7330 C.3    23  THR23       0.2028
     43  C         12.7550    0.6480    4.8450 C.2    23  THR23       0.2642
     44  O         13.2070    0.4850    5.9830 O.2    23  THR23      -0.2714
     45  CB        14.3410    2.4350    4.1370 C.3    23  THR23       0.1808
     46  OG1       13.3290    3.4060    4.4530 O.3    23  THR23      -0.2208
     47  CG2       15.2180    2.9600    3.0250 C.3    23  THR23       0.0379
     48  N         11.4690    0.4580    4.5500 N.am   24  CYS24      -0.1953
     49  CA        10.4980    0.0180    5.5440 C.3    24  CYS24       0.1843
     50  C         10.6190   -1.4910    5.7140 C.2    24  CYS24       0.2625
     51  O         10.5240   -2.2370    4.7310 O.2    24  CYS24      -0.2714
     52  CB         9.0910    0.3990    5.0940 C.3    24  CYS24       0.0997
     53  SG         8.8240    2.1980    4.9140 S.3    24  CYS24      -0.0797
     54  N         10.8370   -1.9560    6.9490 N.am   25  VAL25      -0.1977
     55  CA        11.1480   -3.3550    7.2110 C.3    25  VAL25       0.1596
     56  C         10.5100   -3.8220    8.5050 C.2    25  VAL25       0.2287
     57  O         10.1810   -3.0350    9.3960 O.2    25  VAL25      -0.2864
     58  CB        12.6670   -3.6080    7.2530 C.3    25  VAL25       0.0276
     59  CG1       13.2760   -3.4300    5.8670 C.3    25  VAL25       0.0022
     60  CG2       13.3160   -2.6970    8.2820 C.3    25  VAL25       0.0022
     61  N         10.3150   -9.2450    0.5490 N.3    42  ARG42      -0.1245
     62  CA        11.7320   -9.2050    0.1950 C.3    42  ARG42       0.1563
     63  C         12.5410   -9.3440    1.4810 C.2    42  ARG42       0.2260
     64  O         12.3650   -8.5550    2.4160 O.2    42  ARG42      -0.2867
     65  CB        12.0540   -7.8610   -0.4760 C.3    42  ARG42       0.0307
     66  CG        13.5320   -7.5800   -0.7520 C.3    42  ARG42       0.0489
     67  CD        13.8270   -6.0700   -0.7080 C.3    42  ARG42       0.2205
     68  NE        14.1710   -5.6040    0.6370 N.pl3  42  ARG42      -0.0865
     69  CZ        13.9880   -4.3610    1.0830 C.cat  42  ARG42       0.5346
     70  NH1       13.4430   -3.4370    0.3000 N.pl3  42  ARG42       0.1354
     71  NH2       14.3400   -4.0430    2.3240 N.pl3  42  ARG42       0.1354
     72  N         16.2080   -9.1330    3.2380 N.3    44  THR44      -0.1218
     73  CA        17.5500   -8.5850    3.1270 C.3    44  THR44       0.1862
     74  C         18.2370   -8.7930    4.4680 C.2    44  THR44       0.2287
     75  O         17.6630   -8.4690    5.5140 O.2    44  THR44      -0.2866
     76  CB        17.4870   -7.0820    2.8210 C.3    44  THR44       0.1770
     77  OG1       16.8530   -6.8700    1.5510 O.3    44  THR44      -0.2211
     78  CG2       18.8810   -6.4670    2.8190 C.3    44  THR44       0.0375
     79  N         20.6730   -7.9250    7.3970 N.3    46  SER46      -0.1217
     80  CA        21.2150   -6.6930    7.9440 C.3    46  SER46       0.1889
     81  C         22.7250   -6.7930    8.0820 C.2    46  SER46       0.2288
     82  O         23.2650   -7.8400    8.4470 O.2    46  SER46      -0.2866
     83  CB        20.6210   -6.4030    9.3200 C.3    46  SER46       0.2089
     84  OG        21.1420   -5.1870    9.8350 O.3    46  SER46      -0.2183
     85  N         22.5020   -2.7240   12.6580 N.3    49  GLY49      -0.1210
     86  CA        21.8200   -1.4510   12.7200 C.3    49  GLY49       0.1956
     87  C         20.5280   -1.4460   11.9290 C.2    49  GLY49       0.2612
     88  O         20.1520   -2.4090   11.2500 O.2    49  GLY49      -0.2717
     89  N         19.8500   -0.3080   11.9970 N.am   50  GLY50      -0.1942
     90  CA        18.4920   -0.2040   11.5190 C.3    50  GLY50       0.2014
     91  C         17.5420   -0.8230   12.5240 C.2    50  GLY50       0.2638
     92  O         17.9460   -1.4680   13.4920 O.2    50  GLY50      -0.2714
     93  N         16.2460   -0.6170   12.3010 N.am   51  PHE51      -0.1973
     94  CA        15.2680   -1.0530   13.2870 C.3    51  PHE51       0.1639
     95  C         13.9660   -1.4780   12.6120 C.2    51  PHE51       0.2290
     96  O         13.6440   -1.0740   11.4880 O.2    51  PHE51      -0.2864
     97  CB        15.0230    0.0240   14.3680 C.3    51  PHE51       0.0560
     98  CG        14.5020    1.3310   13.8170 C.ar   51  PHE51      -0.0200
     99  CD1       13.1430    1.5310   13.6370 C.ar   51  PHE51      -0.0042
    100  CD2       15.3830    2.3480   13.4680 C.ar   51  PHE51      -0.0042
    101  CE1       12.6650    2.7130   13.1110 C.ar   51  PHE51      -0.0003
    102  CE2       14.9100    3.5450   12.9580 C.ar   51  PHE51      -0.0003
    103  CZ        13.5510    3.7240   12.7830 C.ar   51  PHE51      -0.0000
    104  N         10.0740   -1.5740   11.8320 N.3    53  ASP53      -0.1239
    105  CA         9.0380   -0.5640   11.6540 C.3    53  ASP53       0.1674
    106  C          7.6390   -1.0540   12.0170 C.2    53  ASP53       0.2266
    107  O          6.6500   -0.4010   11.6580 O.2    53  ASP53      -0.2867
    108  CB         9.0500   -0.0440   10.2160 C.3    53  ASP53       0.1410
    109  CG        10.3540    0.6240    9.8570 C.2    53  ASP53       0.3668
    110  OD1       10.7670    1.5660   10.5760 O.co2  53  ASP53      -0.2456
    111  OD2       10.9860    0.1880    8.8730 O.co2  53  ASP53      -0.2456
    112  N          4.5440    1.4290   12.9080 N.3    56  ASP56      -0.1239
    113  CA         4.6610    2.7640   12.3300 C.3    56  ASP56       0.1674
    114  C          3.6600    2.8610   11.1930 C.2    56  ASP56       0.2266
    115  O          3.8860    2.3340   10.1030 O.2    56  ASP56      -0.2867
    116  CB         6.0680    3.0520   11.8250 C.3    56  ASP56       0.1410
    117  CG         6.2490    4.5230   11.4480 C.2    56  ASP56       0.3668
    118  OD1        5.2250    5.2160   11.2580 O.co2  56  ASP56      -0.2456
    119  OD2        7.3850    5.0020   11.3360 O.co2  56  ASP56      -0.2456
    120  N          3.0290    5.2150    9.2960 N.3    58  GLU58      -0.1231
    121  CA         3.5420    5.9210    8.1330 C.3    58  GLU58       0.1699
    122  C          4.5180    5.0830    7.3070 C.2    58  GLU58       0.2592
    123  O          4.9700    5.5460    6.2580 O.2    58  GLU58      -0.2718
    124  CB         4.1940    7.2380    8.5620 C.3    58  GLU58       0.0402
    125  CG         3.2560    8.2080    9.3170 C.3    58  GLU58       0.1161
    126  CD         2.0420    8.6230    8.5120 C.2    58  GLU58       0.3649
    127  OE1        2.1590    8.7740    7.2750 O.co2  58  GLU58      -0.2457
    128  OE2        0.9600    8.8170    9.1210 O.co2  58  GLU58      -0.2457
    129  N          4.8380    3.8610    7.7370 N.am   59  ALA59      -0.1980
    130  CA         5.7380    2.9810    6.9940 C.3    59  ALA59       0.1597
    131  C          5.0060    1.9820    6.1060 C.2    59  ALA59       0.2287
    132  O          5.6470    1.3300    5.2640 O.2    59  ALA59      -0.2864
    133  CB         6.6360    2.1970    7.9640 C.3    59  ALA59       0.0319
@<TRIPOS>BOND
     1    39    40    1
     2    39    38    1
     3    40    34    1
     4    38    35    1
     5    66    67    1
     6    66    65    1
     7    67    68    1
     8    65    62    1
     9    22    21    2
    10    34    35    1
    11    34    28   am
    12    62    61    1
    13    62    63    1
    14    70    69    1
    15    35    36    1
    16    27    30    1
    17    27    28    1
    18    27    26    1
    19    68    69    2
    20    30    31    1
    21    21    26   am
    22    21    20    1
    23    28    29    2
    24    69    71    1
    25    63    64    2
    26    77    76    1
    27    36    37    2
    28    36    41   am
    29    20    19    1
    30    20    23    1
    31    31    32   ar
    32    31    33   ar
    33    24    23    1
    34    41    42    1
    35    78    76    1
    36    76    73    1
    37    23    25    1
    38    47    45    1
    39    73    72    1
    40    73    74    1
    41    42    45    1
    42    42    43    1
    43    45    46    1
    44    74    75    2
    45    48    43   am
    46    48    49    1
    47    51    50    2
    48    43    44    2
    49    53    52    1
    50    52    49    1
    51   132   131    2
    52    15    14    2
    53    49    50    1
    54    50    54   am
    55    59    58    1
    56   131   130    1
    57   123   122    2
    58    17    16    1
    59    14    13    1
    60    54    55    1
    61   130   129    1
    62   130   133    1
    63    55    58    1
    64    55    56    1
    65    58    60    1
    66   127   126   ar
    67   122   129   am
    68   122   121    1
    69    79    80    1
    70    12    13    1
    71    16    13    1
    72    16    18    1
    73    80    81    1
    74    80    83    1
    75    81    82    2
    76   121   124    1
    77   121   120    1
    78    56    57    2
    79   126   128   ar
    80   126   125    1
    81   124   125    1
    82   111   109   ar
    83    83    84    1
    84   109   108    1
    85   109   110   ar
    86   115   114    2
    87   108   105    1
    88    10    11   ar
    89    10     8   ar
    90   114   113    1
    91    88    87    2
    92   118   117   ar
    93    11     9   ar
    94   119   117   ar
    95     8     6   ar
    96   117   116    1
    97    96    95    2
    98    90    89    1
    99    90    91    1
   100   105   104    1
   101   105   106    1
   102   107   106    2
   103   116   113    1
   104    87    89   am
   105    87    86    1
   106     9     7   ar
   107     6     7   ar
   108     6     5    1
   109    93    91   am
   110    93    94    1
   111   113   112    1
   112     5     2    1
   113    91    92    2
   114    95    94    1
   115    85    86    1
   116   103   102   ar
   117   103   101   ar
   118   102   100   ar
   119   101    99   ar
   120    94    97    1
   121   100    98   ar
   122    99    98   ar
   123    98    97    1
   124     2     3    1
   125     2     1    1
   126     3     4    2
