@<TRIPOS>MOLECULE
tmp/5tdcA00.pdb
 123 119 0 0 0
SMALL
GASTEIGER

@<TRIPOS>ATOM
      1  N          8.1560    3.4700   15.6980 N.3     6  PHE6       -0.1241
      2  CA         8.1650    4.8930   16.0330 C.3     6  PHE6        0.1605
      3  C          8.1250    5.7970   14.8010 C.2     6  PHE6        0.2264
      4  O          8.8550    5.5860   13.8280 O.2     6  PHE6       -0.2867
      5  CB         9.4230    5.2380   16.8250 C.3     6  PHE6        0.0534
      6  CG         9.6240    4.4270   18.0910 C.ar    6  PHE6       -0.0203
      7  CD1        8.5620    4.0380   18.9020 C.ar    6  PHE6       -0.0042
      8  CD2       10.9120    4.0830   18.4780 C.ar    6  PHE6       -0.0042
      9  CE1        8.7940    3.2950   20.0860 C.ar    6  PHE6       -0.0003
     10  CE2       11.1510    3.3370   19.6410 C.ar    6  PHE6       -0.0003
     11  CZ        10.0970    2.9480   20.4440 C.ar    6  PHE6       -0.0000
     12  N         14.4080    5.0340   27.4100 N.3    14  SER14      -0.1217
     13  CA        15.2940    3.9630   27.8390 C.3    14  SER14       0.1889
     14  C         15.4580    4.0520   29.3550 C.2    14  SER14       0.2288
     15  O         14.9760    5.0000   29.9890 O.2    14  SER14      -0.2866
     16  CB        16.6560    4.0550   27.1520 C.3    14  SER14       0.2089
     17  OG        17.3820    2.8850   27.4450 O.3    14  SER14      -0.2183
     18  N         19.8030   -3.3470   28.5590 N.3    20  ILE20      -0.1231
     19  CA        21.0450   -4.0780   28.3190 C.3    20  ILE20       0.1692
     20  C         22.0340   -3.2160   27.5590 C.2    20  ILE20       0.2592
     21  O         23.2530   -3.3720   27.7220 O.2    20  ILE20      -0.2718
     22  CB        20.7650   -5.3950   27.5740 C.3    20  ILE20       0.0266
     23  CG1       19.8950   -6.3190   28.4250 C.3    20  ILE20       0.0019
     24  CG2       22.0540   -6.0860   27.1990 C.3    20  ILE20       0.0020
     25  CD1       20.3650   -6.5410   29.8580 C.3    20  ILE20       0.0001
     26  N         21.5440   -2.2940   26.7410 N.am   21  ASP21      -0.1960
     27  CA        22.3950   -1.2990   26.1050 C.3    21  ASP21       0.1825
     28  C         21.5380   -0.0860   25.7940 C.2    21  ASP21       0.2464
     29  O         20.3120   -0.1270   25.9430 O.2    21  ASP21      -0.2730
     30  CB        23.0960   -1.8700   24.8590 C.3    21  ASP21       0.1450
     31  CG        22.1520   -2.2070   23.7460 C.2    21  ASP21       0.3671
     32  OD1       22.1850   -3.3840   23.2940 O.co2  21  ASP21      -0.2456
     33  OD2       21.3770   -1.3130   23.3110 O.co2  21  ASP21      -0.2456
     34  N         22.1530    1.0330   25.4030 N.am   22  PRO22      -0.2715
     35  CA        21.3890    2.2860   25.2410 C.3    22  PRO22       0.1536
     36  C         20.3820    2.2860   24.1000 C.2    22  PRO22       0.2599
     37  O         19.6190    3.2530   23.9970 O.2    22  PRO22      -0.2715
     38  CB        22.4730    3.3380   24.9890 C.3    22  PRO22       0.0310
     39  CG        23.7100    2.7470   25.5500 C.3    22  PRO22       0.0237
     40  CD        23.6100    1.2740   25.3260 C.3    22  PRO22       0.0939
     41  N         20.3430    1.2680   23.2430 N.am   23  THR23      -0.1937
     42  CA        19.3310    1.2260   22.2040 C.3    23  THR23       0.2028
     43  C         18.0330    0.5680   22.6670 C.2    23  THR23       0.2642
     44  O         17.0520    0.5650   21.9160 O.2    23  THR23      -0.2714
     45  CB        19.8260    0.4930   20.9380 C.3    23  THR23       0.1808
     46  OG1       20.0020   -0.9040   21.1990 O.3    23  THR23      -0.2208
     47  CG2       21.1140    1.1220   20.4090 C.3    23  THR23       0.0379
     48  N         17.9940    0.0160   23.8670 N.am   24  CYS24      -0.1953
     49  CA        16.7670   -0.5900   24.3660 C.3    24  CYS24       0.1843
     50  C         15.8070    0.5020   24.8090 C.2    24  CYS24       0.2625
     51  O         16.1770    1.3860   25.5840 O.2    24  CYS24      -0.2714
     52  CB        17.0660   -1.5360   25.5100 C.3    24  CYS24       0.0997
     53  SG        18.1990   -2.8830   25.0450 S.3    24  CYS24      -0.0797
     54  N         14.5640    0.4310   24.3340 N.am   25  VAL25      -0.1977
     55  CA        13.6630    1.5730   24.3980 C.3    25  VAL25       0.1596
     56  C         12.2240    1.0890   24.5210 C.2    25  VAL25       0.2287
     57  O         11.8630    0.0210   24.0350 O.2    25  VAL25      -0.2864
     58  CB        13.8720    2.4760   23.1440 C.3    25  VAL25       0.0276
     59  CG1       13.4780    1.7540   21.8570 C.3    25  VAL25       0.0022
     60  CG2       13.1580    3.7530   23.2750 C.3    25  VAL25       0.0022
     61  N         14.2800    9.7600   24.7280 N.3    44  HIS44      -0.1241
     62  CA        14.8400    9.8440   23.3930 C.3    44  HIS44       0.1621
     63  C         13.7650   10.2980   22.4160 C.2    44  HIS44       0.2264
     64  O         12.6460    9.7580   22.3950 O.2    44  HIS44      -0.2867
     65  CB        15.4040    8.4720   22.9580 C.3    44  HIS44       0.0745
     66  CG        16.0650    8.4760   21.6060 C.ar   44  HIS44       0.0817
     67  ND1       15.4700    7.9420   20.4860 N.ar   44  HIS44      -0.2268
     68  CD2       17.2820    8.9200   21.2090 C.ar   44  HIS44       0.1154
     69  CE1       16.2830    8.0740   19.4500 C.ar   44  HIS44       0.1986
     70  NE2       17.3940    8.6600   19.8640 N.ar   44  HIS44      -0.2212
     71  N         12.7300    8.0660   13.7040 N.3    48  GLY48      -0.1210
     72  CA        11.7330    7.3630   12.9160 C.3    48  GLY48       0.1956
     73  C         12.2240    5.9980   12.4540 C.2    48  GLY48       0.2612
     74  O         13.2770    5.8960   11.8080 O.2    48  GLY48      -0.2717
     75  N         11.4850    4.9380   12.7920 N.am   49  GLY49      -0.1942
     76  CA        11.8100    3.5940   12.3460 C.3    49  GLY49       0.2014
     77  C         12.3400    2.6650   13.4350 C.2    49  GLY49       0.2639
     78  O         12.3970    1.4560   13.2040 O.2    49  GLY49      -0.2714
     79  N         12.7880    3.1860   14.5750 N.am   50  GLY50      -0.1939
     80  CA        13.0010    2.3410   15.7460 C.3    50  GLY50       0.2014
     81  C         11.7060    1.6950   16.1890 C.2    50  GLY50       0.2638
     82  O         10.6240    1.9640   15.6670 O.2    50  GLY50      -0.2714
     83  N         11.8130    0.7890   17.1650 N.am   51  PHE51      -0.1973
     84  CA        10.6260    0.0670   17.6010 C.3    51  PHE51       0.1639
     85  C         10.7150   -0.2300   19.0930 C.2    51  PHE51       0.2290
     86  O         11.8040   -0.2720   19.6830 O.2    51  PHE51      -0.2864
     87  CB        10.4200   -1.2300   16.7920 C.3    51  PHE51       0.0560
     88  CG        11.5140   -2.2340   16.9640 C.ar   51  PHE51      -0.0200
     89  CD1       12.6650   -2.1690   16.1990 C.ar   51  PHE51      -0.0042
     90  CD2       11.3980   -3.2540   17.8990 C.ar   51  PHE51      -0.0042
     91  CE1       13.6750   -3.0950   16.3750 C.ar   51  PHE51      -0.0003
     92  CE2       12.4150   -4.1770   18.0660 C.ar   51  PHE51      -0.0003
     93  CZ        13.5480   -4.0920   17.3060 C.ar   51  PHE51      -0.0000
     94  N         10.7180   -2.0980   22.5860 N.3    53  ASP53      -0.1239
     95  CA        11.2610   -3.3680   23.0600 C.3    53  ASP53       0.1674
     96  C         10.4860   -3.9520   24.2430 C.2    53  ASP53       0.2266
     97  O         10.9970   -4.8370   24.9360 O.2    53  ASP53      -0.2867
     98  CB        12.7260   -3.1890   23.4560 C.3    53  ASP53       0.1410
     99  CG        13.6020   -2.7820   22.2960 C.2    53  ASP53       0.3668
    100  OD1       13.5960   -3.5160   21.2720 O.co2  53  ASP53      -0.2456
    101  OD2       14.2920   -1.7360   22.4080 O.co2  53  ASP53      -0.2456
    102  N         10.5160   -7.8550   25.4350 N.3    56  ASP56      -0.1239
    103  CA        11.7350   -8.5290   25.0130 C.3    56  ASP56       0.1674
    104  C         12.5790   -8.8340   26.2460 C.2    56  ASP56       0.2266
    105  O         13.1820   -7.9260   26.8400 O.2    56  ASP56      -0.2867
    106  CB        12.4830   -7.6500   24.0190 C.3    56  ASP56       0.1410
    107  CG        13.7250   -8.3170   23.4560 C.2    56  ASP56       0.3668
    108  OD1       14.1340   -9.3710   23.9720 O.co2  56  ASP56      -0.2456
    109  OD2       14.3250   -7.7480   22.5140 O.co2  56  ASP56      -0.2456
    110  N         15.3090  -10.2150   26.4920 N.3    58  GLU58      -0.1231
    111  CA        16.7290   -9.9760   26.2850 C.3    58  GLU58       0.1699
    112  C         17.1300   -8.5140   26.4360 C.2    58  GLU58       0.2592
    113  O         18.3310   -8.2200   26.4860 O.2    58  GLU58      -0.2718
    114  CB        17.1300  -10.4360   24.8850 C.3    58  GLU58       0.0402
    115  CG        17.0200  -11.9160   24.6740 C.3    58  GLU58       0.1161
    116  CD        18.1830  -12.6500   25.2820 C.2    58  GLU58       0.3649
    117  OE1       19.2860  -12.0620   25.3610 O.co2  58  GLU58      -0.2457
    118  OE2       17.9940  -13.8080   25.6860 O.co2  58  GLU58      -0.2457
    119  N         16.1770   -7.5960   26.5220 N.am   59  ALA59      -0.1980
    120  CA        16.5020   -6.1800   26.4910 C.3    59  ALA59       0.1597
    121  C         16.5780   -5.5210   27.8580 C.2    59  ALA59       0.2287
    122  O         17.1460   -4.4290   27.9640 O.2    59  ALA59      -0.2864
    123  CB        15.4750   -5.4260   25.6370 C.3    59  ALA59       0.0319
@<TRIPOS>BOND
     1    74    73    2
     2    76    75    1
     3    76    77    1
     4    73    75   am
     5    73    72    1
     6    72    71    1
     7    78    77    2
     8    77    79   am
     9     4     3    2
    10    79    80    1
    11     3     2    1
    12    82    81    2
    13     1     2    1
    14    80    81    1
    15     2     5    1
    16    81    83   am
    17    89    91   ar
    18    89    88   ar
    19    91    93   ar
    20    87    88    1
    21    87    84    1
    22     5     6    1
    23    88    90   ar
    24    83    84    1
    25    93    92   ar
    26    84    85    1
    27    90    92   ar
    28     6     8   ar
    29     6     7   ar
    30     8    10   ar
    31     7     9   ar
    32    85    86    2
    33    69    70   ar
    34    69    67   ar
    35    10    11   ar
    36    70    68   ar
    37     9    11   ar
    38    47    45    1
    39    67    66   ar
    40    45    46    1
    41    45    42    1
    42    68    66   ar
    43   100    99   ar
    44    66    65    1
    45    59    58    1
    46    44    43    2
    47    42    43    1
    48    42    41    1
    49    99   101   ar
    50    99    98    1
    51    64    63    2
    52    63    62    1
    53   109   107   ar
    54    94    95    1
    55    43    48   am
    56    65    62    1
    57    95    98    1
    58    95    96    1
    59    58    60    1
    60    58    55    1
    61    41    36   am
    62    32    31   ar
    63    33    31   ar
    64    62    61    1
    65   107   108   ar
    66   107   106    1
    67    31    30    1
    68    48    49    1
    69    37    36    2
    70   106   103    1
    71    57    56    2
    72    36    35    1
    73    96    97    2
    74    54    55    1
    75    54    50   am
    76    49    50    1
    77    49    52    1
    78    55    56    1
    79   115   114    1
    80   115   116    1
    81    50    51    2
    82    30    27    1
    83   114   111    1
    84    38    35    1
    85    38    39    1
    86   103   102    1
    87   103   104    1
    88    53    52    1
    89    35    34    1
    90   116   117   ar
    91   116   118   ar
    92    40    34    1
    93    40    39    1
    94    34    28   am
    95   123   120    1
    96    28    29    2
    97    28    27    1
    98    27    26    1
    99   104   105    2
   100   111   112    1
   101   111   110    1
   102   112   113    2
   103   112   119   am
   104   120   119    1
   105   120   121    1
   106    26    20   am
   107    16    17    1
   108    16    13    1
   109    24    22    1
   110    12    13    1
   111    20    21    2
   112    20    19    1
   113    22    19    1
   114    22    23    1
   115    13    14    1
   116   121   122    2
   117    19    18    1
   118    23    25    1
   119    14    15    2
