@<TRIPOS>MOLECULE
tmp/5tdcB00.pdb
 137 132 0 0 0
SMALL
GASTEIGER

@<TRIPOS>ATOM
      1  N         -8.3430    3.5770    8.2940 N.3     6  PHE6       -0.1241
      2  CA        -6.9500    3.8390    8.6290 C.3     6  PHE6        0.1605
      3  C         -6.0920    3.9380    7.3860 C.2     6  PHE6        0.2264
      4  O         -6.2760    3.1930    6.4190 O.2     6  PHE6       -0.2867
      5  CB        -6.3960    2.7290    9.5100 C.3     6  PHE6        0.0534
      6  CG        -7.2080    2.4680   10.7420 C.ar    6  PHE6       -0.0203
      7  CD1       -7.6760    3.5000   11.5230 C.ar    6  PHE6       -0.0042
      8  CD2       -7.5020    1.1700   11.1170 C.ar    6  PHE6       -0.0042
      9  CE1       -8.4270    3.2590   12.6820 C.ar    6  PHE6       -0.0003
     10  CE2       -8.2590    0.9120   12.2560 C.ar    6  PHE6       -0.0003
     11  CZ        -8.7190    1.9660   13.0510 C.ar    6  PHE6       -0.0000
     12  N         -3.0090    2.5840   15.7870 N.3    12  THR12      -0.1218
     13  CA        -4.3520    2.2990   16.2650 C.3    12  THR12       0.1862
     14  C         -4.2400    1.5060   17.5560 C.2    12  THR12       0.2287
     15  O         -3.1520    1.0500   17.9390 O.2    12  THR12      -0.2866
     16  CB        -5.1570    1.5420   15.2140 C.3    12  THR12       0.1770
     17  OG1       -4.5410    0.2770   14.9860 O.3    12  THR12      -0.2211
     18  CG2       -5.2360    2.3540   13.9130 C.3    12  THR12       0.0375
     19  N         -6.0580   -1.3610   20.3700 N.3    14  SER14      -0.1217
     20  CA        -7.0090   -2.3810   20.7700 C.3    14  SER14       0.1889
     21  C         -6.9920   -2.4800   22.2880 C.2    14  SER14       0.2288
     22  O         -5.9450   -2.3160   22.9170 O.2    14  SER14      -0.2866
     23  CB        -6.6330   -3.7060   20.1100 C.3    14  SER14       0.2089
     24  OG        -7.6020   -4.7260   20.3250 O.3    14  SER14      -0.2183
     25  N        -13.3590   -8.3990   21.6960 N.3    20  ILE20      -0.1231
     26  CA       -13.8790   -9.7540   21.4960 C.3    20  ILE20       0.1692
     27  C        -12.8920  -10.6070   20.7090 C.2    20  ILE20       0.2592
     28  O        -12.8290  -11.8290   20.9080 O.2    20  ILE20      -0.2718
     29  CB       -15.2670   -9.6890   20.8280 C.3    20  ILE20       0.0266
     30  CG1      -16.2850   -9.0350   21.7740 C.3    20  ILE20       0.0019
     31  CG2      -15.7570  -11.0760   20.4260 C.3    20  ILE20       0.0020
     32  CD1      -16.3710   -9.6540   23.1430 C.3    20  ILE20       0.0001
     33  N        -12.1020  -10.0020   19.8290 N.am   21  ASP21      -0.1960
     34  CA       -11.0170  -10.7150   19.1720 C.3    21  ASP21       0.1825
     35  C         -9.9210   -9.7170   18.8340 C.2    21  ASP21       0.2464
     36  O        -10.0950   -8.4980   19.0030 O.2    21  ASP21      -0.2730
     37  CB       -11.5000  -11.4870   17.9300 C.3    21  ASP21       0.1450
     38  CG       -11.8800  -10.5950   16.7590 C.2    21  ASP21       0.3671
     39  OD1      -13.0150  -10.6990   16.2560 O.co2  21  ASP21      -0.2456
     40  OD2      -11.0300   -9.8270   16.2820 O.co2  21  ASP21      -0.2456
     41  N         -8.7510  -10.2000   18.4110 N.am   22  PRO22      -0.2715
     42  CA        -7.5960   -9.3070   18.2920 C.3    22  PRO22       0.1536
     43  C         -7.6840   -8.3230   17.1600 C.2    22  PRO22       0.2599
     44  O         -6.8480   -7.4170   17.1110 O.2    22  PRO22      -0.2715
     45  CB        -6.4230  -10.2780   18.0800 C.3    22  PRO22       0.0310
     46  CG        -6.9060  -11.5780   18.5520 C.3    22  PRO22       0.0237
     47  CD        -8.3550  -11.6150   18.2500 C.3    22  PRO22       0.0939
     48  N         -8.6550   -8.4570   16.2520 N.am   23  THR23      -0.1937
     49  CA        -8.8360   -7.5060   15.1590 C.3    23  THR23       0.2028
     50  C         -9.7090   -6.3140   15.5310 C.2    23  THR23       0.2642
     51  O         -9.8240   -5.3870   14.7190 O.2    23  THR23      -0.2714
     52  CB        -9.4630   -8.1940   13.9190 C.3    23  THR23       0.1808
     53  OG1      -10.8440   -8.5310   14.1520 O.3    23  THR23      -0.2208
     54  CG2       -8.6730   -9.4320   13.5420 C.3    23  THR23       0.0379
     55  N        -10.3000   -6.2980   16.7300 N.am   24  CYS24      -0.1953
     56  CA       -11.1250   -5.1750   17.1620 C.3    24  CYS24       0.1843
     57  C        -10.2370   -4.0020   17.5500 C.2    24  CYS24       0.2625
     58  O         -9.2810   -4.1680   18.3180 O.2    24  CYS24      -0.2714
     59  CB       -12.0060   -5.5960   18.3350 C.3    24  CYS24       0.0997
     60  SG       -13.1530   -6.9310   17.9300 S.3    24  CYS24      -0.0797
     61  N        -10.5330   -2.8110   17.0120 N.am   25  VAL25      -0.1977
     62  CA        -9.5780   -1.7090   17.0670 C.3    25  VAL25       0.1596
     63  C        -10.3230   -0.3800   17.1050 C.2    25  VAL25       0.2287
     64  O        -11.4550   -0.2680   16.6160 O.2    25  VAL25      -0.2864
     65  CB        -8.6260   -1.7910   15.8470 C.3    25  VAL25       0.0276
     66  CG1       -9.3890   -1.6240   14.5550 C.3    25  VAL25       0.0022
     67  CG2       -7.5260   -0.7890   15.9010 C.3    25  VAL25       0.0022
     68  N         -1.2290   -0.9780   17.3560 N.3    44  HIS44      -0.1241
     69  CA        -1.0160   -1.5990   16.0520 C.3    44  HIS44       0.1621
     70  C         -0.6270   -0.5340   15.0350 C.2    44  HIS44       0.2264
     71  O         -1.0640    0.6210   15.1290 O.2    44  HIS44      -0.2867
     72  CB        -2.2770   -2.3710   15.5920 C.3    44  HIS44       0.0745
     73  CG        -2.1390   -3.0700   14.2640 C.ar   44  HIS44       0.0817
     74  ND1       -2.7630   -2.6280   13.1120 N.ar   44  HIS44      -0.2268
     75  CD2       -1.4690   -4.1970   13.9140 C.ar   44  HIS44       0.1154
     76  CE1       -2.4880   -3.4540   12.1160 C.ar   44  HIS44       0.1986
     77  NE2       -1.6930   -4.4070   12.5730 N.ar   44  HIS44      -0.2212
     78  N         -1.6330   -1.1840    8.1420 N.3    47  THR47      -0.1203
     79  CA        -1.2010   -1.2990    6.7540 C.3    47  THR47       0.1994
     80  C         -1.9850   -0.3520    5.8510 C.2    47  THR47       0.2618
     81  O         -1.4660    0.1020    4.8290 O.2    47  THR47      -0.2717
     82  CB        -1.3690   -2.7350    6.2580 C.3    47  THR47       0.1784
     83  OG1       -2.7560   -3.0790    6.2450 O.3    47  THR47      -0.2211
     84  CG2       -0.6460   -3.6920    7.1520 C.3    47  THR47       0.0376
     85  N         -3.2240   -0.0450    6.2110 N.am   48  GLY48      -0.1942
     86  CA        -4.1150    0.8030    5.4240 C.3    48  GLY48       0.2014
     87  C         -5.3370   -0.0050    5.0340 C.2    48  GLY48       0.2639
     88  O         -5.2380   -1.1020    4.4990 O.2    48  GLY48      -0.2714
     89  N         -6.5180    0.5240    5.3550 N.am   49  GLY49      -0.1939
     90  CA        -7.7680   -0.0880    4.9640 C.3    49  GLY49       0.2014
     91  C         -8.5390   -0.7180    6.0990 C.2    49  GLY49       0.2639
     92  O         -9.7280   -1.0150    5.9310 O.2    49  GLY49      -0.2714
     93  N         -7.9000   -0.9610    7.2400 N.am   50  GLY50      -0.1939
     94  CA        -8.6500   -1.2720    8.4390 C.3    50  GLY50       0.2014
     95  C         -9.5280   -0.0960    8.7980 C.2    50  GLY50       0.2638
     96  O         -9.4020    0.9920    8.2320 O.2    50  GLY50      -0.2714
     97  N        -10.4210   -0.3090    9.7710 N.am   51  PHE51      -0.1973
     98  CA       -11.3710    0.7360   10.1390 C.3    51  PHE51       0.1639
     99  C        -11.6890    0.6900   11.6300 C.2    51  PHE51       0.2290
    100  O        -11.5500   -0.3470   12.2860 O.2    51  PHE51      -0.2864
    101  CB       -12.6280    0.6290    9.2730 C.3    51  PHE51       0.0560
    102  CG       -13.3980   -0.6750    9.4180 C.ar   51  PHE51      -0.0200
    103  CD1      -13.0780   -1.7840    8.6630 C.ar   51  PHE51      -0.0042
    104  CD2      -14.4470   -0.7550   10.3120 C.ar   51  PHE51      -0.0042
    105  CE1      -13.7950   -2.9650    8.8010 C.ar   51  PHE51      -0.0003
    106  CE2      -15.1540   -1.9210   10.4660 C.ar   51  PHE51      -0.0003
    107  CZ       -14.8320   -3.0230    9.7140 C.ar   51  PHE51      -0.0000
    108  N        -13.6710    0.5110   15.0340 N.3    53  ASP53      -0.1239
    109  CA       -14.8240   -0.2380   15.5140 C.3    53  ASP53       0.1674
    110  C        -15.5780    0.5090   16.6110 C.2    53  ASP53       0.2266
    111  O        -16.3390   -0.1000   17.3620 O.2    53  ASP53      -0.2867
    112  CB       -14.3920   -1.6300   16.0030 C.3    53  ASP53       0.1410
    113  CG       -13.7890   -2.4890   14.8990 C.2    53  ASP53       0.3668
    114  OD1      -14.4520   -2.6260   13.8380 O.co2  53  ASP53      -0.2456
    115  OD2      -12.6770   -3.0510   15.1190 O.co2  53  ASP53      -0.2456
    116  N        -19.4370   -0.3920   17.5160 N.3    56  ASP56      -0.1239
    117  CA       -19.7750   -1.7710   17.1860 C.3    56  ASP56       0.1674
    118  C        -20.0170   -2.5230   18.4890 C.2    56  ASP56       0.2266
    119  O        -19.0790   -2.9000   19.1960 O.2    56  ASP56      -0.2867
    120  CB       -18.6790   -2.4050   16.3440 C.3    56  ASP56       0.1410
    121  CG       -19.0340   -3.7970   15.8930 C.2    56  ASP56       0.3668
    122  OD1      -19.9830   -4.3950   16.4550 O.co2  56  ASP56      -0.2456
    123  OD2      -18.4040   -4.2770   14.9290 O.co2  56  ASP56      -0.2456
    124  N        -20.9300   -5.4280   19.0570 N.3    58  GLU58      -0.1231
    125  CA       -20.4490   -6.8040   19.0300 C.3    58  GLU58       0.1699
    126  C        -18.9400   -6.9250   19.1800 C.2    58  GLU58       0.2592
    127  O        -18.4370   -8.0480   19.2770 O.2    58  GLU58      -0.2718
    128  CB       -20.8830   -7.4730   17.7260 C.3    58  GLU58       0.0402
    129  CG       -22.4110   -7.5780   17.5840 C.3    58  GLU58       0.1161
    130  CD       -22.8700   -7.9110   16.1670 C.2    58  GLU58       0.3649
    131  OE1      -22.0130   -8.1720   15.2940 O.co2  58  GLU58      -0.2457
    132  OE2      -24.0970   -7.9040   15.9260 O.co2  58  GLU58      -0.2457
    133  N        -18.1950   -5.8220   19.1590 N.am   59  ALA59      -0.1980
    134  CA       -16.7410   -5.9120   19.1860 C.3    59  ALA59       0.1597
    135  C        -16.1390   -5.7710   20.5770 C.2    59  ALA59       0.2287
    136  O        -14.9700   -6.1130   20.7490 O.2    59  ALA59      -0.2864
    137  CB       -16.1410   -4.8520   18.2690 C.3    59  ALA59       0.0319
@<TRIPOS>BOND
     1    88    87    2
     2    81    80    2
     3    90    89    1
     4    90    91    1
     5    87    89   am
     6    87    86    1
     7    86    85    1
     8    80    85   am
     9    80    79    1
    10    92    91    2
    11    91    93   am
    12    83    82    1
    13    82    79    1
    14    82    84    1
    15     4     3    2
    16    79    78    1
    17    93    94    1
    18     3     2    1
    19    96    95    2
    20     1     2    1
    21    94    95    1
    22     2     5    1
    23   103   105   ar
    24   103   102   ar
    25    95    97   am
    26   105   107   ar
    27   101   102    1
    28   101    98    1
    29   102   104   ar
    30     5     6    1
    31   107   106   ar
    32    97    98    1
    33    98    99    1
    34   104   106   ar
    35     6     8   ar
    36     6     7   ar
    37     8    10   ar
    38     7     9   ar
    39    99   100    2
    40    76    77   ar
    41    76    74   ar
    42    10    11   ar
    43    77    75   ar
    44     9    11   ar
    45    74    73   ar
    46    54    52    1
    47   114   113   ar
    48    18    16    1
    49    75    73   ar
    50    52    53    1
    51    52    49    1
    52    73    72    1
    53    66    65    1
    54    51    50    2
    55   113   115   ar
    56   113   112    1
    57   123   121   ar
    58    17    16    1
    59   108   109    1
    60    70    71    2
    61    70    69    1
    62    49    50    1
    63    49    48    1
    64    16    13    1
    65   131   130   ar
    66   109   112    1
    67   109   110    1
    68    50    55   am
    69    72    69    1
    70    12    13    1
    71    65    67    1
    72    65    62    1
    73   121   120    1
    74   121   122   ar
    75   132   130   ar
    76    69    68    1
    77   130   129    1
    78    48    43   am
    79    39    38   ar
    80    13    14    1
    81    40    38   ar
    82   120   117    1
    83   110   111    2
    84    64    63    2
    85    55    56    1
    86    38    37    1
    87    61    62    1
    88    61    57   am
    89    62    63    1
    90    44    43    2
    91    43    42    1
    92    56    57    1
    93    56    59    1
    94   117   116    1
    95   117   118    1
    96    57    58    2
    97    14    15    2
    98   129   128    1
    99   128   125    1
   100    60    59    1
   101    37    34    1
   102    45    42    1
   103    45    46    1
   104    47    41    1
   105    47    46    1
   106   137   134    1
   107    42    41    1
   108    41    35   am
   109   118   119    2
   110    35    36    2
   111    35    34    1
   112   125   124    1
   113   125   126    1
   114   133   126   am
   115   133   134    1
   116    34    33    1
   117   126   127    2
   118   134   135    1
   119    33    27   am
   120    23    24    1
   121    23    20    1
   122    19    20    1
   123    31    29    1
   124   135   136    2
   125    27    28    2
   126    27    26    1
   127    20    21    1
   128    29    26    1
   129    29    30    1
   130    26    25    1
   131    30    32    1
   132    21    22    2
