@<TRIPOS>MOLECULE
tmp/5tdiA00.pdb
 146 142 0 0 0
SMALL
GASTEIGER

@<TRIPOS>ATOM
      1  N          1.7610   10.6040   -7.1020 N.3    19  GLN19      -0.1245
      2  CA         2.8330    9.6690   -7.4560 C.3    19  GLN19       0.1566
      3  C          4.1320   10.3520   -7.8870 C.2    19  GLN19       0.2260
      4  O          5.2010    9.7310   -7.9050 O.2    19  GLN19      -0.2867
      5  CB         2.3610    8.7330   -8.5660 C.3    19  GLN19       0.0367
      6  CG         2.1490    9.4240   -9.9050 C.3    19  GLN19       0.0905
      7  CD         1.5250    8.5030  -10.9250 C.2    19  GLN19       0.2608
      8  OE1        0.3380    8.1790  -10.8500 O.2    19  GLN19      -0.2717
      9  NE2        2.3260    8.0550  -11.8750 N.am   19  GLN19      -0.0878
     10  N          6.5920    6.2510  -12.3770 N.3    23  GLY23      -0.1225
     11  CA         5.4780    5.5920  -13.0500 C.3    23  GLY23       0.1811
     12  C          4.8240    4.5220  -12.1910 C.2    23  GLY23       0.2280
     13  O          4.7840    3.3420  -12.5600 O.2    23  GLY23      -0.2866
     14  N          1.5820    4.5450  -10.9520 N.3    25  CYS25      -0.1221
     15  CA         0.1250    4.6260  -10.9380 C.3    25  CYS25       0.1808
     16  C         -0.4880    3.3040  -10.5090 C.2    25  CYS25       0.2601
     17  O         -1.4240    3.2660   -9.7190 O.2    25  CYS25      -0.2717
     18  CB        -0.4080    5.0350  -12.3120 C.3    25  CYS25       0.0970
     19  SG         0.0740    3.9310  -13.6670 S.3    25  CYS25      -0.0800
     20  N          0.0710    2.2160  -11.0130 N.am   26  TRP26      -0.1976
     21  CA        -0.4260    0.8750  -10.7230 C.3    26  TRP26       0.1640
     22  C         -0.3540    0.5570   -9.2250 C.2    26  TRP26       0.2290
     23  O         -1.2080   -0.1480   -8.6880 O.2    26  TRP26      -0.2864
     24  CB         0.3770   -0.1360  -11.5300 C.3    26  TRP26       0.0576
     25  CG         1.8560   -0.0900  -11.2360 C.ar   26  TRP26       0.0006
     26  CD1        2.8080    0.6570  -11.8810 C.ar   26  TRP26       0.0946
     27  CD2        2.5500   -0.8320  -10.2270 C.ar   26  TRP26       0.0152
     28  NE1        4.0500    0.4300  -11.3270 N.ar   26  TRP26      -0.2442
     29  CE2        3.9180   -0.4830  -10.3130 C.ar   26  TRP26       0.0810
     30  CE3        2.1470   -1.7500   -9.2510 C.ar   26  TRP26       0.0012
     31  CZ2        4.8850   -1.0350   -9.4720 C.ar   26  TRP26       0.0191
     32  CZ3        3.1090   -2.2850   -8.4060 C.ar   26  TRP26       0.0001
     33  CH2        4.4630   -1.9340   -8.5280 C.ar   26  TRP26       0.0015
     34  N          8.3160   -8.1210   -8.2680 N.3    58  SER58      -0.1202
     35  CA         9.3490   -8.3800   -9.2680 C.3    58  SER58       0.2020
     36  C          8.7990   -8.4970  -10.6900 C.2    58  SER58       0.2619
     37  O          9.5280   -8.2720  -11.6560 O.2    58  SER58      -0.2717
     38  CB        10.1470   -9.6380   -8.9120 C.3    58  SER58       0.2103
     39  OG         9.3920  -10.8090   -9.1890 O.3    58  SER58      -0.2182
     40  N          7.5170   -8.8290  -10.8220 N.am   59  GLU59      -0.1965
     41  CA         6.9050   -8.9540  -12.1440 C.3    59  GLU59       0.1733
     42  C          6.3490   -7.6280  -12.6550 C.2    59  GLU59       0.2616
     43  O          5.7410   -7.5690  -13.7320 O.2    59  GLU59      -0.2715
     44  CB         5.8240  -10.0360  -12.1530 C.3    59  GLU59       0.0429
     45  CG         6.3650  -11.4420  -11.9850 C.3    59  GLU59       0.1163
     46  CD         7.4360  -11.7950  -13.0060 C.2    59  GLU59       0.3649
     47  OE1        7.2850  -11.4330  -14.2010 O.co2  59  GLU59      -0.2457
     48  OE2        8.4360  -12.4420  -12.6150 O.co2  59  GLU59      -0.2457
     49  N          6.5300   -6.5740  -11.8670 N.am   60  ASN60      -0.1958
     50  CA         6.2990   -5.2220  -12.3660 C.3    60  ASN60       0.1819
     51  C          7.6330   -4.5180  -12.5950 C.2    60  ASN60       0.2621
     52  O          8.6910   -5.1120  -12.3730 O.2    60  ASN60      -0.2715
     53  CB         5.3740   -4.4310  -11.4320 C.3    60  ASN60       0.1195
     54  CG         3.9240   -4.8300  -11.5920 C.2    60  ASN60       0.2630
     55  OD1        3.5450   -5.4320  -12.5960 O.2    60  ASN60      -0.2716
     56  ND2        3.1030   -4.4850  -10.6140 N.am   60  ASN60      -0.0877
     57  N          7.5880   -3.2630  -13.0390 N.am   61  ASP61      -0.1971
     58  CA         8.7990   -2.5700  -13.4620 C.3    61  ASP61       0.1709
     59  C          9.0760   -1.3210  -12.6310 C.2    61  ASP61       0.2293
     60  O          9.6760   -0.3670  -13.1240 O.2    61  ASP61      -0.2864
     61  CB         8.6940   -2.2030  -14.9460 C.3    61  ASP61       0.1436
     62  CG        10.0340   -1.8430  -15.5680 C.2    61  ASP61       0.3671
     63  OD1       11.0600   -2.4350  -15.1780 O.co2  61  ASP61      -0.2456
     64  OD2       10.0530   -0.9770  -16.4710 O.co2  61  ASP61      -0.2456
     65  N          9.2030    2.0790  -11.1940 N.3    63  CYS63      -0.1221
     66  CA         8.7710    3.3470  -11.7450 C.3    63  CYS63       0.1808
     67  C          8.5950    3.2950  -13.2590 C.2    63  CYS63       0.2602
     68  O          8.1790    4.2840  -13.8680 O.2    63  CYS63      -0.2717
     69  CB         9.7600    4.4480  -11.3580 C.3    63  CYS63       0.0970
     70  SG         9.7550    4.8710   -9.5830 S.3    63  CYS63      -0.0800
     71  N          8.8760    2.1380  -13.8580 N.am   64  GLY64      -0.1942
     72  CA         8.6520    1.9410  -15.2800 C.3    64  GLY64       0.2014
     73  C          7.2340    1.4930  -15.6040 C.2    64  GLY64       0.2639
     74  O          6.8410    1.4340  -16.7670 O.2    64  GLY64      -0.2714
     75  N          6.4520    1.1810  -14.5760 N.am   65  GLY65      -0.1939
     76  CA         5.0740    0.7590  -14.7720 C.3    65  GLY65       0.2014
     77  C          4.8130   -0.6430  -14.2750 C.2    65  GLY65       0.2639
     78  O          5.7210   -1.3200  -13.7950 O.2    65  GLY65      -0.2714
     79  N          3.5600   -1.0780  -14.3660 N.am   66  GLY66      -0.1939
     80  CA         3.1800   -2.3660  -13.8170 C.3    66  GLY66       0.2014
     81  C          1.6930   -2.6530  -13.8980 C.2    66  GLY66       0.2639
     82  O          0.9000   -1.8010  -14.3310 O.2    66  GLY66      -0.2714
     83  N          1.3270   -3.8690  -13.5020 N.am   67  TYR67      -0.1959
     84  CA        -0.0660   -4.3060  -13.4330 C.3    67  TYR67       0.1771
     85  C         -0.5310   -4.4440  -11.9850 C.2    67  TYR67       0.2619
     86  O          0.2230   -4.9070  -11.1100 O.2    67  TYR67      -0.2715
     87  CB        -0.2380   -5.6560  -14.1410 C.3    67  TYR67       0.0574
     88  CG        -0.1180   -5.5920  -15.6450 C.ar   67  TYR67      -0.0198
     89  CD1       -1.0470   -4.8920  -16.4040 C.ar   67  TYR67      -0.0009
     90  CD2        0.9060   -6.2590  -16.3110 C.ar   67  TYR67      -0.0009
     91  CE1       -0.9470   -4.8330  -17.7800 C.ar   67  TYR67       0.0417
     92  CE2        1.0110   -6.2070  -17.6930 C.ar   67  TYR67       0.0417
     93  CZ         0.0800   -5.4920  -18.4180 C.ar   67  TYR67       0.1957
     94  OH         0.1560   -5.4300  -19.7890 O.3    67  TYR67      -0.2866
     95  N         -1.7760   -4.0450  -11.7410 N.am   68  MET68      -0.1977
     96  CA        -2.3960   -4.1850  -10.4240 C.3    68  MET68       0.1605
     97  C         -2.5250   -5.6490  -10.0040 C.2    68  MET68       0.2287
     98  O         -2.3130   -5.9830   -8.8460 O.2    68  MET68      -0.2864
     99  CB        -3.7670   -3.5030  -10.3880 C.3    68  MET68       0.0413
    100  CG        -3.6980   -1.9800  -10.5800 C.3    68  MET68       0.0598
    101  SD        -3.3960   -1.4740  -12.2780 S.3    68  MET68      -0.1393
    102  CE        -5.0690   -1.3520  -12.8950 C.3    68  MET68       0.0692
    103  N         -7.9250    0.4470  -15.4710 N.3   134  ALA134     -0.1245
    104  CA        -6.9490    1.0040  -16.3990 C.3   134  ALA134      0.1562
    105  C         -7.6550    1.8330  -17.4640 C.2   134  ALA134      0.2260
    106  O         -8.7220    1.4490  -17.9560 O.2   134  ALA134     -0.2867
    107  CB        -6.1550   -0.1030  -17.0510 C.3   134  ALA134      0.0290
    108  N         -4.2200    1.6480  -23.2240 N.3   160  LEU160     -0.1231
    109  CA        -4.3580    1.6700  -21.7750 C.3   160  LEU160      0.1693
    110  C         -2.9950    1.9910  -21.2040 C.2   160  LEU160      0.2592
    111  O         -2.0460    1.2240  -21.3850 O.2   160  LEU160     -0.2718
    112  CB        -4.8250    0.3180  -21.2450 C.3   160  LEU160      0.0284
    113  CG        -6.2040   -0.1630  -21.6820 C.3   160  LEU160      0.0019
    114  CD1       -6.5250   -1.4420  -20.9350 C.3   160  LEU160      0.0001
    115  CD2       -7.2710    0.8950  -21.4280 C.3   160  LEU160      0.0001
    116  N         -2.8840    3.1260  -20.5240 N.am  161  ASN161     -0.1960
    117  CA        -1.5750    3.5790  -20.0720 C.3   161  ASN161      0.1819
    118  C         -1.5240    4.0850  -18.6400 C.2   161  ASN161      0.2621
    119  O         -0.4630    4.4780  -18.1630 O.2   161  ASN161     -0.2715
    120  CB        -1.0640    4.6630  -21.0170 C.3   161  ASN161      0.1195
    121  CG        -2.0930    5.7380  -21.2650 C.2   161  ASN161      0.2630
    122  OD1       -2.6970    6.2690  -20.3310 O.2   161  ASN161     -0.2716
    123  ND2       -2.3300    6.0410  -22.5360 N.am  161  ASN161     -0.0877
    124  N         -2.6600    4.0860  -17.9540 N.am  162  HIS162     -0.1959
    125  CA        -2.7180    4.6840  -16.6300 C.3   162  HIS162      0.1787
    126  C         -3.6930    3.9230  -15.7510 C.2   162  HIS162      0.2620
    127  O         -4.7550    3.4860  -16.2100 O.2   162  HIS162     -0.2715
    128  CB        -3.1180    6.1570  -16.7570 C.3   162  HIS162      0.0785
    129  CG        -3.0500    6.9220  -15.4710 C.ar  162  HIS162      0.0821
    130  ND1       -1.9360    6.9230  -14.6640 N.ar  162  HIS162     -0.2267
    131  CD2       -3.9670    7.7060  -14.8540 C.ar  162  HIS162      0.1154
    132  CE1       -2.1670    7.6720  -13.5990 C.ar  162  HIS162      0.1986
    133  NE2       -3.3880    8.1590  -13.6920 N.ar  162  HIS162     -0.2212
    134  N         -3.3040    3.7510  -14.4890 N.am  163  ALA163     -0.1977
    135  CA        -4.0970    3.0000  -13.5140 C.3   163  ALA163      0.1597
    136  C         -4.6940    3.9760  -12.5250 C.2   163  ALA163      0.2287
    137  O         -3.9740    4.8360  -12.0070 O.2   163  ALA163     -0.2864
    138  CB        -3.2130    2.0240  -12.7760 C.3   163  ALA163      0.0319
    139  N         -9.4570   -3.5420  -18.2270 N.3   209  LEU209     -0.1245
    140  CA        -8.4850   -4.1980  -17.3630 C.3   209  LEU209      0.1561
    141  C         -8.7310   -3.8140  -15.9140 C.2   209  LEU209      0.2260
    142  O         -7.8670   -3.2180  -15.2480 O.2   209  LEU209     -0.2867
    143  CB        -7.0580   -3.8740  -17.8080 C.3   209  LEU209      0.0270
    144  CG        -5.9520   -4.8140  -17.3190 C.3   209  LEU209      0.0019
    145  CD1       -6.0530   -6.1850  -17.9840 C.3   209  LEU209      0.0001
    146  CD2       -4.5650   -4.2080  -17.5350 C.3   209  LEU209      0.0001
@<TRIPOS>BOND
     1   108   109    1
     2   123   121   am
     3   109   112    1
     4   109   110    1
     5   113   115    1
     6   113   112    1
     7   113   114    1
     8   111   110    2
     9   121   120    1
    10   121   122    2
    11   110   116   am
    12   120   117    1
    13   116   117    1
    14   117   118    1
    15    94    93    1
    16   118   119    2
    17   118   124   am
    18    93    91   ar
    19    93    92   ar
    20   139   140    1
    21   145   144    1
    22   106   105    2
    23   124   125    1
    24   143   140    1
    25   143   144    1
    26    91    89   ar
    27    92    90   ar
    28   146   144    1
    29   105   104    1
    30   140   141    1
    31   107   104    1
    32    74    73    2
    33   128   125    1
    34   128   129    1
    35   125   126    1
    36    64    62   ar
    37    89    88   ar
    38   104   103    1
    39    90    88   ar
    40   127   126    2
    41   141   142    2
    42   126   134   am
    43    88    87    1
    44    73    72    1
    45    73    75   am
    46    62    63   ar
    47    62    61    1
    48   129   131   ar
    49   129   130   ar
    50    72    71    1
    51    61    58    1
    52   131   133   ar
    53    76    75    1
    54    76    77    1
    55   130   132   ar
    56   134   135    1
    57    79    77   am
    58    79    80    1
    59    82    81    2
    60    77    78    2
    61    47    46   ar
    62    87    84    1
    63    81    80    1
    64    81    83   am
    65    68    67    2
    66    71    67   am
    67    43    42    2
    68   133   132   ar
    69    19    18    1
    70   135   138    1
    71   135   136    1
    72    83    84    1
    73    58    57    1
    74    58    59    1
    75    84    85    1
    76    67    66    1
    77    60    59    2
    78    11    10    1
    79    11    12    1
    80    57    51   am
    81    46    48   ar
    82    46    45    1
    83   102   101    1
    84    42    41    1
    85    42    49   am
    86    55    54    2
    87    51    52    2
    88    51    50    1
    89    13    12    2
    90   136   137    2
    91    50    49    1
    92    50    53    1
    93    18    15    1
    94   101   100    1
    95    44    41    1
    96    44    45    1
    97    41    40    1
    98    85    95   am
    99    85    86    2
   100    26    28   ar
   101    26    25   ar
   102     9     7   am
   103    66    69    1
   104    66    65    1
   105    95    96    1
   106    37    36    2
   107    54    53    1
   108    54    56   am
   109    24    25    1
   110    24    21    1
   111    69    70    1
   112    28    29   ar
   113    25    27   ar
   114    20    21    1
   115    20    16   am
   116    14    15    1
   117    15    16    1
   118     7     8    2
   119     7     6    1
   120    40    36   am
   121    21    22    1
   122    36    35    1
   123   100    99    1
   124    16    17    2
   125    96    99    1
   126    96    97    1
   127    29    27   ar
   128    29    31   ar
   129    27    30   ar
   130    97    98    2
   131     6     5    1
   132    31    33   ar
   133    35    38    1
   134    35    34    1
   135    30    32   ar
   136    22    23    2
   137    39    38    1
   138     5     2    1
   139    33    32   ar
   140     4     3    2
   141     3     2    1
   142     2     1    1
