@<TRIPOS>MOLECULE
tmp/5tdmA01.pdb
 186 178 0 0 0
SMALL
GASTEIGER

@<TRIPOS>ATOM
      1  N          4.9280   26.9870    3.9540 N.3    55  VAL55      -0.1245
      2  CA         6.2850   26.6130    4.3200 C.3    55  VAL55       0.1561
      3  C          6.2670   25.1140    4.5120 C.2    55  VAL55       0.2260
      4  O          5.3450   24.5700    5.1230 O.2    55  VAL55      -0.2867
      5  CB         6.7470   27.3360    5.6120 C.3    55  VAL55       0.0252
      6  CG1        8.0760   26.8330    6.1350 C.3    55  VAL55       0.0019
      7  CG2        6.8820   28.8160    5.3460 C.3    55  VAL55       0.0019
      8  N          8.9880   21.6920    5.5290 N.3    57  LYS57      -0.1245
      9  CA        10.2610   21.4000    6.1420 C.3    57  LYS57       0.1561
     10  C         10.1620   20.0430    6.7940 C.2    57  LYS57       0.2260
     11  O          9.0820   19.6180    7.1880 O.2    57  LYS57      -0.2867
     12  CB        10.6300   22.4770    7.1260 C.3    57  LYS57       0.0271
     13  CG         9.6530   22.6410    8.2540 C.3    57  LYS57       0.0035
     14  CD         9.9040   23.8860    9.1360 C.3    57  LYS57       0.0206
     15  CE         8.8870   23.8290   10.3120 C.3    57  LYS57       0.1093
     16  NZ         8.7900   25.0670   11.1040 N.3    57  LYS57      -0.1314
     17  N         15.7360   17.2800   12.8980 N.3    62  ILE62      -0.1231
     18  CA        16.8620   17.8750   12.1960 C.3    62  ILE62       0.1692
     19  C         17.0090   19.3170   12.6310 C.2    62  ILE62       0.2592
     20  O         16.0880   20.1100   12.4790 O.2    62  ILE62      -0.2718
     21  CB        16.6770   17.7880   10.6690 C.3    62  ILE62       0.0266
     22  CG1       16.6700   16.3100   10.2510 C.3    62  ILE62       0.0019
     23  CG2       17.7970   18.5540   10.0230 C.3    62  ILE62       0.0020
     24  CD1       16.1780   16.0430    8.8150 C.3    62  ILE62       0.0001
     25  N         18.1970   19.6880   13.0740 N.am   63  LYS63      -0.1966
     26  CA        18.4630   21.0790   13.3850 C.3    63  LYS63       0.1728
     27  C         18.9200   21.8230   12.1440 C.2    63  LYS63       0.2616
     28  O         19.4800   21.2470   11.2180 O.2    63  LYS63      -0.2715
     29  CB        19.5460   21.1800   14.4630 C.3    63  LYS63       0.0311
     30  CG        19.0870   20.6180   15.8200 C.3    63  LYS63       0.0038
     31  CD        20.2140   20.6230   16.8630 C.3    63  LYS63       0.0206
     32  CE        19.7390   20.1630   18.2590 C.3    63  LYS63       0.1093
     33  NZ        20.7550   20.3720   19.3400 N.3    63  LYS63      -0.1314
     34  N         18.7640   23.1370   12.1720 N.am   64  ARG64      -0.1963
     35  CA        19.4700   23.9760   11.2270 C.3    64  ARG64       0.1729
     36  C         18.9650   23.6890    9.8380 C.2    64  ARG64       0.2616
     37  O         19.7410   23.6200    8.8830 O.2    64  ARG64      -0.2715
     38  CB        20.9950   23.7480   11.2650 C.3    64  ARG64       0.0348
     39  CG        21.7660   23.9280   12.5510 C.3    64  ARG64       0.0492
     40  CD        23.2470   23.4630   12.3260 C.3    64  ARG64       0.2205
     41  NE        23.9810   23.1930   13.5730 N.pl3  64  ARG64      -0.0865
     42  CZ        24.0410   22.0130   14.2010 C.cat  64  ARG64       0.5346
     43  NH1       23.4110   20.9450   13.7220 N.pl3  64  ARG64       0.1354
     44  NH2       24.7450   21.8970   15.3240 N.pl3  64  ARG64       0.1354
     45  N         17.6720   23.4390    9.7380 N.am   65  ARG65      -0.1963
     46  CA        17.1090   23.0380    8.4660 C.3    65  ARG65       0.1729
     47  C         17.2160   24.1610    7.4540 C.2    65  ARG65       0.2617
     48  O         17.4080   23.9170    6.2730 O.2    65  ARG65      -0.2715
     49  CB        15.6430   22.6250    8.6590 C.3    65  ARG65       0.0348
     50  CG        15.4900   21.4190    9.5250 C.3    65  ARG65       0.0492
     51  CD        14.0640   21.2240    9.9940 C.3    65  ARG65       0.2205
     52  NE        13.6300   22.3450   10.8290 N.pl3  65  ARG65      -0.0865
     53  CZ        12.4630   22.3890   11.4850 C.cat  65  ARG65       0.5346
     54  NH1       11.6100   21.3580   11.4300 N.pl3  65  ARG65       0.1354
     55  NH2       12.1280   23.4800   12.1810 N.pl3  65  ARG65       0.1354
     56  N         17.0560   25.4020    7.8810 N.am   66  GLY66      -0.1940
     57  CA        17.1900   26.4900    6.9320 C.3    66  GLY66       0.2014
     58  C         18.5800   26.5370    6.3210 C.2    66  GLY66       0.2638
     59  O         18.7340   26.6240    5.0950 O.2    66  GLY66      -0.2714
     60  N         19.6190   26.4490    7.1710 N.am   67  LYS67      -0.1977
     61  CA        20.9900   26.4100    6.6720 C.3    67  LYS67       0.1596
     62  C         21.2200   25.2210    5.7720 C.2    67  LYS67       0.2287
     63  O         22.0850   25.2710    4.9050 O.2    67  LYS67      -0.2864
     64  CB        21.9810   26.4070    7.8520 C.3    67  LYS67       0.0298
     65  CG        21.9300   27.7160    8.6670 C.3    67  LYS67       0.0038
     66  CD        22.9850   27.6950    9.7850 C.3    67  LYS67       0.0206
     67  CE        22.7610   28.8020   10.8040 C.3    67  LYS67       0.1093
     68  NZ        23.4940   28.5240   12.0770 N.3    67  LYS67      -0.1314
     69  N         14.1890   24.1140    4.3880 N.3    71  VAL71      -0.1245
     70  CA        12.9780   24.8610    4.6830 C.3    71  VAL71       0.1561
     71  C         12.5670   25.5510    3.3970 C.2    71  VAL71       0.2260
     72  O         13.3510   26.3530    2.8640 O.2    71  VAL71      -0.2867
     73  CB        13.2050   25.8970    5.7820 C.3    71  VAL71       0.0252
     74  CG1       11.8770   26.6590    6.0710 C.3    71  VAL71       0.0019
     75  CG2       13.7750   25.2140    7.0360 C.3    71  VAL71       0.0019
     76  N         10.1720   28.1220    1.6880 N.3    73  VAL73      -0.1245
     77  CA         9.5270   29.2950    2.2650 C.3    73  VAL73       0.1561
     78  C          8.6650   30.0010    1.2250 C.2    73  VAL73       0.2260
     79  O          9.1420   30.3140    0.1380 O.2    73  VAL73      -0.2867
     80  CB        10.5640   30.2800    2.8360 C.3    73  VAL73       0.0252
     81  CG1        9.8730   31.6070    3.2560 C.3    73  VAL73       0.0019
     82  CG2       11.3140   29.6860    4.0260 C.3    73  VAL73       0.0019
     83  N          2.9420   24.5100    6.6600 N.3   107  GLU107     -0.1231
     84  CA         2.2910   25.4840    7.5010 C.3   107  GLU107      0.1684
     85  C          2.1090   26.7530    6.7010 C.2   107  GLU107      0.2434
     86  O          2.8850   27.0260    5.7870 O.2   107  GLU107     -0.2733
     87  CB         3.1360   25.7860    8.7540 C.3   107  GLU107      0.0402
     88  CG         3.0920   24.6980    9.8280 C.3   107  GLU107      0.1161
     89  CD         4.0250   25.0550   10.9850 C.2   107  GLU107      0.3649
     90  OE1        5.2090   25.4190   10.7160 O.co2 107  GLU107     -0.2457
     91  OE2        3.5520   25.0170   12.1460 O.co2 107  GLU107     -0.2457
     92  N          1.1460   27.5860    7.0800 N.am  108  PRO108     -0.2718
     93  CA         1.0350   28.9070    6.4740 C.3   108  PRO108      0.1535
     94  C          2.3380   29.6590    6.5140 C.2   108  PRO108      0.2599
     95  O          3.0010   29.7300    7.5290 O.2   108  PRO108     -0.2715
     96  CB        -0.0130   29.6170    7.3480 C.3   108  PRO108      0.0310
     97  CG        -0.7410   28.4980    8.0090 C.3   108  PRO108      0.0237
     98  CD         0.2920   27.4870    8.2780 C.3   108  PRO108      0.0939
     99  N          2.6680   30.2720    5.4070 N.am  109  PHE109     -0.1960
    100  CA         3.6950   31.2880    5.4120 C.3   109  PHE109      0.1771
    101  C          3.1180   32.4920    6.1190 C.2   109  PHE109      0.2619
    102  O          1.9260   32.7780    5.9970 O.2   109  PHE109     -0.2715
    103  CB         4.1280   31.6210    3.9400 C.3   109  PHE109      0.0574
    104  CG         5.0590   32.8050    3.8350 C.ar  109  PHE109     -0.0200
    105  CD1        6.3500   32.7430    4.3090 C.ar  109  PHE109     -0.0042
    106  CD2        4.6270   33.9900    3.2730 C.ar  109  PHE109     -0.0042
    107  CE1        7.1740   33.8440    4.2230 C.ar  109  PHE109     -0.0003
    108  CE2        5.4450   35.0860    3.1980 C.ar  109  PHE109     -0.0003
    109  CZ         6.7280   35.0090    3.6640 C.ar  109  PHE109     -0.0000
    110  N          3.9710   33.1940    6.8600 N.am  110  VAL110     -0.1977
    111  CA         3.6060   34.3160    7.7190 C.3   110  VAL110      0.1596
    112  C          4.4880   35.4980    7.3290 C.2   110  VAL110      0.2287
    113  O          5.6540   35.5540    7.7200 O.2   110  VAL110     -0.2864
    114  CB         3.7550   33.9570    9.2170 C.3   110  VAL110      0.0276
    115  CG1        3.6120   35.1600   10.0950 C.3   110  VAL110      0.0022
    116  CG2        2.6960   32.9690    9.6410 C.3   110  VAL110      0.0022
    117  N          6.5080   38.7750    7.4830 N.3   112  HIS112     -0.1241
    118  CA         6.8780   39.6390    8.5800 C.3   112  HIS112      0.1621
    119  C          8.2350   40.2400    8.2900 C.2   112  HIS112      0.2264
    120  O          8.9700   39.7550    7.4280 O.2   112  HIS112     -0.2867
    121  CB         6.9120   38.8560    9.8850 C.3   112  HIS112      0.0745
    122  CG         7.9000   37.7350    9.8810 C.ar  112  HIS112      0.0817
    123  ND1        7.6370   36.5140    9.3010 N.ar  112  HIS112     -0.2268
    124  CD2        9.1560   37.6550   10.3710 C.ar  112  HIS112      0.1154
    125  CE1        8.6950   35.7310    9.4240 C.ar  112  HIS112      0.1986
    126  NE2        9.6210   36.3920   10.0870 N.ar  112  HIS112     -0.2212
    127  N         12.0980   41.2590    9.8070 N.3   114  GLN114     -0.1245
    128  CA        13.0590   40.5660   10.6620 C.3   114  GLN114      0.1566
    129  C         13.0010   41.0940   12.0910 C.2   114  GLN114      0.2260
    130  O         13.3460   40.3900   13.0420 O.2   114  GLN114     -0.2867
    131  CB        14.4620   40.7320   10.0750 C.3   114  GLN114      0.0367
    132  CG        15.5300   39.7390   10.6290 C.3   114  GLN114      0.0905
    133  CD        15.4770   38.3520    9.9590 C.2   114  GLN114      0.2608
    134  OE1       15.1500   38.2320    8.7720 O.2   114  GLN114     -0.2717
    135  NE2       15.7910   37.2970   10.7340 N.am  114  GLN114     -0.0878
    136  N         10.9070   38.9390   14.4270 N.3   117  GLU117     -0.1245
    137  CA        11.3630   37.6380   14.8900 C.3   117  GLU117      0.1567
    138  C         12.0390   37.7630   16.2720 C.2   117  GLU117      0.2260
    139  O         12.8860   38.6350   16.4870 O.2   117  GLU117     -0.2867
    140  CB        12.3320   37.0130   13.9000 C.3   117  GLU117      0.0388
    141  CG        11.8050   36.8430   12.4770 C.3   117  GLU117      0.1160
    142  CD        12.6590   35.8700   11.6560 C.2   117  GLU117      0.3649
    143  OE1       13.8500   35.6840   11.9780 O.co2 117  GLU117     -0.2457
    144  OE2       12.1360   35.2620   10.7130 O.co2 117  GLU117     -0.2457
    145  N         15.8310   33.9450   14.5700 N.3   138  GLY138     -0.1210
    146  CA        16.0690   33.5310   13.2010 C.3   138  GLY138      0.1956
    147  C         17.2840   32.6370   13.0720 C.2   138  GLY138      0.2611
    148  O         17.9840   32.3370   14.0370 O.2   138  GLY138     -0.2717
    149  N         17.5270   32.2280   11.8270 N.am  139  VAL139     -0.1979
    150  CA        18.5790   31.2690   11.5080 C.3   139  VAL139      0.1595
    151  C         19.9740   31.7920   11.8330 C.2   139  VAL139      0.2287
    152  O         20.9090   30.9940   11.9610 O.2   139  VAL139     -0.2864
    153  CB        18.5070   30.8860   10.0150 C.3   139  VAL139      0.0276
    154  CG1       17.2450   30.0830    9.7270 C.3   139  VAL139      0.0022
    155  CG2       18.6050   32.1590    9.1370 C.3   139  VAL139      0.0022
    156  N         12.2850   29.2520   17.8360 N.3   199  ASN199     -0.1226
    157  CA        13.1530   30.1390   17.0890 C.3   199  ASN199      0.1770
    158  C         12.8540   30.0170   15.5760 C.2   199  ASN199      0.2439
    159  O         13.2270   29.0250   14.9640 O.2   199  ASN199     -0.2733
    160  CB        14.5630   29.7750   17.3490 C.3   199  ASN199      0.1168
    161  CG        15.5480   30.6590   16.6260 C.2   199  ASN199      0.2627
    162  OD1       15.3640   31.8750   16.4230 O.2   199  ASN199     -0.2716
    163  ND2       16.6450   30.0530   16.2950 N.am  199  ASN199     -0.0877
    164  N         12.1510   30.9940   15.0140 N.am  200  PRO200     -0.2729
    165  CA        11.6260   32.1990   15.6660 C.3   200  PRO200      0.1401
    166  C         10.2000   32.1390   16.1620 C.2   200  PRO200      0.2269
    167  O          9.3520   31.3690   15.6870 O.2   200  PRO200     -0.2865
    168  CB        11.7110   33.2280   14.5710 C.3   200  PRO200      0.0296
    169  CG        11.4210   32.4300   13.3550 C.3   200  PRO200      0.0237
    170  CD        11.9150   31.0480   13.5640 C.3   200  PRO200      0.0939
    171  N          6.6570   29.8580   14.7660 N.3   211  LEU211     -0.1231
    172  CA         7.1090   29.3330   13.4770 C.3   211  LEU211      0.1693
    173  C          7.9430   28.0650   13.5740 C.2   211  LEU211      0.2592
    174  O          7.9720   27.2810   12.6190 O.2   211  LEU211     -0.2718
    175  CB         7.9020   30.4020   12.7480 C.3   211  LEU211      0.0284
    176  CG         7.0740   31.2690   11.8070 C.3   211  LEU211      0.0019
    177  CD1        5.8610   31.7890   12.4790 C.3   211  LEU211      0.0001
    178  CD2        7.8960   32.4110   11.3270 C.3   211  LEU211      0.0001
    179  N          8.6130   27.8370   14.6930 N.am  212  ASP212     -0.1974
    180  CA         9.4950   26.6880   14.8700 C.3   212  ASP212      0.1709
    181  C          9.4100   26.2560   16.3250 C.2   212  ASP212      0.2293
    182  O          9.2120   27.0960   17.1930 O.2   212  ASP212     -0.2864
    183  CB        10.9560   27.0540   14.5550 C.3   212  ASP212      0.1436
    184  CG        11.8980   25.8040   14.5120 C.2   212  ASP212      0.3671
    185  OD1       11.3630   24.6660   14.5900 O.co2 212  ASP212     -0.2456
    186  OD2       13.1490   25.9500   14.3500 O.co2 212  ASP212     -0.2456
@<TRIPOS>BOND
     1    79    78    2
     2    78    77    1
     3    76    77    1
     4    77    80    1
     5    80    81    1
     6    80    82    1
     7    72    71    2
     8   108   106   ar
     9   108   109   ar
    10   106   104   ar
    11    71    70    1
    12   109   107   ar
    13   104   103    1
    14   104   105   ar
    15   103   100    1
    16     1     2    1
    17   107   105   ar
    18     2     3    1
    19     2     5    1
    20    69    70    1
    21     3     4    2
    22    70    73    1
    23    63    62    2
    24    59    58    2
    25     7     5    1
    26    99   100    1
    27    99    94   am
    28   100   101    1
    29     8     9    1
    30     5     6    1
    31    62    61    1
    32    73    74    1
    33    73    75    1
    34    86    85    2
    35   102   101    2
    36   101   110   am
    37     9    10    1
    38     9    12    1
    39    48    47    2
    40    58    57    1
    41    58    60   am
    42    93    94    1
    43    93    92    1
    44    93    96    1
    45    94    95    2
    46    83    84    1
    47    61    60    1
    48    61    64    1
    49    85    92   am
    50    85    84    1
    51    10    11    2
    52   110   111    1
    53    57    56    1
    54    92    98    1
    55    12    13    1
    56   112   111    1
    57   112   113    2
    58    96    97    1
    59   120   119    2
    60    47    56   am
    61    47    46    1
    62   117   118    1
    63    84    87    1
    64   111   114    1
    65    64    65    1
    66    97    98    1
    67    13    14    1
    68   119   118    1
    69    46    49    1
    70    46    45    1
    71   118   121    1
    72    49    50    1
    73    65    66    1
    74    87    88    1
    75   134   133    2
    76    24    22    1
    77    37    36    2
    78    14    15    1
    79   155   153    1
    80   114   116    1
    81   114   115    1
    82   123   125   ar
    83   123   122   ar
    84   125   126   ar
    85    50    51    1
    86   154   153    1
    87    45    36   am
    88    66    67    1
    89   127   128    1
    90    88    89    1
    91    36    35    1
    92   122   121    1
    93   122   124   ar
    94   133   132    1
    95   133   135   am
    96    51    52    1
    97   153   150    1
    98    23    21    1
    99   131   132    1
   100   131   128    1
   101   126   124   ar
   102    22    21    1
   103    15    16    1
   104   128   129    1
   105    21    18    1
   106   144   142   ar
   107    90    89   ar
   108    67    68    1
   109    52    53    2
   110    89    91   ar
   111    28    27    2
   112    35    38    1
   113    35    34    1
   114    38    39    1
   115   178   176    1
   116    54    53    1
   117    53    55    1
   118   150   149    1
   119   150   151    1
   120   142   143   ar
   121   142   141    1
   122   176   177    1
   123   176   175    1
   124   149   147   am
   125   151   152    2
   126   129   130    2
   127    27    34   am
   128    27    26    1
   129    18    19    1
   130    18    17    1
   131    40    39    1
   132    40    41    1
   133   141   140    1
   134    20    19    2
   135   174   173    2
   136    19    25   am
   137   175   172    1
   138   147   146    1
   139   147   148    2
   140    25    26    1
   141   146   145    1
   142   169   170    1
   143   169   168    1
   144    26    29    1
   145   172   173    1
   146   172   171    1
   147   170   164    1
   148    41    42    2
   149   173   179   am
   150    43    42    1
   151   140   137    1
   152    42    44    1
   153   186   184   ar
   154   136   137    1
   155    29    30    1
   156   184   183    1
   157   184   185   ar
   158   183   180    1
   159   168   165    1
   160   179   180    1
   161   180   181    1
   162   137   138    1
   163   159   158    2
   164   164   158   am
   165   164   165    1
   166   158   157    1
   167   165   166    1
   168   167   166    2
   169    30    31    1
   170   138   139    2
   171   163   161   am
   172   181   182    2
   173   162   161    2
   174   161   160    1
   175    31    32    1
   176   157   160    1
   177   157   156    1
   178    32    33    1
