@<TRIPOS>MOLECULE
tmp/5tdsA03.pdb
 128 126 0 0 0
SMALL
GASTEIGER

@<TRIPOS>ATOM
      1  N         18.1200   61.8620   28.9900 N.3    95  HIS95      -0.1241
      2  CA        16.8960   61.1500   28.6340 C.3    95  HIS95       0.1621
      3  C         15.6670   61.7310   29.3320 C.2    95  HIS95       0.2264
      4  O         14.6700   62.0760   28.6880 O.2    95  HIS95      -0.2867
      5  CB        17.0090   59.6640   28.9880 C.3    95  HIS95       0.0745
      6  CG        15.7150   58.9250   28.8620 C.ar   95  HIS95       0.0817
      7  ND1       15.3320   58.2890   27.7000 N.ar   95  HIS95      -0.2268
      8  CD2       14.7050   58.7340   29.7460 C.ar   95  HIS95       0.1154
      9  CE1       14.1470   57.7300   27.8770 C.ar   95  HIS95       0.1986
     10  NE2       13.7450   57.9860   29.1090 N.ar   95  HIS95      -0.2212
     11  N         12.5750   63.7970   27.4840 N.3    99  ILE99      -0.1245
     12  CA        11.4730   62.8760   27.1940 C.3    99  ILE99       0.1561
     13  C         10.2490   62.9870   28.1100 C.2    99  ILE99       0.2260
     14  O          9.1180   62.9320   27.6320 O.2    99  ILE99      -0.2867
     15  CB        11.9810   61.4020   27.2470 C.3    99  ILE99       0.0252
     16  CG1       13.0380   61.1590   26.1680 C.3    99  ILE99       0.0019
     17  CG2       10.8230   60.4160   27.1090 C.3    99  ILE99       0.0019
     18  CD1       12.5070   61.2920   24.7690 C.3    99  ILE99       0.0001
     19  N         10.2660   70.6250   17.7410 N.3   174  PHE174     -0.1227
     20  CA         9.9490   69.3850   17.0390 C.3   174  PHE174      0.1736
     21  C          8.6100   68.7990   17.5060 C.2   174  PHE174      0.2595
     22  O          7.7330   68.5050   16.6860 O.2   174  PHE174     -0.2718
     23  CB        11.0700   68.3660   17.2240 C.3   174  PHE174      0.0547
     24  CG        10.7250   66.9860   16.7320 C.ar  174  PHE174     -0.0202
     25  CD1       10.4740   66.7530   15.3820 C.ar  174  PHE174     -0.0042
     26  CD2       10.6570   65.9280   17.6140 C.ar  174  PHE174     -0.0042
     27  CE1       10.1620   65.4750   14.9220 C.ar  174  PHE174     -0.0003
     28  CE2       10.3470   64.6470   17.1680 C.ar  174  PHE174     -0.0003
     29  CZ        10.0940   64.4210   15.8170 C.ar  174  PHE174     -0.0000
     30  N          8.4410   68.6350   18.8160 N.am  175  PHE175     -0.1976
     31  CA         7.2380   67.9650   19.3010 C.3   175  PHE175      0.1639
     32  C          6.0050   68.8340   19.1500 C.2   175  PHE175      0.2290
     33  O          4.9050   68.3140   18.9510 O.2   175  PHE175     -0.2864
     34  CB         7.4060   67.5140   20.7540 C.3   175  PHE175      0.0560
     35  CG         8.3600   66.3720   20.9060 C.ar  175  PHE175     -0.0200
     36  CD1        8.1940   65.2190   20.1510 C.ar  175  PHE175     -0.0042
     37  CD2        9.4460   66.4600   21.7670 C.ar  175  PHE175     -0.0042
     38  CE1        9.0870   64.1630   20.2660 C.ar  175  PHE175     -0.0003
     39  CE2       10.3380   65.4090   21.8880 C.ar  175  PHE175     -0.0003
     40  CZ        10.1610   64.2580   21.1330 C.ar  175  PHE175     -0.0000
     41  N          7.5800   58.9190   13.9700 N.3   195  PHE195     -0.1241
     42  CA         8.4050   59.0470   15.1620 C.3   195  PHE195      0.1605
     43  C          8.3870   57.8100   16.0670 C.2   195  PHE195      0.2264
     44  O          9.4410   57.2790   16.4180 O.2   195  PHE195     -0.2867
     45  CB         7.9880   60.2790   15.9710 C.3   195  PHE195      0.0534
     46  CG         8.8410   60.5160   17.1820 C.ar  195  PHE195     -0.0203
     47  CD1       10.1790   60.8410   17.0460 C.ar  195  PHE195     -0.0042
     48  CD2        8.3120   60.4020   18.4550 C.ar  195  PHE195     -0.0042
     49  CE1       10.9780   61.0530   18.1560 C.ar  195  PHE195     -0.0003
     50  CE2        9.1070   60.6200   19.5790 C.ar  195  PHE195     -0.0003
     51  CZ        10.4420   60.9430   19.4260 C.ar  195  PHE195     -0.0000
     52  N         11.2500   55.5430   15.1010 N.3   199  PHE199     -0.1227
     53  CA        12.4410   55.8050   15.9160 C.3   199  PHE199      0.1736
     54  C         12.3600   55.2800   17.3470 C.2   199  PHE199      0.2596
     55  O         13.2500   54.5710   17.8040 O.2   199  PHE199     -0.2718
     56  CB        12.7240   57.3120   15.9940 C.3   199  PHE199      0.0547
     57  CG        13.3190   57.9010   14.7460 C.ar  199  PHE199     -0.0202
     58  CD1       12.5070   58.3030   13.6920 C.ar  199  PHE199     -0.0042
     59  CD2       14.6910   58.0960   14.6390 C.ar  199  PHE199     -0.0042
     60  CE1       13.0520   58.8680   12.5450 C.ar  199  PHE199     -0.0003
     61  CE2       15.2450   58.6660   13.4920 C.ar  199  PHE199     -0.0003
     62  CZ        14.4200   59.0540   12.4450 C.ar  199  PHE199     -0.0000
     63  N         11.3210   55.6660   18.0820 N.am  200  THR200     -0.1953
     64  CA        11.3560   55.4520   19.5310 C.3   200  THR200      0.1897
     65  C         11.2260   53.9810   19.9030 C.2   200  THR200      0.2313
     66  O         11.7590   53.5440   20.9220 O.2   200  THR200     -0.2863
     67  CB        10.2620   56.2520   20.2700 C.3   200  THR200      0.1794
     68  OG1        8.9740   55.7640   19.9000 O.3   200  THR200     -0.2208
     69  CG2       10.3520   57.7250   19.9320 C.3   200  THR200      0.0378
     70  N         14.7000   52.6060   19.6530 N.3   203  GLN203     -0.1231
     71  CA        15.6180   53.3180   20.5340 C.3   203  GLN203      0.1698
     72  C         15.3730   52.9650   22.0040 C.2   203  GLN203      0.2592
     73  O         16.3070   52.9660   22.8090 O.2   203  GLN203     -0.2718
     74  CB        15.5100   54.8270   20.3190 C.3   203  GLN203      0.0381
     75  CG        16.7210   55.6000   20.8200 C.3   203  GLN203      0.0905
     76  CD        16.5780   56.0460   22.2610 C.2   203  GLN203      0.2608
     77  OE1       15.4670   56.2230   22.7570 O.2   203  GLN203     -0.2717
     78  NE2       17.7060   56.2330   22.9410 N.am  203  GLN203     -0.0878
     79  N         14.1290   52.6530   22.3580 N.am  204  PHE204     -0.1976
     80  CA        13.8420   52.2110   23.7150 C.3   204  PHE204      0.1639
     81  C         14.3440   50.7790   23.9240 C.2   204  PHE204      0.2290
     82  O         14.8260   50.4470   24.9980 O.2   204  PHE204     -0.2864
     83  CB        12.3480   52.3340   24.0350 C.3   204  PHE204      0.0560
     84  CG        11.9500   53.7040   24.5360 C.ar  204  PHE204     -0.0200
     85  CD1       12.4940   54.8400   23.9710 C.ar  204  PHE204     -0.0042
     86  CD2       11.0430   53.8540   25.5730 C.ar  204  PHE204     -0.0042
     87  CE1       12.1330   56.1080   24.4240 C.ar  204  PHE204     -0.0003
     88  CE2       10.6790   55.1170   26.0300 C.ar  204  PHE204     -0.0003
     89  CZ        11.2200   56.2420   25.4530 C.ar  204  PHE204     -0.0000
     90  N         12.7060   64.3270   12.9260 N.3   264  ALA264     -0.1245
     91  CA        13.0120   63.3800   13.9900 C.3   264  ALA264      0.1562
     92  C         14.4990   63.0680   13.9830 C.2   264  ALA264      0.2260
     93  O         15.1490   63.0330   15.0200 O.2   264  ALA264     -0.2867
     94  CB        12.1920   62.1010   13.8290 C.3   264  ALA264      0.0290
     95  N         16.9460   65.7380   15.6020 N.3   267  LEU267     -0.1231
     96  CA        16.8860   65.7430   17.0630 C.3   267  LEU267      0.1693
     97  C         17.4930   64.4620   17.6340 C.2   267  LEU267      0.2592
     98  O         18.1680   64.4880   18.6540 O.2   267  LEU267     -0.2718
     99  CB        15.4400   65.9040   17.5490 C.3   267  LEU267      0.0284
    100  CG        15.2760   66.0760   19.0630 C.3   267  LEU267      0.0019
    101  CD1       15.9050   67.3840   19.5320 C.3   267  LEU267      0.0001
    102  CD2       13.8080   65.9970   19.4430 C.3   267  LEU267      0.0001
    103  N         17.2370   63.3400   16.9720 N.am  268  PHE268     -0.1976
    104  CA        17.7790   62.0540   17.3960 C.3   268  PHE268      0.1639
    105  C         19.3100   62.0990   17.3710 C.2   268  PHE268      0.2290
    106  O         19.9840   61.5700   18.2540 O.2   268  PHE268     -0.2864
    107  CB        17.2440   60.9470   16.4830 C.3   268  PHE268      0.0560
    108  CG        17.4870   59.5530   16.9900 C.ar  268  PHE268     -0.0200
    109  CD1       16.9770   59.1470   18.2090 C.ar  268  PHE268     -0.0042
    110  CD2       18.1860   58.6360   16.2210 C.ar  268  PHE268     -0.0042
    111  CE1       17.1830   57.8600   18.6690 C.ar  268  PHE268     -0.0003
    112  CE2       18.3960   57.3430   16.6750 C.ar  268  PHE268     -0.0003
    113  CZ        17.8940   56.9550   17.9010 C.ar  268  PHE268     -0.0000
    114  N         20.6010   64.0520   20.4930 N.3   271  LEU271     -0.1231
    115  CA        20.2710   63.4920   21.8030 C.3   271  LEU271      0.1693
    116  C         20.8160   62.0850   22.0160 C.2   271  LEU271      0.2592
    117  O         21.2490   61.7510   23.1140 O.2   271  LEU271     -0.2718
    118  CB        18.7500   63.4890   22.0160 C.3   271  LEU271      0.0284
    119  CG        18.0750   64.8660   22.1220 C.3   271  LEU271      0.0019
    120  CD1       16.5750   64.7410   22.4240 C.3   271  LEU271      0.0001
    121  CD2       18.7670   65.7590   23.1610 C.3   271  LEU271      0.0001
    122  N         20.8040   61.2590   20.9740 N.am  272  THR272     -0.1953
    123  CA        21.1740   59.8550   21.1310 C.3   272  THR272      0.1897
    124  C         22.4990   59.4860   20.4710 C.2   272  THR272      0.2313
    125  O         23.2180   58.6350   20.9730 O.2   272  THR272     -0.2863
    126  CB        20.0540   58.9510   20.5850 C.3   272  THR272      0.1794
    127  OG1       18.9140   59.0880   21.4430 O.3   272  THR272     -0.2208
    128  CG2       20.4860   57.4910   20.5560 C.3   272  THR272      0.0378
@<TRIPOS>BOND
     1    62    60   ar
     2    62    61   ar
     3    60    58   ar
     4    90    91    1
     5    61    59   ar
     6    58    57   ar
     7    94    91    1
     8    41    42    1
     9    92    91    1
    10    92    93    2
    11    59    57   ar
    12    57    56    1
    13    27    25   ar
    14    27    29   ar
    15    52    53    1
    16    42    45    1
    17    42    43    1
    18    25    24   ar
    19    95    96    1
    20    29    28   ar
    21    53    56    1
    22    53    54    1
    23    45    46    1
    24    43    44    2
    25   110   112   ar
    26   110   108   ar
    27   107   108    1
    28   107   104    1
    29   112   113   ar
    30    22    21    2
    31    24    23    1
    32    24    26   ar
    33   103   104    1
    34   103    97   am
    35   108   109   ar
    36    20    23    1
    37    20    21    1
    38    20    19    1
    39    47    46   ar
    40    47    49   ar
    41    96    99    1
    42    96    97    1
    43    28    26   ar
    44    46    48   ar
    45    54    55    2
    46    54    63   am
    47   105   104    1
    48   105   106    2
    49    21    30   am
    50    99   100    1
    51    97    98    2
    52   113   111   ar
    53    63    64    1
    54    49    51   ar
    55   109   111   ar
    56    48    50   ar
    57    30    31    1
    58    33    32    2
    59   100   102    1
    60   100   101    1
    61    32    31    1
    62    31    34    1
    63    51    50   ar
    64    64    65    1
    65    64    67    1
    66    70    71    1
    67    68    67    1
    68    65    66    2
    69    69    67    1
    70    36    38   ar
    71    36    35   ar
    72    38    40   ar
    73    74    71    1
    74    74    75    1
    75   124   125    2
    76   124   123    1
    77   114   115    1
    78    71    72    1
    79   128   126    1
    80   126   123    1
    81   126   127    1
    82    34    35    1
    83    75    76    1
    84    35    37   ar
    85   122   123    1
    86   122   116   am
    87    40    39   ar
    88    37    39   ar
    89   115   116    1
    90   115   118    1
    91    72    79   am
    92    72    73    2
    93   116   117    2
    94   118   119    1
    95   119   120    1
    96   119   121    1
    97    76    77    2
    98    76    78   am
    99    79    80    1
   100    80    81    1
   101    80    83    1
   102    81    82    2
   103    85    87   ar
   104    85    84   ar
   105    83    84    1
   106    87    89   ar
   107    84    86   ar
   108    18    16    1
   109    89    88   ar
   110    86    88   ar
   111    16    15    1
   112    17    15    1
   113    12    15    1
   114    12    11    1
   115    12    13    1
   116    14    13    2
   117     7     9   ar
   118     7     6   ar
   119     9    10   ar
   120     2     5    1
   121     2     1    1
   122     2     3    1
   123     4     3    2
   124     6     5    1
   125     6     8   ar
   126    10     8   ar
