@<TRIPOS>MOLECULE
tmp/5tdsA01.pdb
 104 99 0 0 0
SMALL
GASTEIGER

@<TRIPOS>ATOM
      1  N         18.5650   75.6280   25.1180 N.3   166  TRP166     -0.1241
      2  CA        18.5550   75.4850   23.6620 C.3   166  TRP166      0.1605
      3  C         18.0610   74.1020   23.2030 C.2   166  TRP166      0.2264
      4  O         17.2990   74.0100   22.2490 O.2   166  TRP166     -0.2867
      5  CB        19.9440   75.7760   23.0680 C.3   166  TRP166      0.0550
      6  CG        20.9770   74.7690   23.4090 C.ar  166  TRP166      0.0003
      7  CD1       21.8410   74.8060   24.4630 C.ar  166  TRP166      0.0946
      8  CD2       21.2660   73.5590   22.6910 C.ar  166  TRP166      0.0152
      9  NE1       22.6530   73.6900   24.4470 N.ar  166  TRP166     -0.2442
     10  CE2       22.3120   72.9070   23.3770 C.ar  166  TRP166      0.0810
     11  CE3       20.7300   72.9560   21.5480 C.ar  166  TRP166      0.0012
     12  CZ2       22.8380   71.6850   22.9530 C.ar  166  TRP166      0.0191
     13  CZ3       21.2530   71.7380   21.1290 C.ar  166  TRP166      0.0001
     14  CH2       22.2960   71.1180   21.8300 C.ar  166  TRP166      0.0015
     15  N         29.8680   69.8710   19.6610 N.3   333  GLY333     -0.1225
     16  CA        29.2110   71.1090   20.0610 C.3   333  GLY333      0.1811
     17  C         28.6160   71.0420   21.4570 C.2   333  GLY333      0.2280
     18  O         28.7850   71.9600   22.2690 O.2   333  GLY333     -0.2866
     19  N         30.1380   73.3910   24.2910 N.3   337  TRP337     -0.1241
     20  CA        29.1600   74.2570   24.9620 C.3   337  TRP337      0.1605
     21  C         28.4460   73.5290   26.1060 C.2   337  TRP337      0.2264
     22  O         27.2710   73.7850   26.3870 O.2   337  TRP337     -0.2867
     23  CB        28.1310   74.8020   23.9480 C.3   337  TRP337      0.0550
     24  CG        28.6290   76.0360   23.2180 C.ar  337  TRP337      0.0003
     25  CD1       28.3530   77.3370   23.5330 C.ar  337  TRP337      0.0946
     26  CD2       29.4970   76.0740   22.0750 C.ar  337  TRP337      0.0152
     27  NE1       28.9950   78.1840   22.6570 N.ar  337  TRP337     -0.2442
     28  CE2       29.7070   77.4330   21.7560 C.ar  337  TRP337      0.0810
     29  CE3       30.1120   75.0910   21.2860 C.ar  337  TRP337      0.0012
     30  CZ2       30.4990   77.8360   20.6840 C.ar  337  TRP337      0.0191
     31  CZ3       30.9150   75.4920   20.2280 C.ar  337  TRP337      0.0001
     32  CH2       31.1020   76.8560   19.9360 C.ar  337  TRP337      0.0015
     33  N         25.9400   74.9170   28.7360 N.3   340  THR340     -0.1218
     34  CA        24.5630   75.2400   28.3700 C.3   340  THR340      0.1862
     35  C         23.6360   74.0300   28.4330 C.2   340  THR340      0.2287
     36  O         22.4450   74.1510   28.1470 O.2   340  THR340     -0.2866
     37  CB        24.4630   75.8200   26.9380 C.3   340  THR340      0.1770
     38  OG1       24.8070   74.8120   25.9710 O.3   340  THR340     -0.2211
     39  CG2       25.3660   77.0250   26.7740 C.3   340  THR340      0.0375
     40  N         28.0210   82.5460   20.9030 N.3   392  LEU392     -0.1231
     41  CA        26.9800   81.5700   20.6120 C.3   392  LEU392      0.1678
     42  C         27.1910   80.9330   19.2520 C.2   392  LEU392      0.2434
     43  O         27.6730   81.5730   18.3240 O.2   392  LEU392     -0.2733
     44  CB        25.5930   82.2190   20.6400 C.3   392  LEU392      0.0284
     45  CG        25.1420   83.0200   21.8600 C.3   392  LEU392      0.0019
     46  CD1       23.6640   83.3420   21.7270 C.3   392  LEU392      0.0001
     47  CD2       25.4270   82.2800   23.1540 C.3   392  LEU392      0.0001
     48  N         26.8000   79.6690   19.1190 N.am  393  PRO393     -0.2729
     49  CA        26.7860   79.0610   17.7910 C.3   393  PRO393      0.1401
     50  C         25.6250   79.6240   16.9850 C.2   393  PRO393      0.2269
     51  O         24.6230   80.0400   17.5860 O.2   393  PRO393     -0.2865
     52  CB        26.5950   77.5670   18.0840 C.3   393  PRO393      0.0296
     53  CG        25.9250   77.5160   19.3980 C.3   393  PRO393      0.0237
     54  CD        26.3020   78.7640   20.1680 C.3   393  PRO393      0.0939
     55  N         22.3340   79.1450   14.7660 N.3   395  VAL395     -0.1245
     56  CA        21.3310   78.1000   14.9850 C.3   395  VAL395      0.1561
     57  C         20.3500   77.9540   13.8160 C.2   395  VAL395      0.2260
     58  O         19.9370   78.9450   13.1980 O.2   395  VAL395     -0.2867
     59  CB        20.5500   78.3820   16.2910 C.3   395  VAL395      0.0252
     60  CG1       19.3410   77.4560   16.4390 C.3   395  VAL395      0.0019
     61  CG2       21.4930   78.2440   17.4880 C.3   395  VAL395      0.0019
     62  N         22.4450   74.0070   16.3910 N.3   402  PRO402     -0.2116
     63  CA        23.4550   74.7990   15.6770 C.3   402  PRO402      0.1372
     64  C         23.8210   74.2940   14.2740 C.2   402  PRO402      0.2244
     65  O         23.6960   73.0970   13.9540 O.2   402  PRO402     -0.2868
     66  CB        24.6660   74.7250   16.6110 C.3   402  PRO402      0.0268
     67  CG        24.0430   74.6080   17.9790 C.3   402  PRO402      0.0207
     68  CD        22.8590   73.6970   17.7720 C.3   402  PRO402      0.0892
     69  N         16.7910   81.0050   19.3910 N.3   449  ILE449     -0.1231
     70  CA        17.3710   81.6380   20.5600 C.3   449  ILE449      0.1692
     71  C         18.4030   82.6990   20.1630 C.2   449  ILE449      0.2591
     72  O         18.5190   83.7210   20.8380 O.2   449  ILE449     -0.2718
     73  CB        17.9800   80.5730   21.4990 C.3   449  ILE449      0.0266
     74  CG1       18.4190   81.1980   22.8250 C.3   449  ILE449      0.0019
     75  CG2       19.0920   79.8060   20.7960 C.3   449  ILE449      0.0020
     76  CD1       18.7030   80.1590   23.8980 C.3   449  ILE449      0.0001
     77  N         19.1200   82.4890   19.0590 N.am  450  VAL450     -0.1980
     78  CA        20.0540   83.5130   18.5740 C.3   450  VAL450      0.1595
     79  C         19.3140   84.7240   17.9970 C.2   450  VAL450      0.2287
     80  O         19.7510   85.8660   18.1750 O.2   450  VAL450     -0.2864
     81  CB        21.0230   82.9470   17.5040 C.3   450  VAL450      0.0276
     82  CG1       21.9590   84.0340   17.0160 C.3   450  VAL450      0.0022
     83  CG2       21.8300   81.7820   18.0720 C.3   450  VAL450      0.0022
     84  N         27.1190   85.2930   26.8020 N.3   463  LEU463     -0.1245
     85  CA        26.8170   83.8870   27.0570 C.3   463  LEU463      0.1561
     86  C         26.2460   83.7210   28.4660 C.2   463  LEU463      0.2260
     87  O         25.3440   82.9280   28.6870 O.2   463  LEU463     -0.2867
     88  CB        28.0650   83.0220   26.8690 C.3   463  LEU463      0.0270
     89  CG        27.8960   81.5030   26.9190 C.3   463  LEU463      0.0019
     90  CD1       26.8570   81.0300   25.9040 C.3   463  LEU463      0.0001
     91  CD2       29.2440   80.8250   26.6750 C.3   463  LEU463      0.0001
     92  N         22.7740   84.6110   28.4410 N.3   466  ALA466     -0.1245
     93  CA        22.0640   83.5270   27.7740 C.3   466  ALA466      0.1562
     94  C         21.8230   82.3430   28.7190 C.2   466  ALA466      0.2260
     95  O         20.7610   81.7220   28.6680 O.2   466  ALA466     -0.2867
     96  CB        22.8290   83.0750   26.5380 C.3   466  ALA466      0.0290
     97  N         18.2700   80.7380   29.6920 N.3   470  MET470     -0.1245
     98  CA        18.0130   79.3150   29.4430 C.3   470  MET470      0.1570
     99  C         17.4840   78.6010   30.6730 C.2   470  MET470      0.2261
    100  O         17.1120   77.4190   30.5960 O.2   470  MET470     -0.2867
    101  CB        19.2800   78.6050   28.9600 C.3   470  MET470      0.0387
    102  CG        19.6900   78.9620   27.5290 C.3   470  MET470      0.0595
    103  SD        20.9680   77.8360   26.9490 S.3   470  MET470     -0.1393
    104  CE        21.5810   78.7560   25.5390 C.3   470  MET470      0.0692
@<TRIPOS>BOND
     1    58    57    2
     2    57    56    1
     3    65    64    2
     4    64    63    1
     5    55    56    1
     6    56    59    1
     7    63    62    1
     8    63    66    1
     9    59    60    1
    10    59    61    1
    11    62    68    1
    12    66    67    1
    13    50    51    2
    14    50    49    1
    15    82    81    1
    16    81    83    1
    17    81    78    1
    18    68    67    1
    19    49    52    1
    20    49    48    1
    21    79    80    2
    22    79    78    1
    23    52    53    1
    24    43    42    2
    25    78    77    1
    26    77    71   am
    27    48    42   am
    28    48    54    1
    29    42    41    1
    30    69    70    1
    31    53    54    1
    32    15    16    1
    33    32    31   ar
    34    32    30   ar
    35    16    17    1
    36    71    70    1
    37    71    72    2
    38    31    29   ar
    39    70    73    1
    40    41    44    1
    41    41    40    1
    42    44    45    1
    43    30    28   ar
    44    75    73    1
    45    13    11   ar
    46    13    14   ar
    47    29    26   ar
    48    17    18    2
    49    73    74    1
    50    11     8   ar
    51    46    45    1
    52    28    26   ar
    53    28    27   ar
    54    14    12   ar
    55    45    47    1
    56    26    24   ar
    57     4     3    2
    58    27    25   ar
    59     8    10   ar
    60     8     6   ar
    61    74    76    1
    62    12    10   ar
    63     5     6    1
    64     5     2    1
    65     3     2    1
    66    24    25   ar
    67    24    23    1
    68    10     9   ar
    69     6     7   ar
    70     2     1    1
    71    23    20    1
    72    19    20    1
    73     9     7   ar
    74    20    21    1
    75   104   103    1
    76    90    89    1
    77    38    37    1
    78    21    22    2
    79    96    93    1
    80    91    89    1
    81    39    37    1
    82    84    85    1
    83    88    89    1
    84    88    85    1
    85    37    34    1
    86   103   102    1
    87    85    86    1
    88   102   101    1
    89    93    92    1
    90    93    94    1
    91    36    35    2
    92    34    35    1
    93    34    33    1
    94    86    87    2
    95    95    94    2
    96   101    98    1
    97    98    97    1
    98    98    99    1
    99   100    99    2
