@<TRIPOS>MOLECULE
tmp/5tdsA00.pdb
 101 101 0 0 0
SMALL
GASTEIGER

@<TRIPOS>ATOM
      1  N         18.5650   75.6280   25.1180 N.3   166  TRP166     -0.1241
      2  CA        18.5550   75.4850   23.6620 C.3   166  TRP166      0.1605
      3  C         18.0610   74.1020   23.2030 C.2   166  TRP166      0.2264
      4  O         17.2990   74.0100   22.2490 O.2   166  TRP166     -0.2867
      5  CB        19.9440   75.7760   23.0680 C.3   166  TRP166      0.0550
      6  CG        20.9770   74.7690   23.4090 C.ar  166  TRP166      0.0003
      7  CD1       21.8410   74.8060   24.4630 C.ar  166  TRP166      0.0946
      8  CD2       21.2660   73.5590   22.6910 C.ar  166  TRP166      0.0152
      9  NE1       22.6530   73.6900   24.4470 N.ar  166  TRP166     -0.2442
     10  CE2       22.3120   72.9070   23.3770 C.ar  166  TRP166      0.0810
     11  CE3       20.7300   72.9560   21.5480 C.ar  166  TRP166      0.0012
     12  CZ2       22.8380   71.6850   22.9530 C.ar  166  TRP166      0.0191
     13  CZ3       21.2530   71.7380   21.1290 C.ar  166  TRP166      0.0001
     14  CH2       22.2960   71.1180   21.8300 C.ar  166  TRP166      0.0015
     15  N         21.2480   64.6220   17.8880 N.3   270  VAL270     -0.1245
     16  CA        21.8670   65.4290   18.9290 C.3   270  VAL270      0.1561
     17  C         21.7030   64.7750   20.2990 C.2   270  VAL270      0.2260
     18  O         22.5830   64.8960   21.1530 O.2   270  VAL270     -0.2867
     19  CB        21.3070   66.8890   18.9560 C.3   270  VAL270      0.0252
     20  CG1       19.8740   66.9330   19.4750 C.3   270  VAL270      0.0019
     21  CG2       22.2090   67.7850   19.8000 C.3   270  VAL270      0.0019
     22  N         29.6150   66.0160   14.8830 N.3   329  SER329     -0.1202
     23  CA        29.6990   67.4620   15.0420 C.3   329  SER329      0.2020
     24  C         28.7790   67.9230   16.1610 C.2   329  SER329      0.2618
     25  O         29.1330   68.7970   16.9530 O.2   329  SER329     -0.2717
     26  CB        29.3600   68.1720   13.7280 C.3   329  SER329      0.2103
     27  OG        30.4560   68.0980   12.8250 O.3   329  SER329     -0.2182
     28  N         27.5910   67.3390   16.2220 N.am  330  TYR330     -0.1975
     29  CA        26.6790   67.6440   17.3150 C.3   330  TYR330      0.1639
     30  C         27.3180   67.3190   18.6680 C.2   330  TYR330      0.2290
     31  O         27.1940   68.0880   19.6130 O.2   330  TYR330     -0.2864
     32  CB        25.3660   66.8750   17.1540 C.3   330  TYR330      0.0560
     33  CG        24.3770   67.4890   16.1780 C.ar  330  TYR330     -0.0198
     34  CD1       24.6370   68.7050   15.5520 C.ar  330  TYR330     -0.0009
     35  CD2       23.1750   66.8550   15.8990 C.ar  330  TYR330     -0.0009
     36  CE1       23.7250   69.2670   14.6730 C.ar  330  TYR330      0.0417
     37  CE2       22.2620   67.4030   15.0230 C.ar  330  TYR330      0.0417
     38  CZ        22.5390   68.6130   14.4140 C.ar  330  TYR330      0.1957
     39  OH        21.6180   69.1670   13.5440 O.3   330  TYR330     -0.2866
     40  N         29.8680   69.8710   19.6610 N.3   333  GLY333     -0.1210
     41  CA        29.2110   71.1090   20.0610 C.3   333  GLY333      0.1956
     42  C         28.6160   71.0420   21.4570 C.2   333  GLY333      0.2611
     43  O         28.7850   71.9600   22.2690 O.2   333  GLY333     -0.2717
     44  N         27.8940   69.9620   21.7330 N.am  334  VAL334     -0.1979
     45  CA        27.3490   69.7470   23.0640 C.3   334  VAL334      0.1595
     46  C         28.4710   69.7470   24.1050 C.2   334  VAL334      0.2287
     47  O         28.3300   70.3560   25.1630 O.2   334  VAL334     -0.2864
     48  CB        26.5420   68.4410   23.1350 C.3   334  VAL334      0.0276
     49  CG1       26.2040   68.0840   24.5810 C.3   334  VAL334      0.0022
     50  CG2       25.2740   68.5730   22.2820 C.3   334  VAL334      0.0022
     51  N         30.1380   73.3910   24.2910 N.3   337  TRP337     -0.1241
     52  CA        29.1600   74.2570   24.9620 C.3   337  TRP337      0.1605
     53  C         28.4460   73.5290   26.1060 C.2   337  TRP337      0.2264
     54  O         27.2710   73.7850   26.3870 O.2   337  TRP337     -0.2867
     55  CB        28.1310   74.8020   23.9480 C.3   337  TRP337      0.0550
     56  CG        28.6290   76.0360   23.2180 C.ar  337  TRP337      0.0003
     57  CD1       28.3530   77.3370   23.5330 C.ar  337  TRP337      0.0946
     58  CD2       29.4970   76.0740   22.0750 C.ar  337  TRP337      0.0152
     59  NE1       28.9950   78.1840   22.6570 N.ar  337  TRP337     -0.2442
     60  CE2       29.7070   77.4330   21.7560 C.ar  337  TRP337      0.0810
     61  CE3       30.1120   75.0910   21.2860 C.ar  337  TRP337      0.0012
     62  CZ2       30.4990   77.8360   20.6840 C.ar  337  TRP337      0.0191
     63  CZ3       30.9150   75.4920   20.2280 C.ar  337  TRP337      0.0001
     64  CH2       31.1020   76.8560   19.9360 C.ar  337  TRP337      0.0015
     65  N         26.8000   79.6690   19.1190 N.3   393  PRO393     -0.2116
     66  CA        26.7860   79.0610   17.7910 C.3   393  PRO393      0.1372
     67  C         25.6250   79.6240   16.9850 C.2   393  PRO393      0.2244
     68  O         24.6230   80.0400   17.5860 O.2   393  PRO393     -0.2868
     69  CB        26.5950   77.5670   18.0840 C.3   393  PRO393      0.0268
     70  CG        25.9250   77.5160   19.3980 C.3   393  PRO393      0.0207
     71  CD        26.3020   78.7640   20.1680 C.3   393  PRO393      0.0892
     72  N         18.8780   73.5950   16.2570 N.3   401  ILE401     -0.1231
     73  CA        20.1880   73.0540   16.6160 C.3   401  ILE401      0.1678
     74  C         21.2530   73.7990   15.8090 C.2   401  ILE401      0.2434
     75  O         21.0030   74.1860   14.6640 O.2   401  ILE401     -0.2733
     76  CB        20.2690   71.5380   16.3370 C.3   401  ILE401      0.0265
     77  CG1       19.0750   70.8160   16.9650 C.3   401  ILE401      0.0019
     78  CG2       21.5800   70.9570   16.8650 C.3   401  ILE401      0.0020
     79  CD1       18.8540   69.3850   16.4350 C.3   401  ILE401      0.0001
     80  N         22.4450   74.0070   16.3910 N.am  402  PRO402     -0.2718
     81  CA        23.4550   74.7990   15.6770 C.3   402  PRO402      0.1535
     82  C         23.8210   74.2940   14.2740 C.2   402  PRO402      0.2598
     83  O         23.6960   73.0970   13.9540 O.2   402  PRO402     -0.2715
     84  CB        24.6660   74.7250   16.6110 C.3   402  PRO402      0.0310
     85  CG        24.0430   74.6080   17.9790 C.3   402  PRO402      0.0237
     86  CD        22.8590   73.6970   17.7720 C.3   402  PRO402      0.0939
     87  N         24.2640   75.2360   13.4450 N.am  403  LEU403     -0.1964
     88  CA        24.7320   74.9690   12.0860 C.3   403  LEU403      0.1728
     89  C         26.1270   74.3390   12.0880 C.2   403  LEU403      0.2616
     90  O         27.1000   74.9810   12.4650 O.2   403  LEU403     -0.2715
     91  CB        24.7520   76.2730   11.2790 C.3   403  LEU403      0.0311
     92  CG        23.4330   77.0500   11.2860 C.3   403  LEU403      0.0022
     93  CD1       23.5960   78.4030   10.5740 C.3   403  LEU403      0.0001
     94  CD2       22.3460   76.2160   10.6440 C.3   403  LEU403      0.0001
     95  N         26.2220   73.0860   11.6630 N.am  404  VAL404     -0.1977
     96  CA        27.4980   72.3780   11.6870 C.3   404  VAL404      0.1596
     97  C         27.8670   71.8250   10.3230 C.2   404  VAL404      0.2287
     98  O         27.0710   71.8590    9.3860 O.2   404  VAL404     -0.2864
     99  CB        27.4960   71.2060   12.7050 C.3   404  VAL404      0.0276
    100  CG1       27.2250   71.7180   14.1100 C.3   404  VAL404      0.0022
    101  CG2       26.4670   70.1320   12.3180 C.3   404  VAL404      0.0022
@<TRIPOS>BOND
     1    98    97    2
     2    97    96    1
     3    93    92    1
     4    94    92    1
     5    91    92    1
     6    91    88    1
     7    95    96    1
     8    95    89   am
     9    96    99    1
    10    88    89    1
    11    88    87    1
    12    89    90    2
    13   101    99    1
    14    99   100    1
    15    27    26    1
    16    87    82   am
    17    39    38    1
    18    26    23    1
    19    83    82    2
    20    82    81    1
    21    38    36   ar
    22    38    37   ar
    23    75    74    2
    24    36    34   ar
    25    22    23    1
    26    37    35   ar
    27    23    24    1
    28    34    33   ar
    29    81    80    1
    30    81    84    1
    31    74    80   am
    32    74    73    1
    33    35    33   ar
    34    24    28   am
    35    24    25    2
    36    33    32    1
    37    28    29    1
    38    72    73    1
    39    76    73    1
    40    76    78    1
    41    76    77    1
    42    80    86    1
    43    79    77    1
    44    84    85    1
    45    67    68    2
    46    67    66    1
    47    32    29    1
    48    29    30    1
    49    86    85    1
    50    66    69    1
    51    66    65    1
    52    15    16    1
    53    69    70    1
    54    30    31    2
    55    16    19    1
    56    16    17    1
    57    19    20    1
    58    19    21    1
    59    65    71    1
    60    70    71    1
    61    40    41    1
    62    64    63   ar
    63    64    62   ar
    64    41    42    1
    65    63    61   ar
    66    17    18    2
    67    62    60   ar
    68    13    11   ar
    69    13    14   ar
    70    61    58   ar
    71    42    44   am
    72    42    43    2
    73    11     8   ar
    74    44    45    1
    75    60    58   ar
    76    60    59   ar
    77    14    12   ar
    78    58    56   ar
    79     4     3    2
    80    50    48    1
    81    59    57   ar
    82     8    10   ar
    83     8     6   ar
    84    12    10   ar
    85    45    48    1
    86    45    46    1
    87     5     6    1
    88     5     2    1
    89    48    49    1
    90     3     2    1
    91    56    57   ar
    92    56    55    1
    93    10     9   ar
    94     6     7   ar
    95     2     1    1
    96    55    52    1
    97    46    47    2
    98    51    52    1
    99     9     7   ar
   100    52    53    1
   101    53    54    2
