@<TRIPOS>MOLECULE
tmp/5tdsA02.pdb
 126 118 0 0 0
SMALL
GASTEIGER

@<TRIPOS>ATOM
      1  N         14.7340   65.2820   28.2130 N.3    98  ALA98      -0.1231
      2  CA        14.2640   65.4190   26.8380 C.3    98  ALA98       0.1694
      3  C         12.9240   64.7360   26.6120 C.2    98  ALA98       0.2591
      4  O         12.2150   65.0610   25.6650 O.2    98  ALA98      -0.2718
      5  CB        15.2890   64.8590   25.8660 C.3    98  ALA98       0.0304
      6  N         12.5750   63.7970   27.4840 N.am   99  ILE99      -0.1980
      7  CA        11.4730   62.8760   27.1940 C.3    99  ILE99       0.1595
      8  C         10.2490   62.9870   28.1100 C.2    99  ILE99       0.2287
      9  O          9.1180   62.9320   27.6320 O.2    99  ILE99      -0.2864
     10  CB        11.9810   61.4020   27.2470 C.3    99  ILE99       0.0276
     11  CG1       13.0380   61.1590   26.1680 C.3    99  ILE99       0.0022
     12  CG2       10.8230   60.4160   27.1090 C.3    99  ILE99       0.0022
     13  CD1       12.5070   61.2920   24.7690 C.3    99  ILE99       0.0001
     14  N          7.6500   65.5590   27.4160 N.3   102  GLY102     -0.1210
     15  CA         7.2740   65.3360   26.0320 C.3   102  GLY102      0.1956
     16  C          6.2850   64.1810   25.9170 C.2   102  GLY102      0.2611
     17  O          5.3480   64.2380   25.1130 O.2   102  GLY102     -0.2717
     18  N          6.5100   63.1130   26.6830 N.am  103  GLU103     -0.1979
     19  CA         5.5330   62.0210   26.7260 C.3   103  GLU103      0.1602
     20  C          4.1720   62.5480   27.1520 C.2   103  GLU103      0.2287
     21  O          3.1430   62.1840   26.5790 O.2   103  GLU103     -0.2864
     22  CB         5.9610   60.9000   27.6850 C.3   103  GLU103      0.0415
     23  CG         7.2590   60.2130   27.3120 C.3   103  GLU103      0.1163
     24  CD         7.0570   58.8450   26.6880 C.2   103  GLU103      0.3649
     25  OE1        5.9690   58.6010   26.1200 O.co2 103  GLU103     -0.2457
     26  OE2        7.9960   58.0140   26.7670 O.co2 103  GLU103     -0.2457
     27  N          2.4780   64.1770   24.4480 N.3   106  ALA106     -0.1245
     28  CA         1.9190   63.2400   23.4740 C.3   106  ALA106      0.1562
     29  C          0.4670   62.8720   23.8120 C.2   106  ALA106      0.2260
     30  O         -0.2780   62.4600   22.9410 O.2   106  ALA106     -0.2867
     31  CB         2.7800   61.9620   23.3800 C.3   106  ALA106      0.0290
     32  N          0.2540   57.3950   27.0960 N.3   133  GLU133     -0.1245
     33  CA         1.2230   58.4810   27.1990 C.3   133  GLU133      0.1567
     34  C          1.1150   59.1360   28.5770 C.2   133  GLU133      0.2260
     35  O          2.1060   59.6490   29.0970 O.2   133  GLU133     -0.2867
     36  CB         1.0350   59.4860   26.0650 C.3   133  GLU133      0.0388
     37  CG         1.1800   58.8590   24.6720 C.3   133  GLU133      0.1160
     38  CD         2.5420   58.2010   24.3960 C.2   133  GLU133      0.3649
     39  OE1        3.3570   57.9900   25.3200 O.co2 133  GLU133     -0.2457
     40  OE2        2.7880   57.8860   23.2150 O.co2 133  GLU133     -0.2457
     41  N         11.1930   71.3220   29.7680 N.3   161  TYR161     -0.1241
     42  CA        10.1830   71.8400   28.8490 C.3   161  TYR161      0.1605
     43  C          9.6080   73.1780   29.3040 C.2   161  TYR161      0.2264
     44  O          8.9080   73.8450   28.5440 O.2   161  TYR161     -0.2867
     45  CB         9.0490   70.8300   28.6530 C.3   161  TYR161      0.0534
     46  CG         9.3710   69.7320   27.6590 C.ar  161  TYR161     -0.0201
     47  CD1       10.3960   68.8270   27.8990 C.ar  161  TYR161     -0.0009
     48  CD2        8.6400   69.5910   26.4870 C.ar  161  TYR161     -0.0009
     49  CE1       10.6910   67.8190   26.9870 C.ar  161  TYR161      0.0417
     50  CE2        8.9210   68.5760   25.5720 C.ar  161  TYR161      0.0417
     51  CZ         9.9490   67.6990   25.8270 C.ar  161  TYR161      0.1957
     52  OH        10.2350   66.6890   24.9280 O.3   161  TYR161     -0.2866
     53  N          8.4410   68.6350   18.8160 N.3   175  PHE175     -0.1241
     54  CA         7.2380   67.9650   19.3010 C.3   175  PHE175      0.1605
     55  C          6.0050   68.8340   19.1500 C.2   175  PHE175      0.2264
     56  O          4.9050   68.3140   18.9510 O.2   175  PHE175     -0.2867
     57  CB         7.4060   67.5140   20.7540 C.3   175  PHE175      0.0534
     58  CG         8.3600   66.3720   20.9060 C.ar  175  PHE175     -0.0203
     59  CD1        8.1940   65.2190   20.1510 C.ar  175  PHE175     -0.0042
     60  CD2        9.4460   66.4600   21.7670 C.ar  175  PHE175     -0.0042
     61  CE1        9.0870   64.1630   20.2660 C.ar  175  PHE175     -0.0003
     62  CE2       10.3380   65.4090   21.8880 C.ar  175  PHE175     -0.0003
     63  CZ        10.1610   64.2580   21.1330 C.ar  175  PHE175     -0.0000
     64  N          3.4020   66.7680   17.2260 N.3   179  ILE179     -0.1245
     65  CA         2.4480   66.2290   18.2080 C.3   179  ILE179      0.1561
     66  C          1.2850   67.1620   18.5170 C.2   179  ILE179      0.2260
     67  O          0.1330   66.7800   18.3840 O.2   179  ILE179     -0.2867
     68  CB         3.1200   65.8970   19.5520 C.3   179  ILE179      0.0252
     69  CG1        4.2420   64.8750   19.3530 C.3   179  ILE179      0.0019
     70  CG2        2.0670   65.3760   20.5710 C.3   179  ILE179      0.0019
     71  CD1        4.8710   64.3920   20.6540 C.3   179  ILE179      0.0001
     72  N          3.5720   61.6120   14.2390 N.3   191  LEU191     -0.1245
     73  CA         3.8950   61.0790   15.5530 C.3   191  LEU191      0.1561
     74  C          3.9010   59.5530   15.5490 C.2   191  LEU191      0.2260
     75  O          4.9270   58.9400   15.8310 O.2   191  LEU191     -0.2867
     76  CB         2.9150   61.6060   16.6130 C.3   191  LEU191      0.0270
     77  CG         3.0160   60.9170   17.9850 C.3   191  LEU191      0.0019
     78  CD1        4.4030   61.0980   18.6070 C.3   191  LEU191      0.0001
     79  CD2        1.9230   61.4080   18.9380 C.3   191  LEU191      0.0001
     80  N          7.5800   58.9190   13.9700 N.3   195  PHE195     -0.1227
     81  CA         8.4050   59.0470   15.1620 C.3   195  PHE195      0.1736
     82  C          8.3870   57.8100   16.0670 C.2   195  PHE195      0.2595
     83  O          9.4410   57.2790   16.4180 O.2   195  PHE195     -0.2718
     84  CB         7.9880   60.2790   15.9710 C.3   195  PHE195      0.0547
     85  CG         8.8410   60.5160   17.1820 C.ar  195  PHE195     -0.0202
     86  CD1       10.1790   60.8410   17.0460 C.ar  195  PHE195     -0.0042
     87  CD2        8.3120   60.4020   18.4550 C.ar  195  PHE195     -0.0042
     88  CE1       10.9780   61.0530   18.1560 C.ar  195  PHE195     -0.0003
     89  CE2        9.1070   60.6200   19.5790 C.ar  195  PHE195     -0.0003
     90  CZ        10.4420   60.9430   19.4260 C.ar  195  PHE195     -0.0000
     91  N          7.2020   57.3550   16.4610 N.am  196  GLU196     -0.1979
     92  CA         7.1150   56.2480   17.4150 C.3   196  GLU196      0.1602
     93  C          7.4660   54.9150   16.7630 C.2   196  GLU196      0.2287
     94  O          8.3580   54.2090   17.2290 O.2   196  GLU196     -0.2864
     95  CB         5.7210   56.1840   18.0400 C.3   196  GLU196      0.0415
     96  CG         5.3950   57.4330   18.8600 C.3   196  GLU196      0.1163
     97  CD         4.0170   57.3870   19.4880 C.2   196  GLU196      0.3649
     98  OE1        3.0300   57.1920   18.7470 O.co2 196  GLU196     -0.2457
     99  OE2        3.9140   57.5460   20.7240 O.co2 196  GLU196     -0.2457
    100  N         11.3210   55.6660   18.0820 N.3   200  THR200     -0.1218
    101  CA        11.3560   55.4520   19.5310 C.3   200  THR200      0.1862
    102  C         11.2260   53.9810   19.9030 C.2   200  THR200      0.2287
    103  O         11.7590   53.5440   20.9220 O.2   200  THR200     -0.2866
    104  CB        10.2620   56.2520   20.2700 C.3   200  THR200      0.1770
    105  OG1        8.9740   55.7640   19.9000 O.3   200  THR200     -0.2211
    106  CG2       10.3520   57.7250   19.9320 C.3   200  THR200      0.0375
    107  N         14.1290   52.6530   22.3580 N.3   204  PHE204     -0.1241
    108  CA        13.8420   52.2110   23.7150 C.3   204  PHE204      0.1605
    109  C         14.3440   50.7790   23.9240 C.2   204  PHE204      0.2264
    110  O         14.8260   50.4470   24.9980 O.2   204  PHE204     -0.2867
    111  CB        12.3480   52.3340   24.0350 C.3   204  PHE204      0.0534
    112  CG        11.9500   53.7040   24.5360 C.ar  204  PHE204     -0.0203
    113  CD1       12.4940   54.8400   23.9710 C.ar  204  PHE204     -0.0042
    114  CD2       11.0430   53.8540   25.5730 C.ar  204  PHE204     -0.0042
    115  CE1       12.1330   56.1080   24.4240 C.ar  204  PHE204     -0.0003
    116  CE2       10.6790   55.1170   26.0300 C.ar  204  PHE204     -0.0003
    117  CZ        11.2200   56.2420   25.4530 C.ar  204  PHE204     -0.0000
    118  N          4.1210   50.5350   23.2080 N.3   230  GLU230     -0.1245
    119  CA         4.2380   51.3990   22.0350 C.3   230  GLU230      0.1567
    120  C          3.3070   50.9910   20.8940 C.2   230  GLU230      0.2260
    121  O          2.6110   51.8320   20.3360 O.2   230  GLU230     -0.2867
    122  CB         5.6900   51.4380   21.5300 C.3   230  GLU230      0.0388
    123  CG         6.0340   52.7490   20.8010 C.3   230  GLU230      0.1160
    124  CD         5.9320   53.9560   21.7250 C.2   230  GLU230      0.3649
    125  OE1        6.5130   53.8920   22.8330 O.co2 230  GLU230     -0.2457
    126  OE2        5.2680   54.9550   21.3540 O.co2 230  GLU230     -0.2457
@<TRIPOS>BOND
     1    80    81    1
     2    72    73    1
     3    81    84    1
     4    81    82    1
     5    74    73    1
     6    74    75    2
     7    73    76    1
     8    84    85    1
     9    82    83    2
    10    82    91   am
    11    91    92    1
    12    76    77    1
    13    93    94    2
    14    93    92    1
    15    86    85   ar
    16    86    88   ar
    17    85    87   ar
    18    64    65    1
    19    92    95    1
    20    77    78    1
    21    77    79    1
    22    95    96    1
    23   100   101    1
    24    88    90   ar
    25    65    66    1
    26    65    68    1
    27    67    66    2
    28    87    89   ar
    29    98    97   ar
    30    53    54    1
    31    96    97    1
    32    56    55    2
    33    55    54    1
    34    54    57    1
    35    69    68    1
    36    69    71    1
    37    90    89   ar
    38    97    99   ar
    39   101   102    1
    40   101   104    1
    41    68    70    1
    42   105   104    1
    43   102   103    2
    44   106   104    1
    45    59    61   ar
    46    59    58   ar
    47    61    63   ar
    48   121   120    2
    49    57    58    1
    50   123   122    1
    51   123   124    1
    52   120   119    1
    53    58    60   ar
    54    63    62   ar
    55   126   124   ar
    56   122   119    1
    57   124   125   ar
    58    60    62   ar
    59   119   118    1
    60   107   108    1
    61    30    29    2
    62    40    38   ar
    63    31    28    1
    64    28    29    1
    65    28    27    1
    66   108   109    1
    67   108   111    1
    68   109   110    2
    69   113   115   ar
    70   113   112   ar
    71   111   112    1
    72    38    37    1
    73    38    39   ar
    74   115   117   ar
    75   112   114   ar
    76    37    36    1
    77    13    11    1
    78    52    51    1
    79    17    16    2
    80   117   116   ar
    81    50    51   ar
    82    50    48   ar
    83   114   116   ar
    84     4     3    2
    85    51    49   ar
    86     5     2    1
    87    16    15    1
    88    16    18   am
    89    15    14    1
    90    36    33    1
    91    25    24   ar
    92    11    10    1
    93    48    46   ar
    94    21    20    2
    95     3     2    1
    96     3     6   am
    97    18    19    1
    98    24    26   ar
    99    24    23    1
   100    19    20    1
   101    19    22    1
   102     2     1    1
   103    49    47   ar
   104    32    33    1
   105    12    10    1
   106     7    10    1
   107     7     6    1
   108     7     8    1
   109    33    34    1
   110    23    22    1
   111     9     8    2
   112    46    47   ar
   113    46    45    1
   114    44    43    2
   115    34    35    2
   116    45    42    1
   117    42    43    1
   118    42    41    1
