@<TRIPOS>MOLECULE
tmp/5tdzB00.pdb
 77 76 0 0 0
SMALL
GASTEIGER

@<TRIPOS>ATOM
      1  N         30.2790    2.3960   62.5990 N.3     9  ARG9       -0.1245
      2  CA        29.8380    1.0800   63.0490 C.3     9  ARG9        0.1563
      3  C         28.7040    1.1460   64.0620 C.2     9  ARG9        0.2260
      4  O         28.2170    0.0960   64.4710 O.2     9  ARG9       -0.2867
      5  CB        31.0140    0.2950   63.6330 C.3     9  ARG9        0.0307
      6  CG        31.6230    0.9110   64.9140 C.3     9  ARG9        0.0489
      7  CD        32.7960    0.0890   65.3860 C.3     9  ARG9        0.2205
      8  NE        32.3640   -1.2580   65.7070 N.pl3   9  ARG9       -0.0865
      9  CZ        32.0560   -1.6730   66.9370 C.cat   9  ARG9        0.5346
     10  NH1       32.1680   -0.8600   67.9860 N.pl3   9  ARG9        0.1354
     11  NH2       31.6680   -2.9180   67.1310 N.pl3   9  ARG9        0.1354
     12  N         29.9640  -10.0440   60.2190 N.3    32  VAL32      -0.1231
     13  CA        31.3910  -10.2710   59.9600 C.3    32  VAL32       0.1692
     14  C         32.2080   -9.0240   60.1610 C.2    32  VAL32       0.2592
     15  O         33.4390   -9.1060   60.2640 O.2    32  VAL32      -0.2718
     16  CB        31.7130  -10.7760   58.5400 C.3    32  VAL32       0.0266
     17  CG1       31.3390  -12.2180   58.4020 C.3    32  VAL32       0.0020
     18  CG2       31.0360   -9.8840   57.4670 C.3    32  VAL32       0.0020
     19  N         31.5750   -7.8630   60.1620 N.am   33  CYS33      -0.1956
     20  CA        32.2720   -6.6310   60.5570 C.3    33  CYS33       0.1843
     21  C         32.4290   -6.4980   62.0590 C.2    33  CYS33       0.2626
     22  O         33.0540   -5.5360   62.5010 O.2    33  CYS33      -0.2714
     23  CB        31.5400   -5.3870   60.0380 C.3    33  CYS33       0.0997
     24  SG        31.6640   -5.2240   58.2420 S.3    33  CYS33      -0.0797
     25  N         31.8530   -7.4130   62.8260 N.am   34  SER34      -0.1950
     26  CA        31.8950   -7.3860   64.2900 C.3    34  SER34       0.1924
     27  C         31.1900   -6.1450   64.8500 C.2    34  SER34       0.2314
     28  O         31.6150   -5.5610   65.8530 O.2    34  SER34      -0.2863
     29  CB        33.3400   -7.4830   64.8060 C.3    34  SER34       0.2116
     30  OG        33.9680   -8.6590   64.3230 O.3    34  SER34      -0.2180
     31  N         33.1810   -0.3640   54.6340 N.3   145  PRO145     -0.2102
     32  CA        33.6670   -1.5840   55.2790 C.3   145  PRO145      0.1504
     33  C         33.9250   -1.4000   56.7790 C.2   145  PRO145      0.2576
     34  O         34.4750   -0.3900   57.2290 O.2   145  PRO145     -0.2718
     35  CB        34.9480   -1.8770   54.5050 C.3   145  PRO145      0.0282
     36  CG        34.6480   -1.3960   53.1330 C.3   145  PRO145      0.0208
     37  CD        33.8380   -0.1320   53.3310 C.3   145  PRO145      0.0893
     38  N         33.4650   -2.3830   57.5500 N.am  146  GLY146     -0.1943
     39  CA        33.5320   -2.3730   58.9960 C.3   146  GLY146      0.2014
     40  C         32.3810   -1.6910   59.6750 C.2   146  GLY146      0.2639
     41  O         32.1970   -1.8780   60.8820 O.2   146  GLY146     -0.2714
     42  N         31.6110   -0.8910   58.9400 N.am  147  CYS147     -0.1967
     43  CA        30.6720    0.0570   59.5400 C.3   147  CYS147      0.1712
     44  C         29.2370   -0.1490   59.0780 C.2   147  CYS147      0.2296
     45  O         28.3430   -0.3500   59.9000 O.2   147  CYS147     -0.2864
     46  CB        31.1090    1.4860   59.2170 C.3   147  CYS147      0.0983
     47  SG        32.7370    1.8370   59.8790 S.3   147  CYS147     -0.0798
     48  N         34.8400   -6.5040   54.9830 N.3   166  TYR166     -0.1227
     49  CA        34.5950   -6.5560   56.4110 C.3   166  TYR166      0.1736
     50  C         35.5530   -5.6820   57.2410 C.2   166  TYR166      0.2595
     51  O         35.3570   -5.5740   58.4490 O.2   166  TYR166     -0.2718
     52  CB        34.6510   -8.0060   56.8540 C.3   166  TYR166      0.0548
     53  CG        35.9240   -8.7470   56.4980 C.ar  166  TYR166     -0.0200
     54  CD1       37.0570   -8.6850   57.3100 C.ar  166  TYR166     -0.0009
     55  CD2       35.9870   -9.5220   55.3510 C.ar  166  TYR166     -0.0009
     56  CE1       38.2020   -9.3640   56.9740 C.ar  166  TYR166      0.0417
     57  CE2       37.1220  -10.2130   55.0190 C.ar  166  TYR166      0.0417
     58  CZ        38.2230  -10.1370   55.8250 C.ar  166  TYR166      0.1957
     59  OH        39.3370  -10.8480   55.4360 O.3   166  TYR166     -0.2866
     60  N         36.5860   -5.0910   56.6620 N.am  167  ARG167     -0.1966
     61  CA        37.4120   -4.1420   57.3880 C.3   167  ARG167      0.1714
     62  C         37.9530   -3.1380   56.3970 C.2   167  ARG167      0.2458
     63  O         38.1990   -3.4830   55.2360 O.2   167  ARG167     -0.2730
     64  CB        38.5780   -4.8230   58.1480 C.3   167  ARG167      0.0347
     65  CG        39.8540   -5.1300   57.3660 C.3   167  ARG167      0.0492
     66  CD        39.6010   -6.0690   56.2370 C.3   167  ARG167      0.2205
     67  NE        40.8110   -6.3620   55.4480 N.pl3 167  ARG167     -0.0865
     68  CZ        41.3240   -5.5650   54.5160 C.cat 167  ARG167      0.5346
     69  NH1       42.4430   -5.8960   53.8460 N.pl3 167  ARG167      0.1354
     70  NH2       40.7200   -4.4120   54.2390 N.pl3 167  ARG167      0.1354
     71  N         38.1540   -1.8960   56.8220 N.am  168  PRO168     -0.2727
     72  CA        38.5650   -0.8470   55.8840 C.3   168  PRO168      0.1402
     73  C         40.0390   -0.8890   55.5390 C.2   168  PRO168      0.2269
     74  O         40.8900   -1.1790   56.3830 O.2   168  PRO168     -0.2865
     75  CB        38.2360    0.4440   56.6480 C.3   168  PRO168      0.0296
     76  CG        38.2580    0.0450   58.1050 C.3   168  PRO168      0.0237
     77  CD        37.7750   -1.3560   58.1510 C.3   168  PRO168      0.0939
@<TRIPOS>BOND
     1    36    37    1
     2    36    35    1
     3    37    31    1
     4    69    68    1
     5    70    68    1
     6    35    32    1
     7    68    67    2
     8    31    32    1
     9    48    49    1
    10    57    55   ar
    11    57    58   ar
    12    63    62    2
    13    32    33    1
    14    55    53   ar
    15    59    58    1
    16    67    66    1
    17    73    72    1
    18    73    74    2
    19    58    56   ar
    20    72    75    1
    21    72    71    1
    22    66    65    1
    23    62    71   am
    24    62    61    1
    25    49    52    1
    26    49    50    1
    27    53    52    1
    28    53    54   ar
    29    75    76    1
    30    60    50   am
    31    60    61    1
    32    33    34    2
    33    33    38   am
    34    71    77    1
    35    56    54   ar
    36    50    51    2
    37    65    64    1
    38    61    64    1
    39    18    16    1
    40    38    39    1
    41    76    77    1
    42    24    23    1
    43    17    16    1
    44    16    13    1
    45    42    43    1
    46    42    40   am
    47    39    40    1
    48    44    43    1
    49    44    45    2
    50    46    43    1
    51    46    47    1
    52    40    41    2
    53    13    14    1
    54    13    12    1
    55    23    20    1
    56    14    19   am
    57    14    15    2
    58    19    20    1
    59    20    21    1
    60    21    22    2
    61    21    25   am
    62     1     2    1
    63    25    26    1
    64     2     5    1
    65     2     3    1
    66     5     6    1
    67     3     4    2
    68    26    29    1
    69    26    27    1
    70    30    29    1
    71    27    28    2
    72     6     7    1
    73     7     8    1
    74     8     9    2
    75     9    11    1
    76     9    10    1
