@<TRIPOS>MOLECULE
tmp/5te1B00.pdb
 89 83 0 0 0
SMALL
GASTEIGER

@<TRIPOS>ATOM
      1  N         19.2800  -19.7130   47.8740 N.3   268  ALA268     -0.1231
      2  CA        18.8400  -19.6960   49.2610 C.3   268  ALA268      0.1694
      3  C         17.9300  -18.4970   49.5150 C.2   268  ALA268      0.2592
      4  O         18.2840  -17.3690   49.1750 O.2   268  ALA268     -0.2718
      5  CB        20.0500  -19.6410   50.2060 C.3   268  ALA268      0.0304
      6  N         16.7780  -18.7430   50.1360 N.am  269  GLY269     -0.1957
      7  CA        15.8230  -17.6890   50.4590 C.3   269  GLY269      0.1869
      8  C         14.6700  -17.5520   49.4920 C.2   269  GLY269      0.2309
      9  O         14.8790  -17.5740   48.2780 O.2   269  GLY269     -0.2863
     10  N         15.7430  -22.5710   52.6240 N.3   296  SER296     -0.1202
     11  CA        15.9580  -21.5610   53.6540 C.3   296  SER296      0.2020
     12  C         15.6680  -22.1530   55.0320 C.2   296  SER296      0.2619
     13  O         15.2620  -23.3130   55.1740 O.2   296  SER296     -0.2717
     14  CB        15.0890  -20.3310   53.4030 C.3   296  SER296      0.2103
     15  OG        13.7300  -20.6630   53.2250 O.3   296  SER296     -0.2182
     16  N         15.8950  -21.3340   56.0610 N.am  297  GLY297     -0.1956
     17  CA        15.6310  -21.7740   57.4180 C.3   297  GLY297      0.1869
     18  C         16.6560  -22.7770   57.9060 C.2   297  GLY297      0.2309
     19  O         16.3320  -23.6460   58.7150 O.2   297  GLY297     -0.2863
     20  N         21.2980  -14.3270   49.4240 N.3   331  SER331     -0.1217
     21  CA        21.6390  -13.1620   50.2170 C.3   331  SER331      0.1889
     22  C         22.7280  -13.5180   51.2120 C.2   331  SER331      0.2288
     23  O         23.1730  -14.6680   51.3200 O.2   331  SER331     -0.2866
     24  CB        20.4310  -12.6840   51.0160 C.3   331  SER331      0.2089
     25  OG        20.3160  -13.4920   52.1880 O.3   331  SER331     -0.2183
     26  N         23.1540  -14.7310   54.5100 N.3   333  ALA333     -0.1231
     27  CA        22.2470  -15.3870   55.4410 C.3   333  ALA333      0.1694
     28  C         22.3590  -14.7830   56.8420 C.2   333  ALA333      0.2592
     29  O         23.4090  -14.3000   57.2580 O.2   333  ALA333     -0.2718
     30  CB        22.5240  -16.8670   55.5390 C.3   333  ALA333      0.0304
     31  N         21.2330  -14.7970   57.5510 N.am  334  ASN334     -0.1960
     32  CA        21.2060  -14.5350   58.9850 C.3   334  ASN334      0.1819
     33  C         21.6090  -15.7670   59.7790 C.2   334  ASN334      0.2621
     34  O         22.2760  -15.6620   60.8140 O.2   334  ASN334     -0.2715
     35  CB        19.7880  -14.1560   59.4490 C.3   334  ASN334      0.1195
     36  CG        19.2270  -12.9530   58.7460 C.2   334  ASN334      0.2630
     37  OD1       19.4870  -11.8400   59.1530 O.2   334  ASN334     -0.2716
     38  ND2       18.3940  -13.1730   57.7290 N.am  334  ASN334     -0.0877
     39  N         21.2020  -16.9390   59.3080 N.am  335  PHE335     -0.1960
     40  CA        20.9720  -18.0380   60.2240 C.3   335  PHE335      0.1771
     41  C         21.4120  -19.3690   59.6010 C.2   335  PHE335      0.2620
     42  O         22.1150  -20.1440   60.2450 O.2   335  PHE335     -0.2715
     43  CB        19.4870  -17.9170   60.6300 C.3   335  PHE335      0.0574
     44  CG        18.8580  -19.1510   61.1500 C.ar  335  PHE335     -0.0200
     45  CD1       19.4550  -19.8790   62.1600 C.ar  335  PHE335     -0.0042
     46  CD2       17.6180  -19.5410   60.6690 C.ar  335  PHE335     -0.0042
     47  CE1       18.8550  -21.0100   62.6520 C.ar  335  PHE335     -0.0003
     48  CE2       17.0080  -20.6480   61.1500 C.ar  335  PHE335     -0.0003
     49  CZ        17.6230  -21.4050   62.1450 C.ar  335  PHE335     -0.0000
     50  N         21.0680  -19.6200   58.3420 N.am  336  THR336     -0.1951
     51  CA        21.5400  -20.8120   57.6440 C.3   336  THR336      0.1897
     52  C         23.0600  -20.9030   57.6670 C.2   336  THR336      0.2313
     53  O         23.7530  -19.9280   57.3680 O.2   336  THR336     -0.2863
     54  CB        21.0290  -20.8030   56.2000 C.3   336  THR336      0.1794
     55  OG1       19.5980  -20.9920   56.1980 O.3   336  THR336     -0.2208
     56  CG2       21.7060  -21.9070   55.3430 C.3   336  THR336      0.0378
     57  N         27.6270  -16.1190   47.8340 N.3   367  ARG367     -0.1245
     58  CA        26.9580  -16.3410   49.1040 C.3   367  ARG367      0.1563
     59  C         27.6730  -15.6040   50.2360 C.2   367  ARG367      0.2260
     60  O         28.9040  -15.4850   50.2560 O.2   367  ARG367     -0.2867
     61  CB        26.8950  -17.8470   49.4200 C.3   367  ARG367      0.0307
     62  CG        26.1100  -18.2010   50.6510 C.3   367  ARG367      0.0489
     63  CD        24.6270  -18.0190   50.4150 C.3   367  ARG367      0.2205
     64  NE        23.8340  -18.8770   51.2780 N.pl3 367  ARG367     -0.0865
     65  CZ        22.8110  -18.4940   52.0430 C.cat 367  ARG367      0.5346
     66  NH1       22.3970  -17.2380   52.0920 N.pl3 367  ARG367      0.1354
     67  NH2       22.1600  -19.4000   52.7560 N.pl3 367  ARG367      0.1354
     68  N          9.2260  -15.3400   59.9550 N.3   555  THR555     -0.1203
     69  CA        10.2930  -14.3500   59.8220 C.3   555  THR555      0.1994
     70  C         11.4630  -14.6690   60.7500 C.2   555  THR555      0.2617
     71  O         11.3340  -15.4090   61.7350 O.2   555  THR555     -0.2717
     72  CB         9.7930  -12.9190   60.1470 C.3   555  THR555      0.1784
     73  OG1       10.8770  -11.9510   60.0630 O.3   555  THR555     -0.2211
     74  CG2        9.1740  -12.9010   61.5570 C.3   555  THR555      0.0376
     75  N         12.6130  -14.0550   60.4350 N.am  556  VAL556     -0.1979
     76  CA        13.7500  -14.0190   61.3480 C.3   556  VAL556      0.1595
     77  C         13.6010  -12.8760   62.3510 C.2   556  VAL556      0.2287
     78  O         14.2030  -12.9100   63.4380 O.2   556  VAL556     -0.2864
     79  CB        15.0320  -13.8900   60.5110 C.3   556  VAL556      0.0276
     80  CG1       15.1410  -12.4880   59.8890 C.3   556  VAL556      0.0022
     81  CG2       16.2630  -14.2630   61.3450 C.3   556  VAL556      0.0022
     82  N         13.4710  -12.2410   55.2630 N.3   594  GLY594     -0.1210
     83  CA        14.5220  -12.1850   56.2750 C.3   594  GLY594      0.1956
     84  C         15.9230  -12.1850   55.6940 C.2   594  GLY594      0.2612
     85  O         16.7770  -11.3880   56.0990 O.2   594  GLY594     -0.2717
     86  N         16.1820  -13.0650   54.7150 N.am  595  GLY595     -0.1956
     87  CA        17.5090  -13.1100   54.1120 C.3   595  GLY595      0.1869
     88  C         17.8560  -11.8060   53.4190 C.2   595  GLY595      0.2309
     89  O         18.9890  -11.3460   53.4800 O.2   595  GLY595     -0.2863
@<TRIPOS>BOND
     1    57    58    1
     2     1     2    1
     3     9     8    2
     4    58    61    1
     5    58    59    1
     6     4     3    2
     7     2     3    1
     8     2     5    1
     9    61    62    1
    10    20    21    1
    11     8     7    1
    12     3     6   am
    13     6     7    1
    14    21    24    1
    15    21    22    1
    16    59    60    2
    17    63    62    1
    18    63    64    1
    19    24    25    1
    20    22    23    2
    21    64    65    2
    22    65    66    1
    23    65    67    1
    24    10    11    1
    25    15    14    1
    26    14    11    1
    27    88    89    2
    28    88    87    1
    29    11    12    1
    30    87    86    1
    31    26    27    1
    32    86    84   am
    33    12    13    2
    34    12    16   am
    35    82    83    1
    36    56    54    1
    37    27    30    1
    38    27    28    1
    39    84    85    2
    40    84    83    1
    41    16    17    1
    42    55    54    1
    43    54    51    1
    44    28    29    2
    45    28    31   am
    46    53    52    2
    47    17    18    1
    48    31    32    1
    49    51    52    1
    50    51    50    1
    51    38    36   am
    52    18    19    2
    53    50    41   am
    54    36    37    2
    55    36    35    1
    56    32    35    1
    57    32    33    1
    58    39    33   am
    59    39    40    1
    60    41    40    1
    61    41    42    2
    62    33    34    2
    63    69    68    1
    64    69    72    1
    65    69    70    1
    66    80    79    1
    67    73    72    1
    68    72    74    1
    69    40    43    1
    70    75    70   am
    71    75    76    1
    72    79    81    1
    73    79    76    1
    74    43    44    1
    75    46    48   ar
    76    46    44   ar
    77    70    71    2
    78    48    49   ar
    79    44    45   ar
    80    76    77    1
    81    49    47   ar
    82    45    47   ar
    83    77    78    2
