@<TRIPOS>MOLECULE
tmp/5te2B01.pdb
 154 151 0 0 0
SMALL
GASTEIGER

@<TRIPOS>ATOM
      1  N         -9.2460    1.2750  -15.8610 N.3    17  PRO17      -0.2102
      2  CA        -9.6690    0.6830  -17.1400 C.3    17  PRO17       0.1504
      3  C        -11.1330    0.9500  -17.4540 C.2    17  PRO17       0.2575
      4  O        -12.0090    0.7910  -16.6000 O.2    17  PRO17      -0.2718
      5  CB        -9.4300   -0.8190  -16.9360 C.3    17  PRO17       0.0282
      6  CG        -8.4990   -0.9340  -15.8020 C.3    17  PRO17       0.0208
      7  CD        -8.6600    0.2630  -14.9500 C.3    17  PRO17       0.0893
      8  N        -11.3920    1.3590  -18.7000 N.am   18  TYR18      -0.1977
      9  CA       -12.7580    1.4960  -19.2270 C.3    18  TYR18       0.1639
     10  C        -13.6650    2.2840  -18.2800 C.2    18  TYR18       0.2290
     11  O        -14.8090    1.8980  -18.0180 O.2    18  TYR18      -0.2864
     12  CB       -13.3440    0.1190  -19.5280 C.3    18  TYR18       0.0560
     13  CG       -12.3300   -0.7970  -20.2080 C.ar   18  TYR18      -0.0198
     14  CD1      -12.0030   -0.6260  -21.5440 C.ar   18  TYR18      -0.0009
     15  CD2      -11.6840   -1.8020  -19.4970 C.ar   18  TYR18      -0.0009
     16  CE1      -11.0700   -1.4420  -22.1740 C.ar   18  TYR18       0.0417
     17  CE2      -10.7520   -2.6400  -20.1180 C.ar   18  TYR18       0.0417
     18  CZ       -10.4500   -2.4470  -21.4550 C.ar   18  TYR18       0.1957
     19  OH        -9.5210   -3.2600  -22.0620 O.3    18  TYR18      -0.2866
     20  N         -6.6350  -11.0320  -14.1730 N.3    57  TRP57      -0.1227
     21  CA        -6.9620  -11.0390  -15.5960 C.3    57  TRP57       0.1737
     22  C         -6.0570  -12.0040  -16.3570 C.2    57  TRP57       0.2595
     23  O         -5.3450  -11.6330  -17.2890 O.2    57  TRP57      -0.2718
     24  CB        -6.8980   -9.6200  -16.1730 C.3    57  TRP57       0.0564
     25  CG        -8.1560   -8.8430  -15.9320 C.ar   57  TRP57       0.0003
     26  CD1       -9.4310   -9.3370  -15.9000 C.ar   57  TRP57       0.0946
     27  CD2       -8.2670   -7.4260  -15.7050 C.ar   57  TRP57       0.0152
     28  NE1      -10.3270   -8.3200  -15.6580 N.ar   57  TRP57      -0.2442
     29  CE2       -9.6420   -7.1370  -15.5430 C.ar   57  TRP57       0.0810
     30  CE3       -7.3410   -6.3740  -15.6330 C.ar   57  TRP57       0.0012
     31  CZ2      -10.1120   -5.8400  -15.3040 C.ar   57  TRP57       0.0191
     32  CZ3       -7.8120   -5.0780  -15.3740 C.ar   57  TRP57       0.0001
     33  CH2       -9.1840   -4.8280  -15.2270 C.ar   57  TRP57       0.0015
     34  N         -6.1210  -13.2740  -15.9500 N.am   58  TRP58      -0.1976
     35  CA        -5.4950  -14.4130  -16.6260 C.3    58  TRP58       0.1640
     36  C         -3.9800  -14.4630  -16.5140 C.2    58  TRP58       0.2290
     37  O         -3.3630  -15.2600  -17.2230 O.2    58  TRP58      -0.2864
     38  CB        -5.7570  -14.4900  -18.1360 C.3    58  TRP58       0.0576
     39  CG        -7.1200  -14.2900  -18.6580 C.ar   58  TRP58       0.0006
     40  CD1       -7.7690  -13.0980  -18.8130 C.ar   58  TRP58       0.0946
     41  CD2       -7.9680  -15.2880  -19.2420 C.ar   58  TRP58       0.0152
     42  NE1       -8.9850  -13.2950  -19.4080 N.ar   58  TRP58      -0.2442
     43  CE2       -9.1410  -14.6330  -19.6740 C.ar   58  TRP58       0.0810
     44  CE3       -7.8660  -16.6760  -19.4070 C.ar   58  TRP58       0.0012
     45  CZ2      -10.2040  -15.3150  -20.2700 C.ar   58  TRP58       0.0191
     46  CZ3       -8.9260  -17.3570  -19.9940 C.ar   58  TRP58       0.0001
     47  CH2      -10.0830  -16.6740  -20.4190 C.ar   58  TRP58       0.0015
     48  N          3.1130   -5.3930  -24.9550 N.3   116  SER116     -0.1202
     49  CA         1.7410   -5.6580  -24.5300 C.3   116  SER116      0.2020
     50  C          1.0040   -6.4630  -25.5880 C.2   116  SER116      0.2619
     51  O          1.4230   -6.5470  -26.7460 O.2   116  SER116     -0.2717
     52  CB         0.9760   -4.3580  -24.2390 C.3   116  SER116      0.2103
     53  OG         0.6610   -3.6830  -25.4470 O.3   116  SER116     -0.2182
     54  N         -0.1190   -7.0460  -25.1670 N.am  117  GLY117     -0.1942
     55  CA        -0.8900   -7.8760  -26.0740 C.3   117  GLY117      0.2014
     56  C         -1.3980   -7.1060  -27.2750 C.2   117  GLY117      0.2639
     57  O         -1.3110   -7.5830  -28.4100 O.2   117  GLY117     -0.2714
     58  N         -1.9160   -5.8930  -27.0440 N.am  118  SER118     -0.1949
     59  CA        -2.4480   -5.1030  -28.1520 C.3   118  SER118      0.1924
     60  C         -1.3660   -4.8140  -29.1780 C.2   118  SER118      0.2314
     61  O         -1.6110   -4.8890  -30.3910 O.2   118  SER118     -0.2863
     62  CB        -3.0510   -3.7900  -27.6370 C.3   118  SER118      0.2116
     63  OG        -4.1900   -4.0440  -26.8210 O.3   118  SER118     -0.2180
     64  N         -0.6680   -7.8260  -31.3260 N.3   121  VAL121     -0.1245
     65  CA        -1.6800   -7.9960  -32.3670 C.3   121  VAL121      0.1561
     66  C         -1.3950   -7.0550  -33.5400 C.2   121  VAL121      0.2260
     67  O         -1.5060   -7.4500  -34.7090 O.2   121  VAL121     -0.2867
     68  CB        -3.0860   -7.7740  -31.7720 C.3   121  VAL121      0.0252
     69  CG1       -4.1310   -7.5140  -32.8660 C.3   121  VAL121      0.0019
     70  CG2       -3.4900   -8.9560  -30.8860 C.3   121  VAL121      0.0019
     71  N        -12.2620  -10.2740  -29.2960 N.3   150  TYR150     -0.1227
     72  CA       -11.6010   -9.1260  -28.6870 C.3   150  TYR150      0.1736
     73  C        -10.0930   -9.3130  -28.8140 C.2   150  TYR150      0.2595
     74  O         -9.5710  -10.3940  -28.5580 O.2   150  TYR150     -0.2718
     75  CB       -11.9930   -8.9500  -27.2080 C.3   150  TYR150      0.0548
     76  CG       -11.1990   -7.8650  -26.5100 C.ar  150  TYR150     -0.0200
     77  CD1      -11.5960   -6.5360  -26.5650 C.ar  150  TYR150     -0.0009
     78  CD2      -10.0410   -8.1750  -25.8080 C.ar  150  TYR150     -0.0009
     79  CE1      -10.8600   -5.5470  -25.9320 C.ar  150  TYR150      0.0417
     80  CE2       -9.3030   -7.2010  -25.1780 C.ar  150  TYR150      0.0417
     81  CZ        -9.7120   -5.8900  -25.2430 C.ar  150  TYR150      0.1957
     82  OH        -8.9540   -4.9340  -24.6040 O.3   150  TYR150     -0.2866
     83  N         -9.3920   -8.2370  -29.1670 N.am  151  HIS151     -0.1961
     84  CA        -7.9740   -8.3670  -29.4720 C.3   151  HIS151      0.1787
     85  C         -7.1440   -7.1950  -28.9590 C.2   151  HIS151      0.2621
     86  O         -6.0020   -7.0280  -29.3950 O.2   151  HIS151     -0.2715
     87  CB        -7.7750   -8.5150  -30.9850 C.3   151  HIS151      0.0785
     88  CG        -8.4260   -9.7380  -31.5500 C.ar  151  HIS151      0.0821
     89  ND1       -7.8490  -10.9870  -31.4690 N.ar  151  HIS151     -0.2267
     90  CD2       -9.6160   -9.9110  -32.1740 C.ar  151  HIS151      0.1154
     91  CE1       -8.6480  -11.8770  -32.0340 C.ar  151  HIS151      0.1986
     92  NE2       -9.7290  -11.2520  -32.4670 N.ar  151  HIS151     -0.2212
     93  N         -7.6780   -6.3880  -28.0540 N.am  152  GLY152     -0.1940
     94  CA        -6.9530   -5.2680  -27.4930 C.3   152  GLY152      0.2014
     95  C         -7.6020   -3.9480  -27.8700 C.2   152  GLY152      0.2638
     96  O         -8.6210   -3.8970  -28.5630 O.2   152  GLY152     -0.2714
     97  N         -6.9520   -2.8650  -27.4230 N.am  153  ASP153     -0.1971
     98  CA        -7.5500   -1.5300  -27.4390 C.3   153  ASP153      0.1709
     99  C         -6.8430   -0.5170  -28.3300 C.2   153  ASP153      0.2293
    100  O         -7.3350    0.6150  -28.4350 O.2   153  ASP153     -0.2864
    101  CB        -7.5800   -0.9230  -26.0280 C.3   153  ASP153      0.1436
    102  CG        -8.4050   -1.7070  -25.0680 C.2   153  ASP153      0.3671
    103  OD1       -8.1320   -1.5910  -23.8580 O.co2 153  ASP153     -0.2456
    104  OD2       -9.3230   -2.4310  -25.5160 O.co2 153  ASP153     -0.2456
    105  N         -9.4200  -15.7710  -31.9400 N.3   213  GLU213     -0.1245
    106  CA        -9.0420  -16.4380  -30.6940 C.3   213  GLU213      0.1567
    107  C         -9.4360  -17.9090  -30.7990 C.2   213  GLU213      0.2260
    108  O        -10.6160  -18.1990  -31.0240 O.2   213  GLU213     -0.2867
    109  CB        -9.7670  -15.8250  -29.5010 C.3   213  GLU213      0.0388
    110  CG        -9.5310  -14.3230  -29.2470 C.3   213  GLU213      0.1160
    111  CD       -10.6710  -13.7230  -28.4370 C.2   213  GLU213      0.3649
    112  OE1      -11.6700  -13.2930  -29.0500 O.co2 213  GLU213     -0.2457
    113  OE2      -10.5760  -13.7000  -27.1900 O.co2 213  GLU213     -0.2457
    114  N        -12.5540  -11.8810  -23.5750 N.3   219  ALA219     -0.1245
    115  CA       -13.1460  -10.6140  -23.1620 C.3   219  ALA219      0.1562
    116  C        -14.4060  -10.2800  -23.9420 C.2   219  ALA219      0.2260
    117  O        -15.1960   -9.4430  -23.4950 O.2   219  ALA219     -0.2867
    118  CB       -12.1190   -9.4860  -23.3020 C.3   219  ALA219      0.0290
    119  N         -4.7820  -15.5440  -31.9710 N.3   247  ASP247     -0.1239
    120  CA        -4.5210  -14.6860  -30.8200 C.3   247  ASP247      0.1674
    121  C         -4.6880  -15.5660  -29.5880 C.2   247  ASP247      0.2266
    122  O         -5.8100  -15.8010  -29.1380 O.2   247  ASP247     -0.2867
    123  CB        -5.4780  -13.4990  -30.7990 C.3   247  ASP247      0.1410
    124  CG        -5.2710  -12.5990  -29.5960 C.2   247  ASP247      0.3668
    125  OD1       -4.5130  -12.9810  -28.6910 O.co2 247  ASP247     -0.2456
    126  OD2       -5.8820  -11.5080  -29.5430 O.co2 247  ASP247     -0.2456
    127  N         -3.3840  -14.7860  -26.6010 N.3   249  ILE249     -0.1231
    128  CA        -2.9440  -13.9720  -25.4710 C.3   249  ILE249      0.1692
    129  C         -3.6540  -14.4030  -24.1890 C.2   249  ILE249      0.2591
    130  O         -3.0440  -14.4570  -23.1170 O.2   249  ILE249     -0.2718
    131  CB        -3.1490  -12.4820  -25.8050 C.3   249  ILE249      0.0266
    132  CG1       -2.0660  -12.0830  -26.8260 C.3   249  ILE249      0.0019
    133  CG2       -3.1140  -11.6210  -24.5440 C.3   249  ILE249      0.0020
    134  CD1       -2.3830  -10.8470  -27.6510 C.3   249  ILE249      0.0001
    135  N         -4.9330  -14.7740  -24.2870 N.am  250  ALA250     -0.1980
    136  CA        -5.6590  -15.2760  -23.1220 C.3   250  ALA250      0.1597
    137  C         -5.6180  -16.7950  -23.0000 C.2   250  ALA250      0.2287
    138  O         -5.6930  -17.3220  -21.8820 O.2   250  ALA250     -0.2864
    139  CB        -7.1240  -14.8330  -23.1750 C.3   250  ALA250      0.0319
    140  N          0.0590  -12.0520  -21.4910 N.3   276  LYS276     -0.1245
    141  CA        -0.5730  -12.3040  -20.1950 C.3   276  LYS276      0.1561
    142  C          0.1910  -13.3150  -19.3430 C.2   276  LYS276      0.2260
    143  O          1.1520  -12.9530  -18.6620 O.2   276  LYS276     -0.2867
    144  CB        -2.0200  -12.7560  -20.3980 C.3   276  LYS276      0.0271
    145  CG        -2.9900  -11.6240  -20.7080 C.3   276  LYS276      0.0035
    146  CD        -4.3810  -12.1930  -20.9470 C.3   276  LYS276      0.0206
    147  CE        -5.4090  -11.1170  -21.1910 C.3   276  LYS276      0.1093
    148  NZ        -5.6070  -10.2740  -20.0080 N.3   276  LYS276     -0.1314
    149  N          4.7090   -6.6960  -17.8230 N.3   284  SER284     -0.1217
    150  CA         4.0770   -6.7010  -19.1300 C.3   284  SER284      0.1889
    151  C          5.0710   -7.1880  -20.1800 C.2   284  SER284      0.2288
    152  O          6.1920   -6.6800  -20.2710 O.2   284  SER284     -0.2866
    153  CB         3.5530   -5.3110  -19.5010 C.3   284  SER284      0.2089
    154  OG         2.6140   -5.4470  -20.5660 O.3   284  SER284     -0.2183
@<TRIPOS>BOND
     1    67    66    2
     2    66    65    1
     3    69    68    1
     4    92    90   ar
     5    92    91   ar
     6    65    68    1
     7    65    64    1
     8    90    88   ar
     9    91    89   ar
    10   119   120    1
    11   105   106    1
    12    68    70    1
    13    88    89   ar
    14    88    87    1
    15   108   107    2
    16    87    84    1
    17   120   123    1
    18   120   121    1
    19   107   106    1
    20   123   124    1
    21   106   109    1
    22    61    60    2
    23   124   126   ar
    24   124   125   ar
    25   121   122    2
    26   109   110    1
    27    84    83    1
    28    84    85    1
    29    86    85    2
    30    71    72    1
    31   110   111    1
    32    60    59    1
    33    83    73   am
    34   112   111   ar
    35    85    93   am
    36    73    72    1
    37    73    74    2
    38    72    75    1
    39    96    95    2
    40   111   113   ar
    41   100    99    2
    42    57    56    2
    43    99    98    1
    44    59    62    1
    45    59    58    1
    46    93    94    1
    47    95    94    1
    48    95    97   am
    49   134   132    1
    50    62    63    1
    51    98    97    1
    52    98   101    1
    53    56    58   am
    54    56    55    1
    55    75    76    1
    56   132   131    1
    57    51    50    2
    58   127   128    1
    59    77    76   ar
    60    77    79   ar
    61    76    78   ar
    62    55    54    1
    63   101   102    1
    64    79    81   ar
    65    78    80   ar
    66   131   128    1
    67   131   133    1
    68    50    54   am
    69    50    49    1
    70   104   102   ar
    71   128   129    1
    72    53    52    1
    73    81    80   ar
    74    81    82    1
    75   102   103   ar
    76    48    49    1
    77    49    52    1
    78   135   129   am
    79   135   136    1
    80   129   130    2
    81   116   117    2
    82   116   115    1
    83   114   115    1
    84   118   115    1
    85   139   136    1
    86   136   137    1
    87   137   138    2
    88    16    14   ar
    89    16    18   ar
    90    19    18    1
    91    14    13   ar
    92   140   141    1
    93    18    17   ar
    94   147   146    1
    95   147   148    1
    96   146   145    1
    97   145   144    1
    98   154   153    1
    99    47    45   ar
   100    47    46   ar
   101   144   141    1
   102   152   151    2
   103    45    43   ar
   104    13    12    1
   105    13    15   ar
   106   141   142    1
   107   151   150    1
   108    17    15   ar
   109    46    44   ar
   110    43    42   ar
   111    43    41   ar
   112    12     9    1
   113   153   150    1
   114    42    40   ar
   115    44    41   ar
   116   142   143    2
   117    41    39   ar
   118     9     8    1
   119     9    10    1
   120   150   149    1
   121    40    39   ar
   122     8     3   am
   123    39    38    1
   124    10    11    2
   125    38    35    1
   126     3     2    1
   127     3     4    2
   128    23    22    2
   129    37    36    2
   130     2     5    1
   131     2     1    1
   132     5     6    1
   133    35    36    1
   134    35    34    1
   135    22    34   am
   136    22    21    1
   137    24    25    1
   138    24    21    1
   139    25    26   ar
   140    25    27   ar
   141    26    28   ar
   142     1     7    1
   143     6     7    1
   144    27    30   ar
   145    27    29   ar
   146    28    29   ar
   147    30    32   ar
   148    21    20    1
   149    29    31   ar
   150    32    33   ar
   151    31    33   ar
