@<TRIPOS>MOLECULE
tmp/5te4A00.pdb
 72 68 0 0 0
SMALL
GASTEIGER

@<TRIPOS>ATOM
      1  N         22.9150  -23.8950   33.6380 N.3   117  ASN117     -0.1240
      2  CA        21.8150  -22.9410   33.5610 C.3   117  ASN117      0.1653
      3  C         20.4370  -23.5980   33.6050 C.2   117  ASN117      0.2266
      4  O         19.4310  -22.8940   33.4660 O.2   117  ASN117     -0.2867
      5  CB        21.9460  -22.0900   32.2940 C.3   117  ASN117      0.1155
      6  CG        21.8360  -22.9100   31.0220 C.2   117  ASN117      0.2627
      7  OD1       22.1570  -24.0980   31.0070 O.2   117  ASN117     -0.2716
      8  ND2       21.3840  -22.2740   29.9460 N.am  117  ASN117     -0.0877
      9  N         19.1280  -26.0930   31.5600 N.3   119  THR119     -0.1203
     10  CA        18.8700  -26.8690   30.3570 C.3   119  THR119      0.1994
     11  C         20.1860  -27.1370   29.6380 C.2   119  THR119      0.2618
     12  O         21.2090  -26.5030   29.9060 O.2   119  THR119     -0.2717
     13  CB        17.8880  -26.1500   29.4200 C.3   119  THR119      0.1784
     14  OG1       18.4800  -24.9340   28.9460 O.3   119  THR119     -0.2211
     15  CG2       16.5890  -25.8280   30.1500 C.3   119  THR119      0.0376
     16  N         20.1490  -28.0930   28.7150 N.am  120  GLY120     -0.1942
     17  CA        21.3120  -28.4400   27.9350 C.3   120  GLY120      0.1998
     18  C         21.9820  -29.7050   28.4280 C.2   120  GLY120      0.2480
     19  O         21.5220  -30.3560   29.3710 O.2   120  GLY120     -0.2729
     20  N         23.0890  -30.0770   27.7940 N.am  121  PRO121     -0.2726
     21  CA        23.7910  -31.3040   28.1790 C.3   121  PRO121      0.1402
     22  C         24.6260  -31.1190   29.4390 C.2   121  PRO121      0.2269
     23  O         24.9790  -30.0070   29.8360 O.2   121  PRO121     -0.2865
     24  CB        24.6820  -31.5900   26.9650 C.3   121  PRO121      0.0296
     25  CG        24.9420  -30.2430   26.3820 C.3   121  PRO121      0.0237
     26  CD        23.6890  -29.4400   26.6100 C.3   121  PRO121      0.0939
     27  N         16.4460  -19.1930   33.3290 N.3   157  SER157     -0.1202
     28  CA        15.1730  -18.8050   32.7390 C.3   157  SER157      0.2020
     29  C         14.8710  -19.7650   31.6000 C.2   157  SER157      0.2619
     30  O         15.7700  -20.1190   30.8320 O.2   157  SER157     -0.2717
     31  CB        15.2000  -17.3620   32.2260 C.3   157  SER157      0.2103
     32  OG        13.9960  -17.0400   31.5500 O.3   157  SER157     -0.2182
     33  N         13.6100  -20.1930   31.5040 N.am  158  GLU158     -0.1965
     34  CA        13.2250  -21.0820   30.4120 C.3   158  GLU158      0.1733
     35  C         13.4300  -20.4060   29.0640 C.2   158  GLU158      0.2616
     36  O         13.9050  -21.0350   28.1110 O.2   158  GLU158     -0.2715
     37  CB        11.7720  -21.5290   30.5750 C.3   158  GLU158      0.0429
     38  CG        11.3470  -22.5860   29.5680 C.3   158  GLU158      0.1163
     39  CD         9.9300  -23.0720   29.7900 C.2   158  GLU158      0.3649
     40  OE1        9.2060  -22.4520   30.5980 O.co2 158  GLU158     -0.2457
     41  OE2        9.5400  -24.0770   29.1590 O.co2 158  GLU158     -0.2457
     42  N         13.0830  -19.1240   28.9690 N.am  159  ASN159     -0.1958
     43  CA        13.3650  -18.3150   27.7860 C.3   159  ASN159      0.1819
     44  C         13.6930  -16.9040   28.2560 C.2   159  ASN159      0.2621
     45  O         12.8120  -16.1830   28.7320 O.2   159  ASN159     -0.2715
     46  CB        12.1890  -18.3090   26.8100 C.3   159  ASN159      0.1195
     47  CG        12.4900  -17.5220   25.5540 C.2   159  ASN159      0.2630
     48  OD1       11.9230  -16.4550   25.3250 O.2   159  ASN159     -0.2716
     49  ND2       13.3980  -18.0420   24.7340 N.am  159  ASN159     -0.0877
     50  N         14.9620  -16.5160   28.1210 N.am  160  LEU160     -0.1977
     51  CA        15.4120  -15.2190   28.6080 C.3   160  LEU160      0.1596
     52  C         14.8540  -14.0620   27.7860 C.2   160  LEU160      0.2287
     53  O         14.8160  -12.9300   28.2810 O.2   160  LEU160     -0.2864
     54  CB        16.9420  -15.1830   28.6170 C.3   160  LEU160      0.0297
     55  CG        17.6470  -14.2950   29.6430 C.3   160  LEU160      0.0022
     56  CD1       17.0840  -14.5160   31.0390 C.3   160  LEU160      0.0001
     57  CD2       19.1480  -14.5510   29.6290 C.3   160  LEU160      0.0001
     58  N         25.0830  -12.6950   30.6450 N.3   210  ILE210     -0.1245
     59  CA        24.2490  -13.7450   30.0700 C.3   210  ILE210      0.1561
     60  C         23.3540  -13.1960   28.9600 C.2   210  ILE210      0.2260
     61  O         23.0230  -13.9170   28.0120 O.2   210  ILE210     -0.2867
     62  CB        23.4330  -14.4390   31.1760 C.3   210  ILE210      0.0252
     63  CG1       22.7110  -15.6740   30.6290 C.3   210  ILE210      0.0019
     64  CG2       22.4480  -13.4720   31.8200 C.3   210  ILE210      0.0019
     65  CD1       23.6440  -16.7270   30.0740 C.3   210  ILE210      0.0001
     66  N         23.8250  -14.9020   25.2190 N.3   214  THR214     -0.1218
     67  CA        22.7960  -15.7990   24.7130 C.3   214  THR214      0.1862
     68  C         21.5580  -15.0780   24.1970 C.2   214  THR214      0.2287
     69  O         20.6400  -15.7360   23.6970 O.2   214  THR214     -0.2866
     70  CB        22.3830  -16.7960   25.8040 C.3   214  THR214      0.1770
     71  OG1       23.4420  -16.9300   26.7620 O.3   214  THR214     -0.2211
     72  CG2       22.0880  -18.1610   25.1950 C.3   214  THR214      0.0375
@<TRIPOS>BOND
     1    69    68    2
     2    68    67    1
     3    67    66    1
     4    67    70    1
     5    49    47   am
     6    72    70    1
     7    48    47    2
     8    47    46    1
     9    70    71    1
    10    25    26    1
    11    25    24    1
    12    26    20    1
    13    46    43    1
    14    24    21    1
    15    52    53    2
    16    52    51    1
    17    43    44    1
    18    43    42    1
    19    20    21    1
    20    20    18   am
    21    17    18    1
    22    17    16    1
    23    61    60    2
    24    36    35    2
    25    50    44   am
    26    50    51    1
    27    21    22    1
    28    44    45    2
    29    18    19    2
    30    51    54    1
    31    54    55    1
    32    16    11   am
    33    14    13    1
    34    60    59    1
    35    42    35   am
    36    35    34    1
    37    41    39   ar
    38    13    15    1
    39    13    10    1
    40    22    23    2
    41    38    39    1
    42    38    37    1
    43    57    55    1
    44    11    12    2
    45    11    10    1
    46    55    56    1
    47    39    40   ar
    48     8     6   am
    49    59    58    1
    50    59    62    1
    51    65    63    1
    52    10     9    1
    53    34    37    1
    54    34    33    1
    55    63    62    1
    56    30    29    2
    57     7     6    2
    58     6     5    1
    59    62    64    1
    60    33    29   am
    61    32    31    1
    62    29    28    1
    63    31    28    1
    64     5     2    1
    65    28    27    1
    66     4     3    2
    67     2     3    1
    68     2     1    1
