@<TRIPOS>MOLECULE
tmp/5te4A02.pdb
 111 109 0 0 0
SMALL
GASTEIGER

@<TRIPOS>ATOM
      1  N          6.6060  -23.3380   63.5230 N.3    93  PHE93      -0.1227
      2  CA         6.7190  -23.6260   62.0960 C.3    93  PHE93       0.1736
      3  C          8.1320  -23.2880   61.6400 C.2    93  PHE93       0.2595
      4  O          8.4780  -22.1100   61.5050 O.2    93  PHE93      -0.2718
      5  CB         5.6820  -22.8240   61.3060 C.3    93  PHE93       0.0547
      6  CG         5.2690  -23.4600   60.0110 C.ar   93  PHE93      -0.0202
      7  CD1        4.5230  -24.6280   60.0060 C.ar   93  PHE93      -0.0042
      8  CD2        5.6030  -22.8780   58.8000 C.ar   93  PHE93      -0.0042
      9  CE1        4.1310  -25.2140   58.8170 C.ar   93  PHE93      -0.0003
     10  CE2        5.2150  -23.4560   57.6080 C.ar   93  PHE93      -0.0003
     11  CZ         4.4770  -24.6260   57.6170 C.ar   93  PHE93      -0.0000
     12  N          8.9490  -24.3150   61.4080 N.am   94  GLU94      -0.1966
     13  CA        10.2980  -24.1100   60.8920 C.3    94  GLU94       0.1718
     14  C         10.6660  -25.2380   59.9340 C.2    94  GLU94       0.2458
     15  O         10.7320  -26.4050   60.3440 O.2    94  GLU94      -0.2730
     16  CB        11.3180  -24.0290   62.0290 C.3    94  GLU94       0.0428
     17  CG        12.6870  -23.5300   61.5850 C.3    94  GLU94       0.1163
     18  CD        13.7540  -23.7140   62.6450 C.2    94  GLU94       0.3649
     19  OE1       13.9550  -24.8610   63.0940 O.co2  94  GLU94      -0.2457
     20  OE2       14.3900  -22.7110   63.0340 O.co2  94  GLU94      -0.2457
     21  N         10.9150  -24.9330   58.6600 N.am   95  PRO95      -0.2727
     22  CA        11.1610  -25.9980   57.6780 C.3    95  PRO95       0.1402
     23  C         12.4220  -26.7950   57.9830 C.2    95  PRO95       0.2269
     24  O         13.3730  -26.2950   58.5900 O.2    95  PRO95      -0.2865
     25  CB        11.2950  -25.2340   56.3540 C.3    95  PRO95       0.0296
     26  CG        10.5930  -23.9390   56.5890 C.3    95  PRO95       0.0237
     27  CD        10.8270  -23.6060   58.0300 C.3    95  PRO95       0.0939
     28  N         15.1330  -27.5100   52.0120 N.3   135  LYS135     -0.1245
     29  CA        14.1770  -26.8340   52.8810 C.3   135  LYS135      0.1561
     30  C         13.0520  -26.2420   52.0420 C.2   135  LYS135      0.2260
     31  O         13.3190  -25.4020   51.1740 O.2   135  LYS135     -0.2867
     32  CB        14.8580  -25.7370   53.6890 C.3   135  LYS135      0.0271
     33  CG        15.6950  -26.2350   54.8510 C.3   135  LYS135      0.0035
     34  CD        16.1430  -25.0700   55.7130 C.3   135  LYS135      0.0206
     35  CE        16.8810  -25.5380   56.9490 C.3   135  LYS135      0.1093
     36  NZ        17.2050  -24.3880   57.8350 N.3   135  LYS135     -0.1314
     37  N         11.0810  -23.7610   51.7580 N.3   137  VAL137     -0.1245
     38  CA        10.8510  -22.3920   52.2080 C.3   137  VAL137      0.1561
     39  C          9.8970  -21.7080   51.2380 C.2   137  VAL137      0.2260
     40  O         10.1630  -21.6420   50.0330 O.2   137  VAL137     -0.2867
     41  CB        12.1730  -21.6210   52.3200 C.3   137  VAL137      0.0252
     42  CG1       11.9270  -20.2340   52.8870 C.3   137  VAL137      0.0019
     43  CG2       13.1640  -22.3930   53.1740 C.3   137  VAL137      0.0019
     44  N         15.0840  -17.9440   50.3460 N.3   144  LEU144     -0.1231
     45  CA        15.7230  -18.0840   51.6440 C.3   144  LEU144      0.1693
     46  C         16.0940  -19.5350   51.9130 C.2   144  LEU144      0.2592
     47  O         15.4270  -20.4620   51.4440 O.2   144  LEU144     -0.2718
     48  CB        14.8080  -17.5730   52.7610 C.3   144  LEU144      0.0284
     49  CG        14.3870  -16.1090   52.6530 C.3   144  LEU144      0.0019
     50  CD1       13.4130  -15.7480   53.7590 C.3   144  LEU144      0.0001
     51  CD2       15.6090  -15.2010   52.6890 C.3   144  LEU144      0.0001
     52  N         17.1780  -19.7150   52.6710 N.am  145  ASN145     -0.1974
     53  CA        17.5800  -21.0230   53.1950 C.3   145  ASN145      0.1688
     54  C         17.7780  -22.0510   52.0840 C.2   145  ASN145      0.2292
     55  O         17.5710  -23.2500   52.2820 O.2   145  ASN145     -0.2864
     56  CB        16.5700  -21.5290   54.2280 C.3   145  ASN145      0.1181
     57  CG        16.7000  -20.8210   55.5630 C.2   145  ASN145      0.2629
     58  OD1       17.5090  -19.9080   55.7180 O.2   145  ASN145     -0.2716
     59  ND2       15.8980  -21.2390   56.5350 N.am  145  ASN145     -0.0877
     60  N          7.0890  -13.8860   53.7480 N.3   239  PHE239     -0.1227
     61  CA         7.5860  -15.1700   54.2260 C.3   239  PHE239      0.1736
     62  C          6.8910  -15.5000   55.5430 C.2   239  PHE239      0.2595
     63  O          6.1020  -14.7110   56.0690 O.2   239  PHE239     -0.2718
     64  CB         9.1110  -15.1490   54.3780 C.3   239  PHE239      0.0547
     65  CG         9.6150  -14.0740   55.3000 C.ar  239  PHE239     -0.0202
     66  CD1        9.9050  -12.8070   54.8160 C.ar  239  PHE239     -0.0042
     67  CD2        9.8050  -14.3310   56.6510 C.ar  239  PHE239     -0.0042
     68  CE1       10.3700  -11.8190   55.6590 C.ar  239  PHE239     -0.0003
     69  CE2       10.2710  -13.3470   57.5000 C.ar  239  PHE239     -0.0003
     70  CZ        10.5530  -12.0890   57.0040 C.ar  239  PHE239     -0.0000
     71  N          7.1940  -16.6810   56.0750 N.am  240  ASN240     -0.1960
     72  CA         6.6090  -17.1570   57.3190 C.3   240  ASN240      0.1819
     73  C          7.6990  -17.3460   58.3630 C.2   240  ASN240      0.2621
     74  O          8.7760  -17.8730   58.0640 O.2   240  ASN240     -0.2715
     75  CB         5.8560  -18.4730   57.1110 C.3   240  ASN240      0.1195
     76  CG         5.1360  -18.9310   58.3600 C.2   240  ASN240      0.2630
     77  OD1        5.7170  -19.5970   59.2170 O.2   240  ASN240     -0.2716
     78  ND2        3.8630  -18.5720   58.4730 N.am  240  ASN240     -0.0877
     79  N          7.4130  -16.9200   59.5900 N.am  241  CYS241     -0.1968
     80  CA         8.3880  -17.0010   60.6720 C.3   241  CYS241      0.1712
     81  C          7.6560  -17.1880   61.9910 C.2   241  CYS241      0.2296
     82  O          6.8860  -16.3130   62.3990 O.2   241  CYS241     -0.2864
     83  CB         9.2580  -15.7470   60.7200 C.3   241  CYS241      0.0983
     84  SG        10.3400  -15.6910   62.1560 S.3   241  CYS241     -0.0798
     85  N         12.0780  -13.7550   66.1650 N.3   292  THR292     -0.1203
     86  CA        13.2930  -13.5150   65.4000 C.3   292  THR292      0.1994
     87  C         13.5330  -14.6480   64.4130 C.2   292  THR292      0.2618
     88  O         13.3830  -15.8250   64.7540 O.2   292  THR292     -0.2717
     89  CB        14.5070  -13.3770   66.3250 C.3   292  THR292      0.1784
     90  OG1       14.1870  -12.4830   67.3990 O.3   292  THR292     -0.2211
     91  CG2       15.7010  -12.8300   65.5600 C.3   292  THR292      0.0376
     92  N         13.9110  -14.2830   63.1880 N.am  293  CYS293     -0.1955
     93  CA        14.2830  -15.2430   62.1560 C.3   293  CYS293      0.1843
     94  C         15.5590  -14.7700   61.4790 C.2   293  CYS293      0.2625
     95  O         15.6050  -13.6560   60.9480 O.2   293  CYS293     -0.2714
     96  CB        13.1660  -15.4210   61.1240 C.3   293  CYS293      0.0997
     97  SG        11.9820  -16.7110   61.5490 S.3   293  CYS293     -0.0797
     98  N         16.5860  -15.6120   61.4980 N.am  294  ILE294     -0.1963
     99  CA        17.8420  -15.3490   60.8050 C.3   294  ILE294      0.1727
    100  C         17.9370  -16.3340   59.6490 C.2   294  ILE294      0.2616
    101  O         18.1880  -17.5280   59.8580 O.2   294  ILE294     -0.2715
    102  CB        19.0520  -15.4670   61.7410 C.3   294  ILE294      0.0290
    103  CG1       18.8990  -14.5210   62.9350 C.3   294  ILE294      0.0022
    104  CG2       20.3370  -15.1650   60.9850 C.3   294  ILE294      0.0023
    105  CD1       20.0200  -14.6330   63.9500 C.3   294  ILE294      0.0001
    106  N         17.7350  -15.8390   58.4300 N.am  295  SER295     -0.1950
    107  CA        17.7450  -16.6530   57.2250 C.3   295  SER295      0.1924
    108  C         18.8750  -16.2060   56.3050 C.2   295  SER295      0.2314
    109  O         19.5190  -15.1760   56.5220 O.2   295  SER295     -0.2863
    110  CB        16.4020  -16.5660   56.4890 C.3   295  SER295      0.2116
    111  OG        15.3200  -16.8400   57.3590 O.3   295  SER295     -0.2180
@<TRIPOS>BOND
     1    40    39    2
     2    44    45    1
     3    31    30    2
     4    39    38    1
     5    47    46    2
     6    45    46    1
     7    45    48    1
     8    37    38    1
     9    46    52   am
    10    28    29    1
    11    30    29    1
    12    54    55    2
    13    54    53    1
    14    38    41    1
    15    41    42    1
    16    41    43    1
    17    49    51    1
    18    49    48    1
    19    49    50    1
    20    52    53    1
    21    29    32    1
    22    53    56    1
    23    32    33    1
    24    60    61    1
    25    61    64    1
    26    61    62    1
    27    56    57    1
    28    64    65    1
    29    66    65   ar
    30    66    68   ar
    31    33    34    1
    32    65    67   ar
    33    62    63    2
    34    62    71   am
    35    57    58    2
    36    57    59   am
    37    68    70   ar
    38    34    35    1
    39    71    72    1
    40   108   109    2
    41   108   107    1
    42    25    26    1
    43    25    22    1
    44   110   107    1
    45   110   111    1
    46    26    27    1
    47    67    69   ar
    48    35    36    1
    49    70    69   ar
    50    75    72    1
    51    75    76    1
    52   107   106    1
    53    72    73    1
    54    10    11   ar
    55    10     8   ar
    56    11     9   ar
    57    22    23    1
    58    22    21    1
    59    23    24    2
    60    27    21    1
    61    74    73    2
    62    76    78   am
    63    76    77    2
    64    73    79   am
    65   106   100   am
    66    21    14   am
    67     8     6   ar
    68     9     7   ar
    69    79    80    1
    70   100   101    2
    71   100    99    1
    72    14    15    2
    73    14    13    1
    74     7     6   ar
    75     6     5    1
    76    80    83    1
    77    80    81    1
    78    83    84    1
    79    99    98    1
    80    99   102    1
    81    13    12    1
    82    13    16    1
    83    95    94    2
    84   104   102    1
    85    96    97    1
    86    96    93    1
    87     5     2    1
    88    12     3   am
    89    94    98   am
    90    94    93    1
    91     4     3    2
    92    97    84    1
    93    17    16    1
    94    17    18    1
    95     3     2    1
    96   102   103    1
    97    81    82    2
    98     2     1    1
    99    93    92    1
   100    18    20   ar
   101    18    19   ar
   102   103   105    1
   103    92    87   am
   104    87    88    2
   105    87    86    1
   106    86    85    1
   107    86    89    1
   108    91    89    1
   109    89    90    1
