@<TRIPOS>MOLECULE
tmp/5te5A00.pdb
 207 200 0 0 0
SMALL
GASTEIGER

@<TRIPOS>ATOM
      1  N        -10.2260   23.4020    8.0470 N.3   113  GLU113     -0.1231
      2  CA       -10.7970   24.7480    8.0230 C.3   113  GLU113      0.1699
      3  C         -9.7780   25.7810    7.5150 C.2   113  GLU113      0.2592
      4  O        -10.1260   26.6590    6.7360 O.2   113  GLU113     -0.2718
      5  CB       -11.3150   25.1330    9.4140 C.3   113  GLU113      0.0402
      6  CG       -11.7230   26.5900    9.5840 C.3   113  GLU113      0.1161
      7  CD       -13.0030   26.9580    8.8820 C.2   113  GLU113      0.3649
      8  OE1      -13.2080   26.5380    7.7250 O.co2 113  GLU113     -0.2457
      9  OE2      -13.8170   27.6670    9.4950 O.co2 113  GLU113     -0.2457
     10  N         -8.5340   25.6730    7.9710 N.am  114  GLY114     -0.1957
     11  CA        -7.4710   26.6180    7.6050 C.3   114  GLY114      0.1869
     12  C         -6.8030   26.3980    6.2580 C.2   114  GLY114      0.2309
     13  O         -6.1870   27.3160    5.7220 O.2   114  GLY114     -0.2863
     14  N         -9.7820   27.1460    3.2160 N.3   117  ALA117     -0.1231
     15  CA       -10.0790   28.5780    3.2770 C.3   117  ALA117      0.1694
     16  C         -8.9380   29.4240    2.7120 C.2   117  ALA117      0.2592
     17  O         -9.1720   30.3160    1.8920 O.2   117  ALA117     -0.2718
     18  CB       -10.3750   28.9980    4.7080 C.3   117  ALA117      0.0304
     19  N         -7.7160   29.1410    3.1630 N.am  118  THR118     -0.1953
     20  CA        -6.5230   29.8440    2.6790 C.3   118  THR118      0.1897
     21  C         -6.2350   29.5220    1.2050 C.2   118  THR118      0.2313
     22  O         -5.7380   30.3790    0.4630 O.2   118  THR118     -0.2863
     23  CB        -5.2860   29.5070    3.5370 C.3   118  THR118      0.1794
     24  OG1       -5.5720   29.7840    4.9180 O.3   118  THR118     -0.2208
     25  CG2       -4.0640   30.3190    3.0950 C.3   118  THR118      0.0378
     26  N         -9.3430   31.1130   -0.7320 N.3   121  GLY121     -0.1210
     27  CA        -9.2470   32.5610   -0.5530 C.3   121  GLY121      0.1956
     28  C         -8.2100   33.2160   -1.4540 C.2   121  GLY121      0.2611
     29  O         -8.3720   34.3730   -1.8480 O.2   121  GLY121     -0.2717
     30  N         -7.1390   32.4860   -1.7680 N.am  122  GLU122     -0.1979
     31  CA        -6.0800   32.9920   -2.6460 C.3   122  GLU122      0.1602
     32  C         -6.4060   32.8080   -4.1270 C.2   122  GLU122      0.2287
     33  O         -6.0150   33.6340   -4.9510 O.2   122  GLU122     -0.2864
     34  CB        -4.7340   32.3480   -2.3060 C.3   122  GLU122      0.0415
     35  CG        -4.0560   32.9220   -1.0750 C.3   122  GLU122      0.1163
     36  CD        -3.6430   34.3680   -1.2590 C.2   122  GLU122      0.3649
     37  OE1       -2.7080   34.6060   -2.0350 O.co2 122  GLU122     -0.2457
     38  OE2       -4.2590   35.2660   -0.6590 O.co2 122  GLU122     -0.2457
     39  N          0.8230   29.2800   -0.2470 N.3   167  CYS167     -0.1235
     40  CA         0.4030   29.9420    0.9890 C.3   167  CYS167      0.1677
     41  C         -0.1880   28.9520    2.0010 C.2   167  CYS167      0.2270
     42  O          0.1800   28.9730    3.1790 O.2   167  CYS167     -0.2867
     43  CB        -0.6320   31.0180    0.6680 C.3   167  CYS167      0.0956
     44  SG        -1.1680   31.9720    2.0970 S.3   167  CYS167     -0.0801
     45  N         -1.6960   26.5810   12.0280 N.3   178  TYR178     -0.1241
     46  CA        -3.0200   27.1800   12.1510 C.3   178  TYR178      0.1605
     47  C         -3.4840   27.0930   13.5940 C.2   178  TYR178      0.2264
     48  O         -3.3920   26.0250   14.2150 O.2   178  TYR178     -0.2867
     49  CB        -4.0210   26.4420   11.2660 C.3   178  TYR178      0.0534
     50  CG        -3.6830   26.4660    9.8040 C.ar  178  TYR178     -0.0201
     51  CD1       -4.0360   27.5490    8.9970 C.ar  178  TYR178     -0.0009
     52  CD2       -2.9830   25.4200    9.2220 C.ar  178  TYR178     -0.0009
     53  CE1       -3.7040   27.5680    7.6460 C.ar  178  TYR178      0.0417
     54  CE2       -2.6430   25.4290    7.8740 C.ar  178  TYR178      0.0417
     55  CZ        -3.0000   26.5010    7.0960 C.ar  178  TYR178      0.1957
     56  OH        -2.6700   26.4940    5.7750 O.3   178  TYR178     -0.2866
     57  N         -9.4300   30.6620   16.3020 N.3   181  GLU181     -0.1245
     58  CA        -9.6340   32.1010   16.3170 C.3   181  GLU181      0.1567
     59  C        -10.9330   32.4960   16.9740 C.2   181  GLU181      0.2260
     60  O        -11.9860   31.9540   16.6340 O.2   181  GLU181     -0.2867
     61  CB        -9.6540   32.6060   14.8760 C.3   181  GLU181      0.0388
     62  CG        -8.4930   32.0940   14.0370 C.3   181  GLU181      0.1160
     63  CD        -8.3790   32.7800   12.7110 C.2   181  GLU181      0.3649
     64  OE1       -7.2980   33.3220   12.4350 O.co2 181  GLU181     -0.2457
     65  OE2       -9.3590   32.7950   11.9450 O.co2 181  GLU181     -0.2457
     66  N        -13.4110   28.9480   13.6670 N.3   186  SER186     -0.1202
     67  CA       -12.5340   29.2530   12.5480 C.3   186  SER186      0.2020
     68  C        -11.0980   29.0740   12.9820 C.2   186  SER186      0.2619
     69  O        -10.7690   29.2950   14.1530 O.2   186  SER186     -0.2717
     70  CB       -12.7670   30.6790   12.0690 C.3   186  SER186      0.2103
     71  OG       -12.5980   31.6030   13.1140 O.3   186  SER186     -0.2182
     72  N        -10.2390   28.6820   12.0470 N.am  187  CYS187     -0.1955
     73  CA        -8.8590   28.3190   12.3760 C.3   187  CYS187      0.1843
     74  C         -7.8990   28.9000   11.3620 C.2   187  CYS187      0.2626
     75  O         -7.8680   28.4470   10.2320 O.2   187  CYS187     -0.2714
     76  CB        -8.7050   26.8000   12.4120 C.3   187  CYS187      0.0997
     77  SG        -7.9480   26.1820   13.9150 S.3   187  CYS187     -0.0797
     78  N         -7.0990   29.8790   11.7800 N.am  188  GLY188     -0.1940
     79  CA        -6.2120   30.6150   10.8860 C.3   188  GLY188      0.2014
     80  C         -4.8010   30.6870   11.3760 C.2   188  GLY188      0.2638
     81  O         -4.4950   30.2150   12.4580 O.2   188  GLY188     -0.2714
     82  N         -3.9280   31.2840   10.5720 N.am  189  ILE189     -0.1977
     83  CA        -2.4920   31.2660   10.8570 C.3   189  ILE189      0.1596
     84  C         -2.2250   31.9600   12.1730 C.2   189  ILE189      0.2287
     85  O         -2.8150   32.9800   12.4510 O.2   189  ILE189     -0.2864
     86  CB        -1.6740   31.9170    9.7130 C.3   189  ILE189      0.0276
     87  CG1       -1.8090   31.1180    8.4030 C.3   189  ILE189      0.0022
     88  CG2       -0.2020   32.0660   10.0730 C.3   189  ILE189      0.0022
     89  CD1       -1.1930   29.7350    8.3870 C.3   189  ILE189      0.0001
     90  N         -0.9270   34.3680   14.1560 N.3   191  TYR191     -0.1241
     91  CA        -0.3760   35.7080   14.2880 C.3   191  TYR191      0.1605
     92  C         -0.7170   36.2150   15.6790 C.2   191  TYR191      0.2264
     93  O         -0.6150   37.4000   15.9580 O.2   191  TYR191     -0.2867
     94  CB        -0.9320   36.6380   13.1930 C.3   191  TYR191      0.0534
     95  CG        -2.2710   36.2370   12.6110 C.ar  191  TYR191     -0.0201
     96  CD1       -3.4340   36.2360   13.3840 C.ar  191  TYR191     -0.0009
     97  CD2       -2.3820   35.8600   11.2730 C.ar  191  TYR191     -0.0009
     98  CE1       -4.6540   35.8550   12.8340 C.ar  191  TYR191      0.0417
     99  CE2       -3.6050   35.4840   10.7290 C.ar  191  TYR191      0.0417
    100  CZ        -4.7220   35.4760   11.5140 C.ar  191  TYR191      0.1957
    101  OH        -5.9120   35.1120   10.9590 O.3   191  TYR191     -0.2866
    102  N          3.0940   36.0200    4.1760 N.3   207  MET207     -0.1230
    103  CA         1.7720   35.9630    3.5160 C.3   207  MET207      0.1702
    104  C          1.1420   37.3430    3.2890 C.2   207  MET207      0.2592
    105  O          0.4770   37.5510    2.2700 O.2   207  MET207     -0.2718
    106  CB         0.8080   35.0370    4.2850 C.3   207  MET207      0.0401
    107  CG         0.2830   35.5770    5.6100 C.3   207  MET207      0.0596
    108  SD        -0.6750   34.3760    6.5360 S.3   207  MET207     -0.1393
    109  CE        -1.4360   35.4020    7.7930 C.3   207  MET207      0.0692
    110  N          1.3400   38.2640    4.2410 N.am  208  PHE208     -0.1976
    111  CA         0.7640   39.6170    4.1460 C.3   208  PHE208      0.1639
    112  C          1.4440   40.4980    3.0900 C.2   208  PHE208      0.2290
    113  O          0.8630   41.4910    2.6530 O.2   208  PHE208     -0.2864
    114  CB         0.7590   40.3240    5.5230 C.3   208  PHE208      0.0560
    115  CG        -0.6160   40.4290    6.1330 C.ar  208  PHE208     -0.0200
    116  CD1       -1.2310   39.2950    6.6520 C.ar  208  PHE208     -0.0042
    117  CD2       -1.3100   41.6550    6.1610 C.ar  208  PHE208     -0.0042
    118  CE1       -2.5080   39.3710    7.1840 C.ar  208  PHE208     -0.0003
    119  CE2       -2.5810   41.7370    6.6980 C.ar  208  PHE208     -0.0003
    120  CZ        -3.1750   40.5920    7.2090 C.ar  208  PHE208     -0.0000
    121  N          1.5260   37.2050   -0.5830 N.3   211  HIS211     -0.1226
    122  CA         0.2060   36.6560   -0.9170 C.3   211  HIS211      0.1752
    123  C         -0.9470   37.6040   -0.5760 C.2   211  HIS211      0.2596
    124  O         -2.0310   37.1450   -0.2160 O.2   211  HIS211     -0.2718
    125  CB         0.0080   35.3190   -0.1810 C.3   211  HIS211      0.0759
    126  CG         0.8340   34.2000   -0.7270 C.ar  211  HIS211      0.0818
    127  ND1        2.0130   33.7740   -0.1440 N.ar  211  HIS211     -0.2268
    128  CD2        0.6410   33.4130   -1.8040 C.ar  211  HIS211      0.1154
    129  CE1        2.5130   32.7750   -0.8470 C.ar  211  HIS211      0.1986
    130  NE2        1.6950   32.5360   -1.8560 N.ar  211  HIS211     -0.2212
    131  N         -0.7240   38.9140   -0.6910 N.am  212  PHE212     -0.1976
    132  CA        -1.7750   39.9010   -0.4310 C.3   212  PHE212      0.1639
    133  C         -1.5050   41.2890   -1.0070 C.2   212  PHE212      0.2290
    134  O         -2.1600   41.6940   -1.9650 O.2   212  PHE212     -0.2864
    135  CB        -2.0350   40.0240    1.0740 C.3   212  PHE212      0.0560
    136  CG        -3.0260   41.0930    1.4280 C.ar  212  PHE212     -0.0200
    137  CD1       -4.3340   40.9920    0.9840 C.ar  212  PHE212     -0.0042
    138  CD2       -2.6520   42.1950    2.1900 C.ar  212  PHE212     -0.0042
    139  CE1       -5.2640   41.9600    1.3030 C.ar  212  PHE212     -0.0003
    140  CE2       -3.5660   43.1680    2.5120 C.ar  212  PHE212     -0.0003
    141  CZ        -4.8780   43.0550    2.0600 C.ar  212  PHE212     -0.0000
    142  N        -14.2370   41.5820   -3.2720 N.3   261  PHE261     -0.1241
    143  CA       -13.1000   41.0100   -2.5600 C.3   261  PHE261      0.1605
    144  C        -12.7080   41.8960   -1.3790 C.2   261  PHE261      0.2264
    145  O        -12.5100   41.3960   -0.2650 O.2   261  PHE261     -0.2867
    146  CB       -11.9020   40.8330   -3.4980 C.3   261  PHE261      0.0534
    147  CG       -10.7860   40.0200   -2.9110 C.ar  261  PHE261     -0.0203
    148  CD1       -9.8200   40.6200   -2.1120 C.ar  261  PHE261     -0.0042
    149  CD2      -10.7010   38.6490   -3.1520 C.ar  261  PHE261     -0.0042
    150  CE1       -8.7930   39.8700   -1.5550 C.ar  261  PHE261     -0.0003
    151  CE2       -9.6720   37.8960   -2.6030 C.ar  261  PHE261     -0.0003
    152  CZ        -8.7160   38.5070   -1.8010 C.ar  261  PHE261     -0.0000
    153  N        -13.0130   40.6400    2.7830 N.3   265  TRP265     -0.1241
    154  CA       -11.6910   40.1950    3.2620 C.3   265  TRP265      0.1605
    155  C        -10.9630   41.1930    4.1570 C.2   265  TRP265      0.2264
    156  O        -10.4010   40.7800    5.1790 O.2   265  TRP265     -0.2867
    157  CB       -10.7890   39.7790    2.1060 C.3   265  TRP265      0.0550
    158  CG       -11.1950   38.5020    1.4060 C.ar  265  TRP265      0.0003
    159  CD1      -11.4840   38.3570    0.0860 C.ar  265  TRP265      0.0946
    160  CD2      -11.3520   37.2030    1.9870 C.ar  265  TRP265      0.0152
    161  NE1      -11.8040   37.0520   -0.2000 N.ar  265  TRP265     -0.2442
    162  CE2      -11.7340   36.3230    0.9570 C.ar  265  TRP265      0.0810
    163  CE3      -11.2170   36.6990    3.2740 C.ar  265  TRP265      0.0012
    164  CZ2      -11.9620   34.9610    1.1800 C.ar  265  TRP265      0.0191
    165  CZ3      -11.4560   35.3350    3.4910 C.ar  265  TRP265      0.0001
    166  CH2      -11.8230   34.4950    2.4560 C.ar  265  TRP265      0.0015
    167  N        -11.4790   40.7800    7.8050 N.3   268  TYR268     -0.1227
    168  CA       -10.6460   39.7320    8.4010 C.3   268  TYR268      0.1736
    169  C         -9.1810   40.1460    8.4510 C.2   268  TYR268      0.2595
    170  O         -8.5010   39.9280    9.4570 O.2   268  TYR268     -0.2718
    171  CB       -10.7740   38.4210    7.6350 C.3   268  TYR268      0.0548
    172  CG       -10.0170   37.2570    8.2670 C.ar  268  TYR268     -0.0200
    173  CD1      -10.6020   36.4780    9.2540 C.ar  268  TYR268     -0.0009
    174  CD2       -8.7170   36.9350    7.8570 C.ar  268  TYR268     -0.0009
    175  CE1       -9.9260   35.4190    9.8240 C.ar  268  TYR268      0.0417
    176  CE2       -8.0370   35.8700    8.4200 C.ar  268  TYR268      0.0417
    177  CZ        -8.6440   35.1250    9.3990 C.ar  268  TYR268      0.1957
    178  OH        -7.9810   34.0620    9.9640 O.3   268  TYR268     -0.2866
    179  N         -8.6990   40.7340    7.3600 N.am  269  ALA269     -0.1980
    180  CA        -7.3010   41.1320    7.2490 C.3   269  ALA269      0.1597
    181  C         -6.9260   42.2130    8.2590 C.2   269  ALA269      0.2287
    182  O         -5.7900   42.2290    8.7490 O.2   269  ALA269     -0.2864
    183  CB        -7.0000   41.6020    5.8320 C.3   269  ALA269      0.0319
    184  N         -7.0420   40.2880   11.7300 N.3   272  ALA272     -0.1245
    185  CA        -5.9150   39.3500   11.7560 C.3   272  ALA272      0.1562
    186  C         -4.5820   40.0740   11.9540 C.2   272  ALA272      0.2260
    187  O         -3.6900   39.5950   12.6410 O.2   272  ALA272     -0.2867
    188  CB        -5.8760   38.5480   10.4760 C.3   272  ALA272      0.0290
    189  N        -13.9400   36.1440   10.6470 N.3   292  ALA292     -0.1245
    190  CA       -13.6630   34.8870    9.9580 C.3   292  ALA292      0.1562
    191  C        -14.8870   34.3510    9.2080 C.2   292  ALA292      0.2260
    192  O        -14.8330   34.1240    7.9960 O.2   292  ALA292     -0.2867
    193  CB       -13.1430   33.8510   10.9440 C.3   292  ALA292      0.0290
    194  N        -16.1040   36.5640    6.5330 N.3   295  ALA295     -0.1231
    195  CA       -15.2620   36.3810    5.3560 C.3   295  ALA295      0.1694
    196  C        -15.5350   35.0780    4.6060 C.2   295  ALA295      0.2591
    197  O        -15.3090   35.0120    3.3850 O.2   295  ALA295     -0.2718
    198  CB       -13.8050   36.4650    5.7560 C.3   295  ALA295      0.0304
    199  N        -16.0640   34.0750    5.3210 N.am  296  LYS296     -0.1980
    200  CA       -16.4530   32.7990    4.7030 C.3   296  LYS296      0.1596
    201  C        -17.7830   32.8980    3.9420 C.2   296  LYS296      0.2287
    202  O        -18.6520   32.0420    4.0770 O.2   296  LYS296     -0.2864
    203  CB       -16.4930   31.6630    5.7490 C.3   296  LYS296      0.0298
    204  CG       -15.2350   30.8170    5.8060 C.3   296  LYS296      0.0038
    205  CD       -15.3170   29.7250    6.8690 C.3   296  LYS296      0.0206
    206  CE       -15.0360   30.2780    8.2420 C.3   296  LYS296      0.1093
    207  NZ       -13.6670   30.0320    8.6100 N.3   296  LYS296     -0.1314
@<TRIPOS>BOND
     1    33    32    2
     2    32    31    1
     3   146   147    1
     4   146   143    1
     5   142   143    1
     6   149   147   ar
     7   149   151   ar
     8   147   148   ar
     9    31    34    1
    10    31    30    1
    11   151   152   ar
    12   143   144    1
    13    34    35    1
    14   148   150   ar
    15    37    36   ar
    16   134   133    2
    17   130   128   ar
    18   130   129   ar
    19    29    28    2
    20   128   126   ar
    21   152   150   ar
    22    30    28   am
    23    28    27    1
    24   144   145    2
    25    36    35    1
    26    36    38   ar
    27   133   132    1
    28   122   121    1
    29   122   123    1
    30   122   125    1
    31   129   127   ar
    32    26    27    1
    33   126   125    1
    34   126   127   ar
    35   131   123   am
    36   131   132    1
    37   123   124    2
    38   132   135    1
    39    39    40    1
    40   161   159   ar
    41   161   162   ar
    42   159   158   ar
    43    22    21    2
    44    43    40    1
    45    43    44    1
    46   162   164   ar
    47   162   160   ar
    48   137   139   ar
    49   137   136   ar
    50    40    41    1
    51   135   136    1
    52   164   166   ar
    53    21    20    1
    54   139   141   ar
    55   158   160   ar
    56   158   157    1
    57   136   138   ar
    58    17    16    2
    59   160   163   ar
    60    41    42    2
    61   141   140   ar
    62   157   154    1
    63   138   140   ar
    64   105   104    2
    65   166   165   ar
    66   113   112    2
    67    20    19    1
    68    20    23    1
    69    16    19   am
    70    16    15    1
    71   153   154    1
    72   112   111    1
    73    25    23    1
    74    14    15    1
    75   154   155    1
    76   163   165   ar
    77    15    18    1
    78   104   103    1
    79   104   110   am
    80   197   196    2
    81   103   102    1
    82   103   106    1
    83    23    24    1
    84   201   202    2
    85   201   200    1
    86   111   110    1
    87   111   114    1
    88   155   156    2
    89   106   107    1
    90   196   199   am
    91   196   195    1
    92   200   199    1
    93   200   203    1
    94   195   198    1
    95   195   194    1
    96   114   115    1
    97   107   108    1
    98    13    12    2
    99   203   204    1
   100    56    55    1
   101   204   205    1
   102   183   180    1
   103   115   117   ar
   104   115   116   ar
   105   117   119   ar
   106    12    11    1
   107   108   109    1
   108   116   118   ar
   109   119   120   ar
   110     4     3    2
   111   205   206    1
   112    55    53   ar
   113    55    54   ar
   114   118   120   ar
   115   180   179    1
   116   180   181    1
   117   179   169   am
   118     3    10   am
   119     3     2    1
   120    11    10    1
   121   171   172    1
   122   171   168    1
   123    53    51   ar
   124     8     7   ar
   125   167   168    1
   126   174   172   ar
   127   174   176   ar
   128    54    52   ar
   129   192   191    2
   130     2     1    1
   131     2     5    1
   132   206   207    1
   133   181   182    2
   134   172   173   ar
   135    89    87    1
   136   168   169    1
   137    87    86    1
   138   176   177   ar
   139   169   170    2
   140     7     9   ar
   141     7     6    1
   142    51    50   ar
   143   191   190    1
   144    52    50   ar
   145   173   175   ar
   146   177   175   ar
   147   177   178    1
   148     5     6    1
   149    86    88    1
   150    86    83    1
   151    50    49    1
   152   190   189    1
   153   190   193    1
   154    75    74    2
   155   188   185    1
   156    82    83    1
   157    82    80   am
   158    99    97   ar
   159    99   100   ar
   160    83    84    1
   161    79    80    1
   162    79    78    1
   163   101   100    1
   164    49    46    1
   165    97    95   ar
   166    74    78   am
   167    74    73    1
   168    80    81    2
   169   100    98   ar
   170   184   185    1
   171   185   186    1
   172    65    63   ar
   173   186   187    2
   174    45    46    1
   175    72    73    1
   176    72    68   am
   177    70    67    1
   178    70    71    1
   179    46    47    1
   180    84    85    2
   181    73    76    1
   182    76    77    1
   183    64    63   ar
   184    67    68    1
   185    67    66    1
   186    95    94    1
   187    95    96   ar
   188    63    62    1
   189    98    96   ar
   190    68    69    2
   191    94    91    1
   192    47    48    2
   193    62    61    1
   194    90    91    1
   195    91    92    1
   196    61    58    1
   197    92    93    2
   198    57    58    1
   199    58    59    1
   200    60    59    2
