@<TRIPOS>MOLECULE
tmp/5te7C07.pdb
 104 100 0 0 0
SMALL
GASTEIGER

@<TRIPOS>ATOM
      1  N         24.0070   24.6780  -11.8820 N.3     7  THR7       -0.1203
      2  CA        23.3540   24.3280  -10.6270 C.3     7  THR7        0.1994
      3  C         23.2840   25.5610   -9.7340 C.2     7  THR7        0.2618
      4  O         24.3180   26.0890   -9.3120 O.2     7  THR7       -0.2717
      5  CB        24.1120   23.2010   -9.9280 C.3     7  THR7        0.1784
      6  OG1       24.2720   22.0980  -10.8280 O.3     7  THR7       -0.2211
      7  CG2       23.3590   22.7360   -8.6870 C.3     7  THR7        0.0376
      8  N         22.0700   26.0210   -9.4520 N.am    8  LEU8       -0.1965
      9  CA        21.8640   27.1610   -8.5750 C.3     8  LEU8        0.1728
     10  C         21.7210   26.6970   -7.1290 C.2     8  LEU8        0.2616
     11  O         21.3850   25.5440   -6.8500 O.2     8  LEU8       -0.2715
     12  CB        20.6220   27.9490   -8.9960 C.3     8  LEU8        0.0311
     13  CG        20.5920   28.4560  -10.4390 C.3     8  LEU8        0.0022
     14  CD1       19.2880   29.1870  -10.7150 C.3     8  LEU8        0.0001
     15  CD2       21.7810   29.3590  -10.7320 C.3     8  LEU8        0.0001
     16  N         21.9930   27.6160   -6.2040 N.am    9  PHE9       -0.1960
     17  CA        21.8060   27.3680   -4.7830 C.3     9  PHE9        0.1771
     18  C         20.9290   28.4630   -4.1960 C.2     9  PHE9        0.2619
     19  O         20.8940   29.5900   -4.6980 O.2     9  PHE9       -0.2715
     20  CB        23.1480   27.2920   -4.0280 C.3     9  PHE9        0.0574
     21  CG        23.9470   28.5660   -4.0580 C.ar    9  PHE9       -0.0200
     22  CD1       24.7600   28.8670   -5.1390 C.ar    9  PHE9       -0.0042
     23  CD2       23.9030   29.4540   -2.9940 C.ar    9  PHE9       -0.0042
     24  CE1       25.5010   30.0330   -5.1640 C.ar    9  PHE9       -0.0003
     25  CE2       24.6430   30.6220   -3.0140 C.ar    9  PHE9       -0.0003
     26  CZ        25.4420   30.9120   -4.0990 C.ar    9  PHE9       -0.0000
     27  N         20.2100   28.1150   -3.1340 N.am   10  CYS10      -0.1968
     28  CA        19.2550   29.0190   -2.5130 C.3    10  CYS10       0.1712
     29  C         19.8360   29.6390   -1.2480 C.2    10  CYS10       0.2296
     30  O         20.7410   29.0920   -0.6120 O.2    10  CYS10      -0.2864
     31  CB        17.9460   28.2900   -2.1870 C.3    10  CYS10       0.0983
     32  SG        18.0900   26.8620   -1.0660 S.3    10  CYS10      -0.0798
     33  N         13.1030   23.2700    6.0570 N.3    25  TRP25      -0.1241
     34  CA        13.6380   22.9160    4.7470 C.3    25  TRP25       0.1605
     35  C         14.8160   23.8100    4.3790 C.2    25  TRP25       0.2264
     36  O         15.8930   23.3210    4.0170 O.2    25  TRP25      -0.2867
     37  CB        12.5380   23.0140    3.6910 C.3    25  TRP25       0.0550
     38  CG        13.0010   22.6460    2.3170 C.ar   25  TRP25       0.0003
     39  CD1       12.9650   21.4090    1.7450 C.ar   25  TRP25       0.0946
     40  CD2       13.5710   23.5240    1.3390 C.ar   25  TRP25       0.0152
     41  NE1       13.4760   21.4600    0.4720 N.ar   25  TRP25      -0.2442
     42  CE2       13.8560   22.7480    0.1980 C.ar   25  TRP25       0.0810
     43  CE3       13.8680   24.8900    1.3170 C.ar   25  TRP25       0.0012
     44  CZ2       14.4220   23.2910   -0.9520 C.ar   25  TRP25       0.0191
     45  CZ3       14.4310   25.4290    0.1720 C.ar   25  TRP25       0.0001
     46  CH2       14.7030   24.6300   -0.9450 C.ar   25  TRP25       0.0015
     47  N         18.6190   23.2300    3.4860 N.3    29  ALA29      -0.1245
     48  CA        18.7330   23.3070    2.0350 C.3    29  ALA29       0.1562
     49  C         19.4520   24.5450    1.5220 C.2    29  ALA29       0.2260
     50  O         20.0740   24.4760    0.4610 O.2    29  ALA29      -0.2867
     51  CB        17.3410   23.2550    1.3940 C.3    29  ALA29       0.0290
     52  N         14.4300   24.8040  -11.7320 N.3    59  GLN59      -0.1245
     53  CA        15.1940   24.4900  -10.5290 C.3    59  GLN59       0.1566
     54  C         14.4090   24.8420   -9.2720 C.2    59  GLN59       0.2260
     55  O         14.4150   24.0800   -8.2980 O.2    59  GLN59      -0.2867
     56  CB        16.5380   25.2150  -10.5510 C.3    59  GLN59       0.0367
     57  CG        17.5100   24.6600  -11.5810 C.3    59  GLN59       0.0905
     58  CD        18.9410   25.0870  -11.3270 C.2    59  GLN59       0.2608
     59  OE1       19.4020   25.1100  -10.1850 O.2    59  GLN59      -0.2717
     60  NE2       19.6520   25.4320  -12.3940 N.am   59  GLN59      -0.0878
     61  N         11.5330   22.1620   -8.6670 N.3    62  GLU62      -0.1231
     62  CA        11.9470   20.9500   -7.9670 C.3    62  GLU62       0.1699
     63  C         12.2090   21.2120   -6.4890 C.2    62  GLU62       0.2592
     64  O         12.0290   20.3120   -5.6610 O.2    62  GLU62      -0.2718
     65  CB        13.1930   20.3590   -8.6270 C.3    62  GLU62       0.0402
     66  CG        12.9520   19.8080  -10.0220 C.3    62  GLU62       0.1161
     67  CD        14.1740   19.1150  -10.5910 C.2    62  GLU62       0.3649
     68  OE1       15.1510   18.9150   -9.8370 O.co2  62  GLU62      -0.2457
     69  OE2       14.1600   18.7690  -11.7920 O.co2  62  GLU62      -0.2457
     70  N         12.6360   22.4280   -6.1380 N.am   63  ASP63      -0.1974
     71  CA        12.8320   22.7670   -4.7320 C.3    63  ASP63       0.1709
     72  C         11.5130   22.7220   -3.9730 C.2    63  ASP63       0.2293
     73  O         11.4200   22.1100   -2.9030 O.2    63  ASP63      -0.2864
     74  CB        13.4710   24.1510   -4.6090 C.3    63  ASP63       0.1436
     75  CG        14.9790   24.1210   -4.7720 C.2    63  ASP63       0.3671
     76  OD1       15.5380   23.0350   -5.0320 O.co2  63  ASP63      -0.2456
     77  OD2       15.6060   25.1940   -4.6490 O.co2  63  ASP63      -0.2456
     78  N         10.2520   19.2250   -3.5810 N.3    66  SER66      -0.1217
     79  CA        10.9800   18.5840   -2.4930 C.3    66  SER66       0.1889
     80  C         10.4860   19.0750   -1.1380 C.2    66  SER66       0.2288
     81  O         10.3770   18.2930   -0.1870 O.2    66  SER66      -0.2866
     82  CB        12.4770   18.8450   -2.6440 C.3    66  SER66       0.2089
     83  OG        13.1960   18.3430   -1.5320 O.3    66  SER66      -0.2183
     84  N          8.3660   16.5560    1.6580 N.3    70  GLN70      -0.1245
     85  CA         8.9800   16.2810    2.9500 C.3    70  GLN70       0.1566
     86  C          8.1980   16.8770    4.1120 C.2    70  GLN70       0.2260
     87  O          8.2080   16.3100    5.2100 O.2    70  GLN70      -0.2867
     88  CB        10.4120   16.8220    2.9790 C.3    70  GLN70       0.0367
     89  CG        11.3300   16.1940    1.9480 C.3    70  GLN70       0.0905
     90  CD        12.6790   16.8770    1.8830 C.2    70  GLN70       0.2608
     91  OE1       13.0590   17.6150    2.7910 O.2    70  GLN70      -0.2717
     92  NE2       13.4100   16.6380    0.8020 N.am   70  GLN70      -0.0878
     93  N         17.4120   32.8100   -5.0420 N.3   100  TYR100     -0.1241
     94  CA        18.1340   31.8850   -5.9050 C.3   100  TYR100      0.1605
     95  C         19.3870   32.5720   -6.4230 C.2   100  TYR100      0.2264
     96  O         19.3300   33.7160   -6.8840 O.2   100  TYR100     -0.2867
     97  CB        17.2450   31.3940   -7.0490 C.3   100  TYR100      0.0534
     98  CG        16.3010   30.3240   -6.5670 C.ar  100  TYR100     -0.0201
     99  CD1       16.6580   28.9850   -6.6230 C.ar  100  TYR100     -0.0009
    100  CD2       15.0780   30.6560   -6.0000 C.ar  100  TYR100     -0.0009
    101  CE1       15.8080   28.0010   -6.1580 C.ar  100  TYR100      0.0417
    102  CE2       14.2220   29.6800   -5.5300 C.ar  100  TYR100      0.0417
    103  CZ        14.5940   28.3540   -5.6090 C.ar  100  TYR100      0.1957
    104  OH        13.7460   27.3770   -5.1410 O.3   100  TYR100     -0.2866
@<TRIPOS>BOND
     1    60    58   am
     2     1     2    1
     3    69    67   ar
     4    52    53    1
     5    57    58    1
     6    57    56    1
     7    58    59    2
     8     6     5    1
     9    15    13    1
    10    14    13    1
    11     2     5    1
    12     2     3    1
    13    67    66    1
    14    67    68   ar
    15    56    53    1
    16    53    54    1
    17    13    12    1
    18    66    65    1
    19     5     7    1
    20     3     8   am
    21     3     4    2
    22     8     9    1
    23    54    55    2
    24    12     9    1
    25    61    62    1
    26    65    62    1
    27     9    10    1
    28    62    63    1
    29    10    11    2
    30    10    16   am
    31    97    98    1
    32    97    94    1
    33    96    95    2
    34    99    98   ar
    35    99   101   ar
    36    98   100   ar
    37    63    70   am
    38    63    64    2
    39    95    94    1
    40    16    17    1
    41   101   103   ar
    42    70    71    1
    43   100   102   ar
    44    94    93    1
    45   103   102   ar
    46   103   104    1
    47    24    22   ar
    48    24    26   ar
    49    22    21   ar
    50    76    75   ar
    51    17    18    1
    52    17    20    1
    53    75    77   ar
    54    75    74    1
    55    71    74    1
    56    71    72    1
    57    19    18    2
    58    18    27   am
    59    26    25   ar
    60    21    20    1
    61    21    23   ar
    62    72    73    2
    63    78    79    1
    64    27    28    1
    65    25    23   ar
    66    82    79    1
    67    82    83    1
    68    28    31    1
    69    28    29    1
    70    79    80    1
    71    31    32    1
    72    29    30    2
    73    80    81    2
    74    44    46   ar
    75    44    42   ar
    76    46    45   ar
    77    45    43   ar
    78    42    41   ar
    79    42    40   ar
    80    50    49    2
    81    41    39   ar
    82    92    90   am
    83    43    40   ar
    84    40    38   ar
    85    51    48    1
    86    49    48    1
    87    84    85    1
    88    39    38   ar
    89    90    89    1
    90    90    91    2
    91    89    88    1
    92    48    47    1
    93    38    37    1
    94    85    88    1
    95    85    86    1
    96    37    34    1
    97    36    35    2
    98    86    87    2
    99    35    34    1
   100    34    33    1
