@<TRIPOS>MOLECULE
tmp/5te8B01.pdb
 143 135 0 0 0
SMALL
GASTEIGER

@<TRIPOS>ATOM
      1  N         -3.8480   37.8110  -21.0050 N.3    36  PHE36      -0.1241
      2  CA        -4.0930   36.8680  -22.0890 C.3    36  PHE36       0.1605
      3  C         -5.1600   35.8300  -21.7130 C.2    36  PHE36       0.2264
      4  O         -6.1330   35.6440  -22.4400 O.2    36  PHE36      -0.2867
      5  CB        -2.7930   36.1640  -22.4900 C.3    36  PHE36       0.0534
      6  CG        -1.8060   37.0340  -23.2430 C.ar   36  PHE36      -0.0203
      7  CD1       -1.5280   38.3420  -22.8410 C.ar   36  PHE36      -0.0042
      8  CD2       -1.1040   36.5130  -24.3280 C.ar   36  PHE36      -0.0042
      9  CE1       -0.6050   39.1200  -23.5300 C.ar   36  PHE36      -0.0003
     10  CE2       -0.1770   37.2850  -25.0130 C.ar   36  PHE36      -0.0003
     11  CZ         0.0720   38.5910  -24.6120 C.ar   36  PHE36      -0.0000
     12  N          5.8140   30.4120  -36.6900 N.3    84  ARG84      -0.1245
     13  CA         5.1420   31.1670  -35.6450 C.3    84  ARG84       0.1563
     14  C          5.2090   32.6180  -36.0750 C.2    84  ARG84       0.2260
     15  O          5.6370   32.8850  -37.1870 O.2    84  ARG84      -0.2867
     16  CB         5.8210   30.9370  -34.2880 C.3    84  ARG84       0.0307
     17  CG         5.8080   29.4830  -33.8410 C.3    84  ARG84       0.0489
     18  CD         5.9460   29.3230  -32.3340 C.3    84  ARG84       0.2205
     19  NE         5.6280   27.9670  -31.8700 N.pl3  84  ARG84      -0.0865
     20  CZ         6.4330   26.9060  -31.9980 C.cat  84  ARG84       0.5346
     21  NH1        7.6100   27.0180  -32.5950 N.pl3  84  ARG84       0.1354
     22  NH2        6.0590   25.7200  -31.5320 N.pl3  84  ARG84       0.1354
     23  N          9.9690   37.0910  -36.5680 N.3    87  PHE87      -0.1241
     24  CA        10.9180   37.6270  -35.6060 C.3    87  PHE87       0.1605
     25  C         11.8180   38.6680  -36.2270 C.2    87  PHE87       0.2264
     26  O         11.9920   38.7180  -37.4420 O.2    87  PHE87      -0.2867
     27  CB        11.7680   36.5140  -34.9680 C.3    87  PHE87       0.0534
     28  CG        10.9900   35.6070  -34.0630 C.ar   87  PHE87      -0.0203
     29  CD1       10.7930   35.9370  -32.7300 C.ar   87  PHE87      -0.0042
     30  CD2       10.4370   34.4160  -34.5530 C.ar   87  PHE87      -0.0042
     31  CE1       10.0570   35.1040  -31.8990 C.ar   87  PHE87      -0.0003
     32  CE2        9.7030   33.5780  -33.7240 C.ar   87  PHE87      -0.0003
     33  CZ         9.5090   33.9260  -32.3950 C.ar   87  PHE87      -0.0000
     34  N         13.5340   27.5790  -32.7660 N.3    98  SER98      -0.1217
     35  CA        12.2920   28.3120  -32.4750 C.3    98  SER98       0.1889
     36  C         12.0560   29.5530  -33.3390 C.2    98  SER98       0.2288
     37  O         10.9400   30.0760  -33.3650 O.2    98  SER98      -0.2866
     38  CB        12.2360   28.6860  -30.9980 C.3    98  SER98       0.2089
     39  OG        12.3060   27.5220  -30.2080 O.3    98  SER98      -0.2183
     40  N         10.7040   35.1410  -26.5870 N.3   195  LEU195     -0.1231
     41  CA         9.6740   34.4940  -27.3890 C.3   195  LEU195      0.1693
     42  C          8.2860   35.0890  -27.1900 C.2   195  LEU195      0.2592
     43  O          7.3290   34.6640  -27.8530 O.2   195  LEU195     -0.2718
     44  CB         9.6810   32.9730  -27.1750 C.3   195  LEU195      0.0284
     45  CG        10.9480   32.1880  -27.5670 C.3   195  LEU195      0.0019
     46  CD1       10.6860   30.6960  -27.4770 C.3   195  LEU195      0.0001
     47  CD2       11.4740   32.5310  -28.9500 C.3   195  LEU195      0.0001
     48  N          8.1840   36.0780  -26.2990 N.am  196  ASP196     -0.1960
     49  CA         6.9410   36.8350  -26.1140 C.3   196  ASP196      0.1825
     50  C          6.5170   37.5580  -27.4050 C.2   196  ASP196      0.2464
     51  O          7.3550   38.1230  -28.1110 O.2   196  ASP196     -0.2730
     52  CB         7.0870   37.8480  -24.9750 C.3   196  ASP196      0.1450
     53  CG         5.7450   38.3280  -24.4510 C.2   196  ASP196      0.3671
     54  OD1        5.0930   37.5990  -23.6690 O.co2 196  ASP196     -0.2456
     55  OD2        5.3300   39.4410  -24.8240 O.co2 196  ASP196     -0.2456
     56  N          5.2110   37.5470  -27.7180 N.am  197  PRO197     -0.2727
     57  CA         4.7320   38.2800  -28.8980 C.3   197  PRO197      0.1402
     58  C          4.8520   39.8070  -28.7650 C.2   197  PRO197      0.2269
     59  O          4.6300   40.5180  -29.7370 O.2   197  PRO197     -0.2865
     60  CB         3.2620   37.8590  -29.0050 C.3   197  PRO197      0.0296
     61  CG         2.8880   37.5000  -27.6100 C.3   197  PRO197      0.0237
     62  CD         4.1110   36.8730  -27.0120 C.3   197  PRO197      0.0939
     63  N         18.4740   28.5740  -26.7150 N.3   275  ILE275     -0.1245
     64  CA        17.0330   28.4320  -26.8300 C.3   275  ILE275      0.1561
     65  C         16.4900   27.4460  -25.7860 C.2   275  ILE275      0.2260
     66  O         15.3970   27.6430  -25.2510 O.2   275  ILE275     -0.2867
     67  CB        16.5950   28.1060  -28.2920 C.3   275  ILE275      0.0252
     68  CG1       15.2620   28.7860  -28.6300 C.3   275  ILE275      0.0019
     69  CG2       16.5030   26.6110  -28.5490 C.3   275  ILE275      0.0019
     70  CD1       15.2450   30.2790  -28.3810 C.3   275  ILE275      0.0001
     71  N         15.9240   29.3320  -22.5380 N.3   278  PHE278     -0.1227
     72  CA        14.6710   30.0910  -22.6050 C.3   278  PHE278      0.1736
     73  C         13.4580   29.1950  -22.4280 C.2   278  PHE278      0.2595
     74  O         12.5050   29.5500  -21.7370 O.2   278  PHE278     -0.2718
     75  CB        14.5370   30.8500  -23.9280 C.3   278  PHE278      0.0547
     76  CG        15.2860   32.1470  -23.9660 C.ar  278  PHE278     -0.0202
     77  CD1       15.0130   33.1520  -23.0460 C.ar  278  PHE278     -0.0042
     78  CD2       16.2530   32.3740  -24.9400 C.ar  278  PHE278     -0.0042
     79  CE1       15.7030   34.3580  -23.0830 C.ar  278  PHE278     -0.0003
     80  CE2       16.9490   33.5730  -24.9890 C.ar  278  PHE278     -0.0003
     81  CZ        16.6720   34.5690  -24.0600 C.ar  278  PHE278     -0.0000
     82  N         13.5060   28.0330  -23.0700 N.am  279  ALA279     -0.1980
     83  CA        12.3870   27.1260  -23.0760 C.3   279  ALA279      0.1597
     84  C         12.1770   26.5130  -21.6990 C.2   279  ALA279      0.2287
     85  O         11.0450   26.3570  -21.2650 O.2   279  ALA279     -0.2864
     86  CB        12.5970   26.0500  -24.1200 C.3   279  ALA279      0.0319
     87  N          9.7180   28.1940  -17.1890 N.3   283  THR283     -0.1218
     88  CA         8.6110   27.2770  -17.4320 C.3   283  THR283      0.1862
     89  C          8.6090   26.1250  -16.4270 C.2   283  THR283      0.2287
     90  O          7.5760   25.8180  -15.8240 O.2   283  THR283     -0.2866
     91  CB         8.6510   26.6960  -18.8620 C.3   283  THR283      0.1770
     92  OG1        9.9260   26.0890  -19.0920 O.3   283  THR283     -0.2211
     93  CG2        8.4000   27.7930  -19.9090 C.3   283  THR283      0.0375
     94  N          1.5190   26.7430  -19.3650 N.3   343  ILE343     -0.1231
     95  CA         2.4500   27.8750  -19.2740 C.3   343  ILE343      0.1692
     96  C          2.5370   28.7000  -20.5680 C.2   343  ILE343      0.2591
     97  O          2.6750   29.9260  -20.5180 O.2   343  ILE343     -0.2718
     98  CB         3.8500   27.4380  -18.7750 C.3   343  ILE343      0.0266
     99  CG1        3.7380   26.5780  -17.4980 C.3   343  ILE343      0.0019
    100  CG2        4.7690   28.6490  -18.5730 C.3   343  ILE343      0.0020
    101  CD1        3.3140   27.3170  -16.2410 C.3   343  ILE343      0.0001
    102  N          2.4470   28.0270  -21.7160 N.am  344  ALA344     -0.1980
    103  CA         2.3360   28.7200  -22.9960 C.3   344  ALA344      0.1597
    104  C          0.9720   29.3790  -23.0800 C.2   344  ALA344      0.2287
    105  O          0.8710   30.5370  -23.4730 O.2   344  ALA344     -0.2864
    106  CB         2.5570   27.7730  -24.1700 C.3   344  ALA344      0.0319
    107  N         -1.2620   29.5070  -25.0090 N.3   346  ARG346     -0.1231
    108  CA        -1.6520   29.8560  -26.3600 C.3   346  ARG346      0.1694
    109  C         -0.6620   29.2290  -27.3250 C.2   346  ARG346      0.2591
    110  O          0.5460   29.2990  -27.1080 O.2   346  ARG346     -0.2718
    111  CB        -1.6290   31.3580  -26.5920 C.3   346  ARG346      0.0321
    112  CG        -2.9690   32.0350  -26.6100 C.3   346  ARG346      0.0489
    113  CD        -2.7290   33.4750  -26.9820 C.3   346  ARG346      0.2205
    114  NE        -3.8400   34.3300  -26.5860 N.pl3 346  ARG346     -0.0865
    115  CZ        -3.9190   35.6190  -26.8790 C.cat 346  ARG346      0.5346
    116  NH1       -2.9490   36.2050  -27.5790 N.pl3 346  ARG346      0.1354
    117  NH2       -4.9670   36.3160  -26.4650 N.pl3 346  ARG346      0.1354
    118  N         -1.1770   28.6310  -28.3910 N.am  347  LEU347     -0.1980
    119  CA        -0.3320   28.0940  -29.4420 C.3   347  LEU347      0.1596
    120  C         -0.6060   28.8800  -30.7240 C.2   347  LEU347      0.2287
    121  O         -1.7570   29.2250  -31.0200 O.2   347  LEU347     -0.2864
    122  CB        -0.5840   26.5820  -29.6240 C.3   347  LEU347      0.0297
    123  CG        -0.4030   25.7140  -28.3610 C.3   347  LEU347      0.0022
    124  CD1       -1.1490   24.4030  -28.4580 C.3   347  LEU347      0.0001
    125  CD2        1.0520   25.4510  -28.0360 C.3   347  LEU347      0.0001
    126  N          6.2830   20.7720  -28.7250 N.3   416  CYS416     -0.1235
    127  CA         7.4430   20.8820  -27.8290 C.3   416  CYS416      0.1677
    128  C          8.3960   19.7230  -28.0200 C.2   416  CYS416      0.2270
    129  O          7.9930   18.5580  -27.9370 O.2   416  CYS416     -0.2867
    130  CB         7.0000   20.9260  -26.3690 C.3   416  CYS416      0.0956
    131  SG         8.3490   21.2450  -25.2160 S.3   416  CYS416     -0.0801
    132  N          2.1100   36.8300  -21.5230 N.3   455  GLY455     -0.1210
    133  CA         1.9930   35.6810  -22.4230 C.3   455  GLY455      0.1956
    134  C          2.4090   34.3450  -21.8290 C.2   455  GLY455      0.2611
    135  O          1.8990   33.2910  -22.2310 O.2   455  GLY455     -0.2717
    136  N          3.3310   34.3890  -20.8710 N.am  456  LEU456     -0.1979
    137  CA         3.8860   33.1740  -20.2970 C.3   456  LEU456      0.1596
    138  C          3.4380   33.0360  -18.8550 C.2   456  LEU456      0.2287
    139  O          3.9010   33.7810  -17.9900 O.2   456  LEU456     -0.2864
    140  CB         5.4120   33.2020  -20.3950 C.3   456  LEU456      0.0297
    141  CG         6.1730   31.8770  -20.5130 C.3   456  LEU456      0.0022
    142  CD1        5.7750   31.0700  -21.7450 C.3   456  LEU456      0.0001
    143  CD2        7.6710   32.1520  -20.5160 C.3   456  LEU456      0.0001
@<TRIPOS>BOND
     1    26    25    2
     2    15    14    2
     3    12    13    1
     4    23    24    1
     5    25    24    1
     6    14    13    1
     7    13    16    1
     8    24    27    1
     9    27    28    1
    10    30    28   ar
    11    30    32   ar
    12    16    17    1
    13    28    29   ar
    14    17    18    1
    15    32    33   ar
    16    37    36    2
    17    36    35    1
    18    34    35    1
    19    29    31   ar
    20    21    20    1
    21    35    38    1
    22    33    31   ar
    23    18    19    1
    24    20    19    2
    25    20    22    1
    26   121   120    2
    27    38    39    1
    28   120   119    1
    29    59    58    2
    30   122   119    1
    31   122   123    1
    32   119   118    1
    33    60    57    1
    34    60    61    1
    35    47    45    1
    36    57    58    1
    37    57    56    1
    38   126   127    1
    39    68    70    1
    40    68    67    1
    41    69    67    1
    42   124   123    1
    43   118   109   am
    44   123   125    1
    45    67    64    1
    46    51    50    2
    47   128   129    2
    48   128   127    1
    49    43    42    2
    50   127   130    1
    51    56    50   am
    52    56    62    1
    53    61    62    1
    54   116   115    1
    55    45    46    1
    56    45    44    1
    57    50    49    1
    58    41    42    1
    59    41    44    1
    60    41    40    1
    61   109   110    2
    62   109   108    1
    63    42    48   am
    64   113   112    1
    65   113   114    1
    66   115   114    2
    67   115   117    1
    68    64    63    1
    69    64    65    1
    70   112   111    1
    71   111   108    1
    72   130   131    1
    73   108   107    1
    74    48    49    1
    75    49    52    1
    76    65    66    2
    77    10    11   ar
    78    10     8   ar
    79    80    78   ar
    80    80    81   ar
    81    52    53    1
    82    78    76   ar
    83    55    53   ar
    84    11     9   ar
    85    53    54   ar
    86     8     6   ar
    87   106   103    1
    88    86    83    1
    89    81    79   ar
    90    76    75    1
    91    76    77   ar
    92    75    72    1
    93     9     7   ar
    94   105   104    2
    95     6     7   ar
    96     6     5    1
    97    79    77   ar
    98   104   103    1
    99    83    82    1
   100    83    84    1
   101    82    73   am
   102   103   102    1
   103    72    71    1
   104    72    73    1
   105     5     2    1
   106     4     3    2
   107    73    74    2
   108   133   134    1
   109   133   132    1
   110   135   134    2
   111     2     3    1
   112     2     1    1
   113   134   136   am
   114   142   141    1
   115   102    96   am
   116    84    85    2
   117   136   137    1
   118    96    97    2
   119    96    95    1
   120   143   141    1
   121   141   140    1
   122   140   137    1
   123   137   138    1
   124    93    91    1
   125    94    95    1
   126    95    98    1
   127    92    91    1
   128    91    88    1
   129   138   139    2
   130    98   100    1
   131    98    99    1
   132    99   101    1
   133    88    87    1
   134    88    89    1
   135    89    90    2
