@<TRIPOS>MOLECULE
tmp/5tedA00.pdb
 109 103 0 0 0
SMALL
GASTEIGER

@<TRIPOS>ATOM
      1  N        -23.7800    6.9180   -1.2670 N.3    10  ILE10      -0.1231
      2  CA       -23.3430    5.5680   -0.9370 C.3    10  ILE10       0.1692
      3  C        -22.3700    5.6350    0.2320 C.2    10  ILE10       0.2592
      4  O        -21.6250    6.6110    0.3990 O.2    10  ILE10      -0.2718
      5  CB       -22.7090    4.8810   -2.1590 C.3    10  ILE10       0.0266
      6  CG1      -21.5380    5.7130   -2.6890 C.3    10  ILE10       0.0019
      7  CG2      -23.7250    4.6850   -3.2650 C.3    10  ILE10       0.0020
      8  CD1      -20.8380    5.0800   -3.9280 C.3    10  ILE10       0.0001
      9  N        -22.3840    4.5750    1.0470 N.am   11  TYR11      -0.1962
     10  CA       -21.7570    4.5910    2.3630 C.3    11  TYR11       0.1771
     11  C        -20.3220    5.1010    2.3370 C.2    11  TYR11       0.2620
     12  O        -19.8910    5.8240    3.2490 O.2    11  TYR11      -0.2715
     13  CB       -21.7770    3.1910    2.9420 C.3    11  TYR11       0.0574
     14  CG       -23.1480    2.6290    3.1800 C.ar   11  TYR11      -0.0198
     15  CD1      -23.9310    3.0800    4.2320 C.ar   11  TYR11      -0.0009
     16  CD2      -23.6520    1.6230    2.3610 C.ar   11  TYR11      -0.0009
     17  CE1      -25.1930    2.5400    4.4730 C.ar   11  TYR11       0.0417
     18  CE2      -24.9160    1.0730    2.5910 C.ar   11  TYR11       0.0417
     19  CZ       -25.6750    1.5450    3.6510 C.ar   11  TYR11       0.1957
     20  OH       -26.9150    1.0110    3.9110 O.3    11  TYR11      -0.2866
     21  N        -19.5200    4.6400    1.3760 N.am   12  THR12      -0.1951
     22  CA       -18.1080    4.9870    1.5120 C.3    12  THR12       0.1897
     23  C        -17.8760    6.4880    1.3870 C.2    12  THR12       0.2313
     24  O        -16.7830    6.9520    1.7110 O.2    12  THR12      -0.2863
     25  CB       -17.2130    4.2420    0.5100 C.3    12  THR12       0.1794
     26  OG1      -17.5940    4.5610   -0.8310 O.3    12  THR12      -0.2208
     27  CG2      -17.2650    2.7140    0.7410 C.3    12  THR12       0.0378
     28  N        -27.3000    2.1290   -0.3090 N.3    42  ALA42      -0.1231
     29  CA       -26.7910    1.5080   -1.5310 C.3    42  ALA42       0.1694
     30  C        -27.4570    2.1350   -2.7630 C.2    42  ALA42       0.2592
     31  O        -28.5570    2.6920   -2.6880 O.2    42  ALA42      -0.2718
     32  CB       -27.0150   -0.0140   -1.5180 C.3    42  ALA42       0.0304
     33  N        -26.7660    2.0310   -3.9070 N.am   43  THR43      -0.1953
     34  CA       -27.2060    2.6900   -5.1370 C.3    43  THR43       0.1897
     35  C        -28.6360    2.3160   -5.5160 C.2    43  THR43       0.2313
     36  O        -29.4150    3.1660   -5.9690 O.2    43  THR43      -0.2863
     37  CB       -26.2570    2.3520   -6.2920 C.3    43  THR43       0.1794
     38  OG1      -24.9750    2.9430   -6.0730 O.3    43  THR43      -0.2208
     39  CG2      -26.8010    2.8790   -7.6240 C.3    43  THR43       0.0378
     40  N        -23.3010    5.0180   -7.7220 N.3    61  SER61      -0.1217
     41  CA       -22.8030    4.3230   -8.9020 C.3    61  SER61       0.1889
     42  C        -23.6790    4.6350  -10.1080 C.2    61  SER61       0.2288
     43  O        -24.8740    4.9290   -9.9830 O.2    61  SER61      -0.2866
     44  CB       -22.7860    2.8020   -8.6880 C.3    61  SER61       0.2089
     45  OG       -21.9000    2.4320   -7.6330 O.3    61  SER61      -0.2183
     46  N        -20.6760   -8.5000   -2.1820 N.3   108  PHE108     -0.1241
     47  CA       -21.6870   -7.4520   -2.0870 C.3   108  PHE108      0.1605
     48  C        -23.0440   -7.9720   -2.5380 C.2   108  PHE108      0.2264
     49  O        -23.1440   -8.7100   -3.5220 O.2   108  PHE108     -0.2867
     50  CB       -21.2990   -6.2450   -2.9410 C.3   108  PHE108      0.0534
     51  CG       -20.2740   -5.3510   -2.2920 C.ar  108  PHE108     -0.0203
     52  CD1      -20.5970   -4.5900   -1.1840 C.ar  108  PHE108     -0.0042
     53  CD2      -18.9690   -5.3080   -2.7740 C.ar  108  PHE108     -0.0042
     54  CE1      -19.6430   -3.7800   -0.5710 C.ar  108  PHE108     -0.0003
     55  CE2      -18.0200   -4.5090   -2.1650 C.ar  108  PHE108     -0.0003
     56  CZ       -18.3560   -3.7430   -1.0700 C.ar  108  PHE108     -0.0000
     57  N        -26.0330   -3.4390   -4.2470 N.3   112  SER112     -0.1202
     58  CA       -24.8190   -2.6390   -4.3850 C.3   112  SER112      0.2020
     59  C        -24.6360   -2.1800   -5.8260 C.2   112  SER112      0.2619
     60  O        -24.5690   -3.0060   -6.7440 O.2   112  SER112     -0.2717
     61  CB       -23.5960   -3.4410   -3.9460 C.3   112  SER112      0.2103
     62  OG       -22.4300   -2.6610   -4.1100 O.3   112  SER112     -0.2182
     63  N        -24.5120   -0.8650   -6.0200 N.am  113  GLY113     -0.1942
     64  CA       -24.1650   -0.3330   -7.3220 C.3   113  GLY113      0.2014
     65  C        -22.7810   -0.7250   -7.8040 C.2   113  GLY113      0.2638
     66  O        -22.4680   -0.4930   -8.9770 O.2   113  GLY113     -0.2714
     67  N        -21.9580   -1.3380   -6.9450 N.am  114  LEU114     -0.1977
     68  CA       -20.6670   -1.8670   -7.3750 C.3   114  LEU114      0.1596
     69  C        -20.7880   -3.2030   -8.1020 C.2   114  LEU114      0.2287
     70  O        -19.8410   -3.6130   -8.7810 O.2   114  LEU114     -0.2864
     71  CB       -19.7510   -2.0570   -6.1690 C.3   114  LEU114      0.0297
     72  CG       -18.5350   -1.1610   -6.0130 C.3   114  LEU114      0.0022
     73  CD1      -17.6890   -1.6990   -4.8710 C.3   114  LEU114      0.0001
     74  CD2      -17.7390   -1.0870   -7.3050 C.3   114  LEU114      0.0001
     75  N        -24.0540   -5.7790    2.5650 N.3   136  GLU136     -0.1245
     76  CA       -24.2760   -4.5450    1.8230 C.3   136  GLU136      0.1567
     77  C        -23.2380   -3.4740    2.1310 C.2   136  GLU136      0.2260
     78  O        -22.6770   -2.8740    1.2120 O.2   136  GLU136     -0.2867
     79  CB       -25.6780   -3.9930    2.0960 C.3   136  GLU136      0.0388
     80  CG       -25.9130   -2.6730    1.3680 C.3   136  GLU136      0.1160
     81  CD       -27.3460   -2.1830    1.4700 C.2   136  GLU136      0.3649
     82  OE1      -27.5960   -1.2460    2.2620 O.co2 136  GLU136     -0.2457
     83  OE2      -28.2220   -2.7650    0.7690 O.co2 136  GLU136     -0.2457
     84  N        -19.7570   -1.5810    3.8830 N.3   138  ASP138     -0.1239
     85  CA       -18.3430   -1.9370    3.7570 C.3   138  ASP138      0.1674
     86  C        -17.7250   -2.3170    5.0880 C.2   138  ASP138      0.2266
     87  O        -16.8810   -3.2150    5.1360 O.2   138  ASP138     -0.2867
     88  CB       -17.5680   -0.7900    3.1170 C.3   138  ASP138      0.1410
     89  CG       -18.2490   -0.2830    1.8690 C.2   138  ASP138      0.3668
     90  OD1      -19.2350    0.4630    2.0160 O.co2 138  ASP138     -0.2456
     91  OD2      -17.8240   -0.6680    0.7620 O.co2 138  ASP138     -0.2456
     92  N        -13.8050   -1.5170   -2.3890 N.3   155  PRO155     -0.2116
     93  CA       -13.0240   -0.2900   -2.5930 C.3   155  PRO155      0.1372
     94  C        -11.9320   -0.1620   -1.5470 C.2   155  PRO155      0.2244
     95  O        -12.1280   -0.4880   -0.3750 O.2   155  PRO155     -0.2868
     96  CB       -14.0590    0.8390   -2.4370 C.3   155  PRO155      0.0268
     97  CG       -15.3800    0.2050   -2.3760 C.3   155  PRO155      0.0207
     98  CD       -15.1800   -1.2350   -1.9500 C.3   155  PRO155      0.0892
     99  N        -13.3670    2.2710  -11.3330 N.3   177  ARG177     -0.1245
    100  CA       -14.5870    2.3720  -10.5340 C.3   177  ARG177      0.1563
    101  C        -14.8640    3.8650  -10.3950 C.2   177  ARG177      0.2260
    102  O        -14.1780    4.5540   -9.6470 O.2   177  ARG177     -0.2867
    103  CB       -14.4070    1.7090   -9.1620 C.3   177  ARG177      0.0307
    104  CG       -15.6820    1.5460   -8.3140 C.3   177  ARG177      0.0489
    105  CD       -16.2910    2.9070   -7.8890 C.3   177  ARG177      0.2205
    106  NE       -17.1570    2.7960   -6.7100 N.pl3 177  ARG177     -0.0865
    107  CZ       -18.4690    2.5580   -6.7410 C.cat 177  ARG177      0.5346
    108  NH1      -19.0980    2.4080   -7.9020 N.pl3 177  ARG177      0.1354
    109  NH2      -19.1590    2.4920   -5.6040 N.pl3 177  ARG177      0.1354
@<TRIPOS>BOND
     1    99   100    1
     2   100   101    1
     3   100   103    1
     4   101   102    2
     5    42    43    2
     6    42    41    1
     7   103   104    1
     8    66    65    2
     9    41    44    1
    10    41    40    1
    11    70    69    2
    12    44    45    1
    13   104   105    1
    14    69    68    1
    15   108   107    1
    16   105   106    1
    17    65    64    1
    18    65    67   am
    19    39    37    1
    20    68    67    1
    21    68    71    1
    22    64    63    1
    23    74    72    1
    24    60    59    2
    25   107   106    2
    26   107   109    1
    27    37    38    1
    28    37    34    1
    29    71    72    1
    30    63    59   am
    31    72    73    1
    32    36    35    2
    33    59    58    1
    34    35    34    1
    35    34    33    1
    36    58    57    1
    37    58    61    1
    38    62    61    1
    39     8     6    1
    40    33    30   am
    41    49    48    2
    42     7     5    1
    43    50    51    1
    44    50    47    1
    45    53    51   ar
    46    53    55   ar
    47    30    31    2
    48    30    29    1
    49     6     5    1
    50    93    96    1
    51    93    92    1
    52    93    94    1
    53    48    47    1
    54    96    97    1
    55    92    98    1
    56    97    98    1
    57    51    52   ar
    58    46    47    1
    59    55    56   ar
    60     5     2    1
    61    94    95    2
    62    29    32    1
    63    29    28    1
    64     1     2    1
    65    52    54   ar
    66    56    54   ar
    67     2     3    1
    68    26    25    1
    69     3     4    2
    70     3     9   am
    71    25    27    1
    72    25    22    1
    73    91    89   ar
    74    83    81   ar
    75     9    10    1
    76    78    77    2
    77    80    81    1
    78    80    79    1
    79    21    22    1
    80    21    11   am
    81    23    22    1
    82    23    24    2
    83    81    82   ar
    84    76    79    1
    85    76    77    1
    86    76    75    1
    87    89    90   ar
    88    89    88    1
    89    11    10    1
    90    11    12    2
    91    16    18   ar
    92    16    14   ar
    93    10    13    1
    94    18    19   ar
    95    13    14    1
    96    88    85    1
    97    14    15   ar
    98    19    20    1
    99    19    17   ar
   100    85    84    1
   101    85    86    1
   102    15    17   ar
   103    86    87    2
