@<TRIPOS>MOLECULE
tmp/5tefA00.pdb
 139 129 0 0 0
SMALL
GASTEIGER

@<TRIPOS>ATOM
      1  N         31.8980   57.1060   23.1290 N.3   347  PHE347     -0.1241
      2  CA        32.4990   57.0640   24.4690 C.3   347  PHE347      0.1605
      3  C         31.4110   56.8440   25.5140 C.2   347  PHE347      0.2264
      4  O         30.3130   57.3660   25.3840 O.2   347  PHE347     -0.2867
      5  CB        33.2130   58.3600   24.8690 C.3   347  PHE347      0.0534
      6  CG        34.3040   58.8070   23.9490 C.ar  347  PHE347     -0.0203
      7  CD1       34.7500   58.0450   22.8650 C.ar  347  PHE347     -0.0042
      8  CD2       34.9380   60.0080   24.2270 C.ar  347  PHE347     -0.0042
      9  CE1       35.7780   58.5280   22.0540 C.ar  347  PHE347     -0.0003
     10  CE2       35.9790   60.4710   23.4470 C.ar  347  PHE347     -0.0003
     11  CZ        36.3850   59.7430   22.3510 C.ar  347  PHE347     -0.0000
     12  N         30.4790   58.2510   28.6270 N.3   349  TYR349     -0.1241
     13  CA        30.8420   59.5050   29.2930 C.3   349  TYR349      0.1605
     14  C         30.3930   59.5410   30.7320 C.2   349  TYR349      0.2264
     15  O         31.0570   60.1540   31.5920 O.2   349  TYR349     -0.2867
     16  CB        30.2160   60.7260   28.6030 C.3   349  TYR349      0.0534
     17  CG        30.8810   61.1700   27.3310 C.ar  349  TYR349     -0.0201
     18  CD1       32.0470   61.9670   27.3650 C.ar  349  TYR349     -0.0009
     19  CD2       30.3170   60.8600   26.0760 C.ar  349  TYR349     -0.0009
     20  CE1       32.6660   62.3840   26.1930 C.ar  349  TYR349      0.0417
     21  CE2       30.9170   61.2770   24.9100 C.ar  349  TYR349      0.0417
     22  CZ        32.0850   62.0430   24.9630 C.ar  349  TYR349      0.1957
     23  OH        32.6820   62.4350   23.7970 O.3   349  TYR349     -0.2866
     24  N         26.7840   63.6440   27.6600 N.3   396  THR396     -0.1218
     25  CA        27.9540   63.8470   28.4970 C.3   396  THR396      0.1862
     26  C         27.6520   63.9140   30.0270 C.2   396  THR396      0.2287
     27  O         28.5780   63.9990   30.8390 O.2   396  THR396     -0.2866
     28  CB        28.6300   65.1610   28.0550 C.3   396  THR396      0.1770
     29  OG1       27.6240   66.1780   27.8710 O.3   396  THR396     -0.2211
     30  CG2       29.3510   64.9490   26.7270 C.3   396  THR396      0.0375
     31  N         29.5880   72.1250   26.3840 N.3   438  THR438     -0.1218
     32  CA        29.1480   70.8260   26.9290 C.3   438  THR438      0.1862
     33  C         28.6290   70.8780   28.3730 C.2   438  THR438      0.2287
     34  O         29.2020   71.5630   29.2360 O.2   438  THR438     -0.2866
     35  CB        30.3250   69.8810   26.8830 C.3   438  THR438      0.1770
     36  OG1       30.7250   69.7690   25.5270 O.3   438  THR438     -0.2211
     37  CG2       29.9710   68.4850   27.4780 C.3   438  THR438      0.0375
     38  N         28.6690   69.1940   31.6100 N.3   440  TYR440     -0.1227
     39  CA        29.5240   68.2070   32.2780 C.3   440  TYR440      0.1736
     40  C         28.9340   67.6650   33.5510 C.2   440  TYR440      0.2596
     41  O         29.3570   66.6450   33.9830 O.2   440  TYR440     -0.2718
     42  CB        30.9000   68.7790   32.5740 C.3   440  TYR440      0.0548
     43  CG        31.7180   68.9610   31.3430 C.ar  440  TYR440     -0.0200
     44  CD1       32.2920   67.8740   30.6990 C.ar  440  TYR440     -0.0009
     45  CD2       31.9320   70.2440   30.8000 C.ar  440  TYR440     -0.0009
     46  CE1       33.0680   68.0600   29.5650 C.ar  440  TYR440      0.0417
     47  CE2       32.6910   70.4250   29.6690 C.ar  440  TYR440      0.0417
     48  CZ        33.2370   69.3510   29.0560 C.ar  440  TYR440      0.1957
     49  OH        33.9780   69.5520   27.9390 O.3   440  TYR440     -0.2866
     50  N         27.9960   68.3590   34.1710 N.am  441  THR441     -0.1953
     51  CA        27.4360   67.9200   35.4320 C.3   441  THR441      0.1897
     52  C         26.0000   68.2750   35.5290 C.2   441  THR441      0.2313
     53  O         25.5570   69.3440   35.0620 O.2   441  THR441     -0.2863
     54  CB        28.1360   68.5790   36.6540 C.3   441  THR441      0.1794
     55  OG1       29.4810   68.9040   36.3120 O.3   441  THR441     -0.2208
     56  CG2       28.1080   67.6450   37.8450 C.3   441  THR441      0.0378
     57  N         30.6390   73.7350   30.2530 N.3   461  GLY461     -0.1225
     58  CA        32.0600   73.9720   30.1440 C.3   461  GLY461      0.1811
     59  C         32.4700   75.4260   30.0630 C.2   461  GLY461      0.2280
     60  O         33.5740   75.7820   30.4430 O.2   461  GLY461     -0.2866
     61  N         33.2790   74.6190   36.8200 N.3   498  THR498     -0.1203
     62  CA        33.4680   73.4560   36.0110 C.3   498  THR498      0.1994
     63  C         32.8510   72.1950   36.6260 C.2   498  THR498      0.2617
     64  O         32.8450   71.1550   35.9710 O.2   498  THR498     -0.2717
     65  CB        34.9580   73.2470   35.6850 C.3   498  THR498      0.1784
     66  OG1       35.7260   73.0920   36.8920 O.3   498  THR498     -0.2211
     67  CG2       35.5050   74.4220   34.8160 C.3   498  THR498      0.0376
     68  N         32.3600   72.2760   37.8550 N.am  499  GLU499     -0.1979
     69  CA        31.7920   71.1080   38.5460 C.3   499  GLU499      0.1602
     70  C         30.8850   71.5760   39.6470 C.2   499  GLU499      0.2287
     71  O         31.2040   72.5610   40.3340 O.2   499  GLU499     -0.2864
     72  CB        32.9120   70.2010   39.1260 C.3   499  GLU499      0.0415
     73  CG        32.4520   69.0430   40.0420 C.3   499  GLU499      0.1163
     74  CD        31.7670   67.8910   39.3040 C.2   499  GLU499      0.3649
     75  OE1       31.3890   68.0840   38.1610 O.co2 499  GLU499     -0.2457
     76  OE2       31.6060   66.7750   39.8720 O.co2 499  GLU499     -0.2457
     77  N         41.8530   72.7230   36.4580 N.3   538  LEU538     -0.1245
     78  CA        40.3850   72.5850   36.3690 C.3   538  LEU538      0.1561
     79  C         39.8360   71.4020   37.1410 C.2   538  LEU538      0.2260
     80  O         40.3740   70.3160   37.0650 O.2   538  LEU538     -0.2867
     81  CB        39.9890   72.4900   34.8910 C.3   538  LEU538      0.0270
     82  CG        38.5220   72.3360   34.4740 C.3   538  LEU538      0.0019
     83  CD1       38.3160   72.9960   33.1160 C.3   538  LEU538      0.0001
     84  CD2       38.0650   70.9010   34.4250 C.3   538  LEU538      0.0001
     85  N         37.4560   68.5080   37.7290 N.3   540  ASN540     -0.1240
     86  CA        36.6010   67.6030   36.9300 C.3   540  ASN540      0.1653
     87  C         35.5260   66.8730   37.7400 C.2   540  ASN540      0.2266
     88  O         34.4910   66.4730   37.1890 O.2   540  ASN540     -0.2867
     89  CB        37.4710   66.5370   36.2810 C.3   540  ASN540      0.1155
     90  CG        38.3630   67.0930   35.2100 C.2   540  ASN540      0.2627
     91  OD1       37.9060   67.7910   34.3220 O.2   540  ASN540     -0.2716
     92  ND2       39.6590   66.7950   35.2970 N.am  540  ASN540     -0.0877
     93  N         45.0460   62.8920   34.3260 N.3   599  LYS599     -0.1245
     94  CA        43.8750   63.5460   34.8980 C.3   599  LYS599      0.1561
     95  C         42.8390   62.6110   35.5060 C.2   599  LYS599      0.2260
     96  O         42.6860   61.4740   35.0860 O.2   599  LYS599     -0.2867
     97  CB        43.2110   64.4940   33.8930 C.3   599  LYS599      0.0271
     98  CG        42.5500   63.8530   32.7050 C.3   599  LYS599      0.0035
     99  CD        41.3990   64.7170   32.2130 C.3   599  LYS599      0.0206
    100  CE        41.9110   65.9070   31.4530 C.3   599  LYS599      0.1093
    101  NZ        40.7590   66.5000   30.7330 N.3   599  LYS599     -0.1314
    102  N         39.0110   62.0600   36.0730 N.3   601  THR601     -0.1218
    103  CA        37.7210   62.4190   35.5170 C.3   601  THR601      0.1862
    104  C         36.5580   62.2350   36.4480 C.2   601  THR601      0.2287
    105  O         35.5550   62.8920   36.2750 O.2   601  THR601     -0.2866
    106  CB        37.4390   61.6400   34.2270 C.3   601  THR601      0.1770
    107  OG1       37.6030   60.2510   34.4680 O.3   601  THR601     -0.2211
    108  CG2       38.4330   62.0880   33.1620 C.3   601  THR601      0.0375
    109  N         42.6010   59.2570   33.2330 N.3   618  TYR618     -0.1241
    110  CA        43.1570   59.2050   31.8810 C.3   618  TYR618      0.1605
    111  C         44.4080   58.3140   31.7490 C.2   618  TYR618      0.2264
    112  O         44.8250   58.0090   30.6270 O.2   618  TYR618     -0.2867
    113  CB        43.4880   60.6220   31.3850 C.3   618  TYR618      0.0534
    114  CG        42.4040   61.2790   30.5520 C.ar  618  TYR618     -0.0201
    115  CD1       41.0530   60.9860   30.7430 C.ar  618  TYR618     -0.0009
    116  CD2       42.7410   62.2000   29.5680 C.ar  618  TYR618     -0.0009
    117  CE1       40.0820   61.5860   29.9560 C.ar  618  TYR618      0.0417
    118  CE2       41.7770   62.7970   28.7740 C.ar  618  TYR618      0.0417
    119  CZ        40.4520   62.4910   28.9700 C.ar  618  TYR618      0.1957
    120  OH        39.5000   63.1010   28.1990 O.3   618  TYR618     -0.2866
    121  N         40.9290   55.8010   27.9800 N.3   642  ARG642     -0.1245
    122  CA        41.0010   56.7130   29.1310 C.3   642  ARG642      0.1563
    123  C         39.6440   56.7220   29.8260 C.2   642  ARG642      0.2260
    124  O         38.6210   56.9170   29.1720 O.2   642  ARG642     -0.2867
    125  CB        41.4070   58.1010   28.6320 C.3   642  ARG642      0.0307
    126  CG        42.6510   57.9790   27.7280 C.3   642  ARG642      0.0489
    127  CD        43.2460   59.2850   27.3250 C.3   642  ARG642      0.2205
    128  NE        42.3910   60.0420   26.4310 N.pl3 642  ARG642     -0.0865
    129  CZ        42.7720   61.1670   25.8180 C.cat 642  ARG642      0.5346
    130  NH1       43.9960   61.6620   25.9760 N.pl3 642  ARG642      0.1354
    131  NH2       41.9250   61.8120   25.0450 N.pl3 642  ARG642      0.1354
    132  N         36.4010   57.7380   31.8870 N.3   644  LEU644     -0.1245
    133  CA        35.5940   58.9210   31.9980 C.3   644  LEU644      0.1561
    134  C         34.6450   58.8760   33.1740 C.2   644  LEU644      0.2260
    135  O         34.1690   59.8970   33.6090 O.2   644  LEU644     -0.2867
    136  CB        34.8160   59.1110   30.7090 C.3   644  LEU644      0.0270
    137  CG        35.6320   59.1610   29.4060 C.3   644  LEU644      0.0019
    138  CD1       34.7190   59.0520   28.1860 C.3   644  LEU644      0.0001
    139  CD2       36.4580   60.4400   29.3590 C.3   644  LEU644      0.0001
@<TRIPOS>BOND
     1     9    11   ar
     2     9     7   ar
     3    11    10   ar
     4     7     6   ar
     5     1     2    1
     6    10     8   ar
     7    23    22    1
     8     6     8   ar
     9     6     5    1
    10     2     5    1
    11     2     3    1
    12    21    22   ar
    13    21    19   ar
    14    22    20   ar
    15   131   129    1
    16     4     3    2
    17    36    35    1
    18   129   130    1
    19   129   128    2
    20    19    17   ar
    21    20    18   ar
    22    31    32    1
    23   128   127    1
    24    30    28    1
    25    35    32    1
    26    35    37    1
    27    32    33    1
    28   127   126    1
    29    17    18   ar
    30    17    16    1
    31    24    25    1
    32   126   125    1
    33    29    28    1
    34    49    48    1
    35   121   122    1
    36    28    25    1
    37   138   137    1
    38   120   119    1
    39    33    34    2
    40    25    26    1
    41    16    13    1
    42    12    13    1
    43   125   122    1
    44   118   119   ar
    45   118   116   ar
    46   119   117   ar
    47    48    46   ar
    48    48    47   ar
    49   122   123    1
    50   124   123    2
    51    13    14    1
    52   139   137    1
    53   137   136    1
    54    46    44   ar
    55   116   114   ar
    56    47    45   ar
    57   117   115   ar
    58    26    27    2
    59    59    58    1
    60    59    60    2
    61    58    57    1
    62   114   115   ar
    63   114   113    1
    64   112   111    2
    65    44    43   ar
    66   136   133    1
    67    14    15    2
    68   101   100    1
    69    45    43   ar
    70    43    42    1
    71   113   110    1
    72   100    99    1
    73    38    39    1
    74   111   110    1
    75   110   109    1
    76   132   133    1
    77   133   134    1
    78    99    98    1
    79    39    42    1
    80    39    40    1
    81    98    97    1
    82    83    82    1
    83   108   106    1
    84   134   135    2
    85    40    41    2
    86    40    50   am
    87    97    94    1
    88    50    51    1
    89   106   107    1
    90   106   103    1
    91    91    90    2
    92    93    94    1
    93    84    82    1
    94    82    81    1
    95    67    65    1
    96    81    78    1
    97    94    95    1
    98    53    52    2
    99    96    95    2
   100    90    92   am
   101    90    89    1
   102    51    52    1
   103    51    54    1
   104   103   102    1
   105   103   104    1
   106    65    62    1
   107    65    66    1
   108    64    63    2
   109    62    63    1
   110    62    61    1
   111   105   104    2
   112    89    86    1
   113    55    54    1
   114    78    77    1
   115    78    79    1
   116    63    68   am
   117    54    56    1
   118    86    85    1
   119    86    87    1
   120    80    79    2
   121    88    87    2
   122    68    69    1
   123    75    74   ar
   124    69    72    1
   125    69    70    1
   126    72    73    1
   127    74    76   ar
   128    74    73    1
   129    70    71    2
