@<TRIPOS>MOLECULE
tmp/5tehA00.pdb
 196 186 0 0 0
SMALL
GASTEIGER

@<TRIPOS>ATOM
      1  N        -11.2270  -45.1530    8.7570 N.3    18  LEU18      -0.1231
      2  CA       -11.0270  -44.5510    7.4200 C.3    18  LEU18       0.1693
      3  C         -9.8290  -45.1000    6.6410 C.2    18  LEU18       0.2593
      4  O         -9.8300  -45.0590    5.3980 O.2    18  LEU18      -0.2718
      5  CB       -10.9060  -43.0240    7.5390 C.3    18  LEU18       0.0284
      6  CG       -12.1180  -42.2190    8.0260 C.3    18  LEU18       0.0019
      7  CD1      -11.7040  -40.7970    8.4030 C.3    18  LEU18       0.0001
      8  CD2      -13.1910  -42.1750    6.9390 C.3    18  LEU18       0.0001
      9  N         -8.8270  -45.5990    7.3520 N.am   19  GLY19      -0.1942
     10  CA        -7.6360  -46.1030    6.6740 C.3    19  GLY19       0.2014
     11  C         -6.9440  -47.1480    7.5030 C.2    19  GLY19       0.2638
     12  O         -7.4280  -47.5250    8.5640 O.2    19  GLY19      -0.2714
     13  N         -5.8210  -47.6190    6.9840 N.am   20  GLN20      -0.1977
     14  CA        -4.9330  -48.4900    7.7320 C.3    20  GLN20       0.1601
     15  C         -3.5300  -48.3910    7.1290 C.2    20  GLN20       0.2287
     16  O         -3.3940  -48.3260    5.9090 O.2    20  GLN20      -0.2864
     17  CB        -5.4800  -49.9200    7.7070 C.3    20  GLN20       0.0394
     18  CG        -4.5980  -50.9900    8.3430 C.3    20  GLN20       0.0908
     19  CD        -4.1960  -50.6820    9.7700 C.2    20  GLN20       0.2608
     20  OE1       -4.9440  -50.0460   10.5110 O.2    20  GLN20      -0.2717
     21  NE2       -3.0100  -51.1380   10.1650 N.am   20  GLN20      -0.0878
     22  N          1.7170  -46.0880    9.4660 N.3    23  PHE23      -0.1241
     23  CA         1.7950  -44.7120   10.0120 C.3    23  PHE23       0.1605
     24  C          0.9530  -44.4210   11.2690 C.2    23  PHE23       0.2264
     25  O          1.3210  -43.5730   12.0700 O.2    23  PHE23      -0.2867
     26  CB         1.3990  -43.7040    8.9190 C.3    23  PHE23       0.0534
     27  CG         0.0070  -43.9170    8.3520 C.ar   23  PHE23      -0.0203
     28  CD1       -1.1300  -43.4560    9.0150 C.ar   23  PHE23      -0.0042
     29  CD2       -0.1610  -44.5850    7.1460 C.ar   23  PHE23      -0.0042
     30  CE1       -2.4010  -43.6780    8.5040 C.ar   23  PHE23      -0.0003
     31  CE2       -1.4290  -44.7930    6.6180 C.ar   23  PHE23      -0.0003
     32  CZ        -2.5480  -44.3400    7.2950 C.ar   23  PHE23      -0.0000
     33  N         -6.2730  -43.5460   10.3110 N.3    26  CYS26      -0.1235
     34  CA        -7.3580  -42.6120    9.9480 C.3    26  CYS26       0.1677
     35  C         -8.7440  -43.1200   10.4910 C.2    26  CYS26       0.2270
     36  O         -9.1850  -44.2490   10.1480 O.2    26  CYS26      -0.2867
     37  CB        -7.4490  -42.4330    8.4130 C.3    26  CYS26       0.0956
     38  SG        -5.9390  -42.0600    7.4770 S.3    26  CYS26      -0.0801
     39  N        -12.4430  -35.5470   12.3340 N.3    38  ALA38      -0.1231
     40  CA       -11.5340  -36.5110   11.7240 C.3    38  ALA38       0.1694
     41  C        -10.4360  -36.7280   12.6700 C.2    38  ALA38       0.2592
     42  O         -9.8690  -35.7520   13.1890 O.2    38  ALA38      -0.2718
     43  CB       -10.9480  -35.9690   10.4360 C.3    38  ALA38       0.0304
     44  N        -10.0880  -38.0010   12.8760 N.am   39  ILE39      -0.1966
     45  CA        -9.0610  -38.3730   13.8510 C.3    39  ILE39       0.1727
     46  C         -7.9790  -39.2410   13.2180 C.2    39  ILE39       0.2616
     47  O         -8.2640  -40.1360   12.3820 O.2    39  ILE39      -0.2715
     48  CB        -9.6680  -39.1020   15.0620 C.3    39  ILE39       0.0290
     49  CG1      -10.8760  -38.3310   15.6040 C.3    39  ILE39       0.0022
     50  CG2       -8.6380  -39.2110   16.1650 C.3    39  ILE39       0.0023
     51  CD1      -11.8020  -39.1420   16.4610 C.3    39  ILE39       0.0001
     52  N         -6.7360  -38.9320   13.6160 N.am   40  LYS40      -0.1977
     53  CA        -5.6140  -39.8020   13.3450 C.3    40  LYS40       0.1596
     54  C         -4.8970  -40.1570   14.6230 C.2    40  LYS40       0.2287
     55  O         -4.5930  -39.2840   15.4490 O.2    40  LYS40      -0.2864
     56  CB        -4.6120  -39.1710   12.4070 C.3    40  LYS40       0.0298
     57  CG        -3.6230  -40.1790   11.8100 C.3    40  LYS40       0.0038
     58  CD        -2.1940  -39.6850   11.6300 C.3    40  LYS40       0.0206
     59  CE        -1.3400  -40.8230   11.1270 C.3    40  LYS40       0.1093
     60  NZ         0.1310  -40.6110   11.2520 N.3    40  LYS40      -0.1314
     61  N          7.1710  -37.1040   16.5940 N.3    52  PHE52      -0.1241
     62  CA         6.0600  -36.9210   15.6250 C.3    52  PHE52       0.1605
     63  C          5.2040  -35.7120   15.9510 C.2    52  PHE52       0.2264
     64  O          4.5370  -35.2300   15.0700 O.2    52  PHE52      -0.2867
     65  CB         5.1940  -38.1810   15.5520 C.3    52  PHE52       0.0534
     66  CG         4.5800  -38.4720   14.1880 C.ar   52  PHE52      -0.0203
     67  CD1        5.3450  -38.9530   13.1100 C.ar   52  PHE52      -0.0042
     68  CD2        3.2120  -38.3640   14.0150 C.ar   52  PHE52      -0.0042
     69  CE1        4.7580  -39.2560   11.8890 C.ar   52  PHE52      -0.0003
     70  CE2        2.6060  -38.6950   12.7840 C.ar   52  PHE52      -0.0003
     71  CZ         3.3840  -39.1380   11.7230 C.ar   52  PHE52      -0.0000
     72  N          5.6730  -32.3680   13.9500 N.3    55  GLU55      -0.1245
     73  CA         4.7230  -32.1050   12.8780 C.3    55  GLU55       0.1567
     74  C          3.4850  -31.3740   13.4300 C.2    55  GLU55       0.2260
     75  O          2.7530  -30.7250   12.6790 O.2    55  GLU55      -0.2867
     76  CB         4.2930  -33.3890   12.1590 C.3    55  GLU55       0.0388
     77  CG         2.9890  -33.9360   12.7330 C.3    55  GLU55       0.1160
     78  CD         2.6340  -35.3620   12.3590 C.2    55  GLU55       0.3649
     79  OE1        3.2560  -35.9640   11.4460 O.co2  55  GLU55      -0.2457
     80  OE2        1.6590  -35.8540   12.9800 O.co2  55  GLU55      -0.2457
     81  N          1.8640  -27.6190   12.4730 N.3    59  MET59      -0.1245
     82  CA         0.4270  -27.5320   12.2620 C.3    59  MET59       0.1570
     83  C         -0.1590  -26.4650   13.1980 C.2    59  MET59       0.2261
     84  O         -0.8540  -25.5790   12.7390 O.2    59  MET59      -0.2867
     85  CB        -0.2810  -28.8890   12.4320 C.3    59  MET59       0.0387
     86  CG        -0.0700  -29.8890   11.2940 C.3    59  MET59       0.0595
     87  SD        -1.2770  -31.2770   11.2600 S.3    59  MET59      -0.1393
     88  CE        -0.7400  -32.4060   12.5720 C.3    59  MET59       0.0692
     89  N         -5.8100  -27.8210    6.6110 N.3    68  VAL68      -0.1245
     90  CA        -6.7730  -28.6630    7.3380 C.3    68  VAL68       0.1561
     91  C         -6.5980  -28.3050    8.7920 C.2    68  VAL68       0.2260
     92  O         -5.5460  -28.5570    9.3880 O.2    68  VAL68      -0.2867
     93  CB        -6.5070  -30.1840    7.1390 C.3    68  VAL68       0.0252
     94  CG1       -7.5800  -30.9790    7.8460 C.3    68  VAL68       0.0019
     95  CG2       -6.3920  -30.5890    5.6660 C.3    68  VAL68       0.0019
     96  N         -4.6710  -37.1460   17.4760 N.3    81  ILE81      -0.1245
     97  CA        -4.6940  -35.7870   16.9320 C.3    81  ILE81       0.1561
     98  C         -5.9990  -35.6180   16.1660 C.2    81  ILE81       0.2260
     99  O         -6.4840  -36.5810   15.5270 O.2    81  ILE81      -0.2867
    100  CB        -3.4970  -35.5570   15.9920 C.3    81  ILE81       0.0252
    101  CG1       -2.1840  -35.8100   16.7470 C.3    81  ILE81       0.0019
    102  CG2       -3.5070  -34.1370   15.4290 C.3    81  ILE81       0.0019
    103  CD1       -1.5540  -37.1490   16.4430 C.3    81  ILE81       0.0001
    104  N         -9.0360  -33.0410   13.9650 N.3    83  THR83      -0.1203
    105  CA        -9.0610  -32.2220   12.7420 C.3    83  THR83       0.1994
    106  C        -10.4590  -32.1040   12.0910 C.2    83  THR83       0.2618
    107  O        -11.2920  -33.0230   12.1810 O.2    83  THR83      -0.2717
    108  CB        -8.1230  -32.8310   11.6740 C.3    83  THR83       0.1784
    109  OG1       -8.4400  -34.2200   11.4700 O.3    83  THR83      -0.2211
    110  CG2       -6.6740  -32.7340   12.0660 C.3    83  THR83       0.0376
    111  N        -10.6980  -30.9900   11.4000 N.am   84  GLU84      -0.1965
    112  CA       -11.9160  -30.8570   10.6020 C.3    84  GLU84       0.1733
    113  C        -11.9770  -32.0600    9.6950 C.2    84  GLU84       0.2616
    114  O        -10.9820  -32.3840    9.0160 O.2    84  GLU84      -0.2715
    115  CB       -11.9540  -29.5660    9.7730 C.3    84  GLU84       0.0429
    116  CG       -11.1800  -29.4760    8.4830 C.3    84  GLU84       0.1163
    117  CD       -11.4940  -28.1820    7.7610 C.2    84  GLU84       0.3649
    118  OE1      -10.6330  -27.2450    7.8310 O.co2  84  GLU84      -0.2457
    119  OE2      -12.5840  -28.1010    7.1220 O.co2  84  GLU84      -0.2457
    120  N        -13.1180  -32.7540    9.7270 N.am   85  TYR85      -0.1960
    121  CA       -13.3480  -33.8950    8.8710 C.3    85  TYR85       0.1771
    122  C        -13.7720  -33.4300    7.4990 C.2    85  TYR85       0.2619
    123  O        -14.9310  -33.0820    7.3050 O.2    85  TYR85      -0.2715
    124  CB       -14.4300  -34.8190    9.4470 C.3    85  TYR85       0.0574
    125  CG       -14.8720  -35.9110    8.4680 C.ar   85  TYR85      -0.0198
    126  CD1      -13.9420  -36.7900    7.8820 C.ar   85  TYR85      -0.0009
    127  CD2      -16.2020  -36.0470    8.1170 C.ar   85  TYR85      -0.0009
    128  CE1      -14.3320  -37.7510    6.9920 C.ar   85  TYR85       0.0417
    129  CE2      -16.6050  -37.0340    7.2430 C.ar   85  TYR85       0.0417
    130  CZ       -15.6700  -37.8830    6.6840 C.ar   85  TYR85       0.1957
    131  OH       -16.0660  -38.8190    5.7590 O.3    85  TYR85      -0.2866
    132  N        -12.8500  -33.4440    6.5390 N.am   86  MET86      -0.1963
    133  CA       -13.2140  -33.1780    5.1500 C.3    86  MET86       0.1736
    134  C        -13.8560  -34.4730    4.6630 C.2    86  MET86       0.2617
    135  O        -13.2960  -35.5480    4.8650 O.2    86  MET86      -0.2715
    136  CB       -12.0050  -32.7640    4.3090 C.3    86  MET86       0.0427
    137  CG       -11.1680  -31.6210    4.9170 C.3    86  MET86       0.0599
    138  SD       -12.0300  -30.0320    5.0650 S.3    86  MET86      -0.1393
    139  CE       -12.1390  -29.5980    3.3340 C.3    86  MET86       0.0692
    140  N        -15.0650  -34.3570    4.1060 N.am   87  SER87      -0.1950
    141  CA       -16.0010  -35.4860    3.9820 C.3    87  SER87       0.1924
    142  C        -15.7340  -36.3260    2.7500 C.2    87  SER87       0.2314
    143  O        -15.7290  -37.5540    2.8030 O.2    87  SER87      -0.2863
    144  CB       -17.4380  -34.9930    3.9830 C.3    87  SER87       0.2116
    145  OG       -17.6960  -34.2310    2.8380 O.3    87  SER87      -0.2180
    146  N        -13.0290  -36.7580    1.1590 N.3    89  GLY89      -0.1210
    147  CA       -11.7910  -37.5060    1.1330 C.3    89  GLY89       0.1956
    148  C        -10.7560  -36.8430    0.2970 C.2    89  GLY89       0.2612
    149  O        -10.7860  -35.6260    0.1430 O.2    89  GLY89      -0.2717
    150  N         -9.8360  -37.6440   -0.2280 N.am   90  SER90      -0.1952
    151  CA        -8.7150  -37.1060   -0.9300 C.3    90  SER90       0.1924
    152  C         -9.2240  -36.7820   -2.3040 C.2    90  SER90       0.2314
    153  O        -10.2470  -37.3210   -2.7390 O.2    90  SER90      -0.2863
    154  CB        -7.5630  -38.0870   -1.0280 C.3    90  SER90       0.2116
    155  OG        -7.5740  -38.6710   -2.2970 O.3    90  SER90      -0.2180
    156  N         -3.2090  -36.7270   -4.5120 N.3   135  ALA135     -0.1245
    157  CA        -3.3040  -37.7100   -3.4770 C.3   135  ALA135      0.1562
    158  C         -3.2860  -37.1290   -2.0590 C.2   135  ALA135      0.2260
    159  O         -3.6560  -37.8420   -1.1710 O.2   135  ALA135     -0.2867
    160  CB        -2.1850  -38.7150   -3.6310 C.3   135  ALA135      0.0290
    161  N         -7.0720  -32.4070    0.2400 N.3   138  LEU138     -0.1245
    162  CA        -8.3860  -32.7980    0.7640 C.3   138  LEU138      0.1561
    163  C         -9.4910  -32.0360    0.0330 C.2   138  LEU138      0.2260
    164  O         -9.1520  -31.1760   -0.8200 O.2   138  LEU138     -0.2867
    165  CB        -8.4640  -32.6300    2.2680 C.3   138  LEU138      0.0270
    166  CG        -7.9030  -33.9030    2.8630 C.3   138  LEU138      0.0019
    167  CD1       -7.6520  -33.7030    4.3710 C.3   138  LEU138      0.0001
    168  CD2       -8.7940  -35.1610    2.5870 C.3   138  LEU138      0.0001
    169  N         -2.7470  -30.7140    2.4890 N.3   148  ALA148     -0.1231
    170  CA        -2.3220  -31.1650    3.8310 C.3   148  ALA148      0.1694
    171  C         -1.0190  -31.9620    3.7290 C.2   148  ALA148      0.2592
    172  O         -0.2740  -31.7330    2.7670 O.2   148  ALA148     -0.2718
    173  CB        -3.4110  -31.9660    4.5320 C.3   148  ALA148      0.0304
    174  N         -0.7220  -32.8680    4.6970 N.am  149  ASP149     -0.1960
    175  CA         0.6160  -33.4210    4.9420 C.3   149  ASP149      0.1840
    176  C          1.7120  -32.3140    4.8010 C.2   149  ASP149      0.2622
    177  O          2.3270  -32.1400    3.7200 O.2   149  ASP149     -0.2715
    178  CB         0.8830  -34.6350    4.0280 C.3   149  ASP149      0.1450
    179  CG         1.8590  -35.6630    4.6650 C.2   149  ASP149      0.3671
    180  OD1        2.9400  -35.2490    5.2000 O.co2 149  ASP149     -0.2456
    181  OD2        1.5290  -36.8950    4.6190 O.co2 149  ASP149     -0.2456
    182  N          1.9340  -31.5660    5.8930 N.am  150  PHE150     -0.1960
    183  CA         2.8430  -30.3750    5.8770 C.3   150  PHE150      0.1771
    184  C          4.2660  -30.8030    6.0930 C.2   150  PHE150      0.2620
    185  O          5.0680  -30.8100    5.1520 O.2   150  PHE150     -0.2715
    186  CB         2.4240  -29.3050    6.9250 C.3   150  PHE150      0.0574
    187  CG         0.9380  -29.0300    6.9150 C.ar  150  PHE150     -0.0200
    188  CD1        0.3770  -28.1780    5.9570 C.ar  150  PHE150     -0.0042
    189  CD2        0.0950  -29.6950    7.7940 C.ar  150  PHE150     -0.0042
    190  CE1       -0.9820  -27.9430    5.9380 C.ar  150  PHE150     -0.0003
    191  CE2       -1.2770  -29.4660    7.7630 C.ar  150  PHE150     -0.0003
    192  CZ        -1.8160  -28.5940    6.8390 C.ar  150  PHE150     -0.0000
    193  N          4.5260  -31.1820    7.3480 N.am  151  GLY151     -0.1954
    194  CA         5.8560  -31.3650    7.9250 C.3   151  GLY151      0.1869
    195  C          6.6370  -32.4330    7.2080 C.2   151  GLY151      0.2309
    196  O          6.0760  -33.2460    6.4780 O.2   151  GLY151     -0.2863
@<TRIPOS>BOND
     1   156   157    1
     2   160   157    1
     3   157   158    1
     4   153   152    2
     5   152   151    1
     6   155   154    1
     7   158   159    2
     8   154   151    1
     9   151   150    1
    10   164   163    2
    11   150   148   am
    12   163   162    1
    13   149   148    2
    14   161   162    1
    15   148   147    1
    16   162   165    1
    17   147   146    1
    18   165   166    1
    19   169   170    1
    20   168   166    1
    21   142   143    2
    22   142   141    1
    23   172   171    2
    24   145   144    1
    25   166   167    1
    26   139   138    1
    27   177   176    2
    28   171   170    1
    29   171   174   am
    30   170   173    1
    31   141   144    1
    32   141   140    1
    33   178   179    1
    34   178   175    1
    35   140   134   am
    36   136   137    1
    37   136   133    1
    38   181   179   ar
    39   134   135    2
    40   134   133    1
    41   179   180   ar
    42   174   175    1
    43   176   175    1
    44   176   182   am
    45   137   138    1
    46   133   132    1
    47   185   184    2
    48     4     3    2
    49    95    93    1
    50   131   130    1
    51   183   182    1
    52   183   184    1
    53   183   186    1
    54    16    15    2
    55   190   188   ar
    56   190   192   ar
    57   188   187   ar
    58   184   193   am
    59   196   195    2
    60   132   122   am
    61    89    90    1
    62    31    29   ar
    63    31    32   ar
    64     3     9   am
    65     3     2    1
    66    10     9    1
    67    10    11    1
    68   130   128   ar
    69   130   129   ar
    70   192   191   ar
    71   187   186    1
    72   187   189   ar
    73     8     6    1
    74    13    11   am
    75    13    14    1
    76   128   126   ar
    77   119   117   ar
    78    15    14    1
    79    93    90    1
    80    93    94    1
    81    29    27   ar
    82   195   194    1
    83   129   127   ar
    84    32    30   ar
    85   123   122    2
    86    90    91    1
    87   193   194    1
    88     2     5    1
    89     2     1    1
    90    38    37    1
    91   122   121    1
    92    11    12    2
    93     5     6    1
    94    17    14    1
    95    17    18    1
    96   117   118   ar
    97   117   116    1
    98   191   189   ar
    99   126   125   ar
   100     6     7    1
   101   127   125   ar
   102    18    19    1
   103    27    26    1
   104    27    28   ar
   105    37    34    1
   106   125   124    1
   107   116   115    1
   108    30    28   ar
   109    91    92    2
   110   121   124    1
   111   121   120    1
   112    26    23    1
   113   114   113    2
   114    22    23    1
   115   113   120   am
   116   113   112    1
   117    19    21   am
   118    19    20    2
   119   115   112    1
   120    34    33    1
   121    34    35    1
   122    23    24    1
   123    36    35    2
   124    43    40    1
   125   112   111    1
   126    59    60    1
   127    59    58    1
   128    87    86    1
   129    87    88    1
   130    24    25    2
   131    86    85    1
   132   111   106   am
   133    79    78   ar
   134   109   108    1
   135    58    57    1
   136   108   110    1
   137   108   105    1
   138    71    69   ar
   139    71    70   ar
   140    40    39    1
   141    40    41    1
   142    57    56    1
   143    69    67   ar
   144   106   107    2
   145   106   105    1
   146    76    77    1
   147    76    73    1
   148    82    85    1
   149    82    81    1
   150    82    83    1
   151    78    77    1
   152    78    80   ar
   153    47    46    2
   154    56    53    1
   155    41    44   am
   156    41    42    2
   157    75    74    2
   158    84    83    2
   159   105   104    1
   160    70    68   ar
   161    44    45    1
   162    73    74    1
   163    73    72    1
   164    67    66   ar
   165    46    52   am
   166    46    45    1
   167    53    52    1
   168    53    54    1
   169    45    48    1
   170    68    66   ar
   171    66    65    1
   172    54    55    2
   173    48    49    1
   174    48    50    1
   175    64    63    2
   176   102   100    1
   177    99    98    2
   178    65    62    1
   179    49    51    1
   180    62    63    1
   181    62    61    1
   182   100   101    1
   183   100    97    1
   184    98    97    1
   185   103   101    1
   186    97    96    1
