@<TRIPOS>MOLECULE
tmp/5teiA01.pdb
 165 161 0 0 0
SMALL
GASTEIGER

@<TRIPOS>ATOM
      1  N         37.8480   28.3380   30.1100 N.3   112  LEU112     -0.1231
      2  CA        37.5150   27.6050   31.3420 C.3   112  LEU112      0.1693
      3  C         37.9320   26.1540   31.3000 C.2   112  LEU112      0.2592
      4  O         38.0060   25.4860   32.3310 O.2   112  LEU112     -0.2718
      5  CB        36.0040   27.6770   31.6530 C.3   112  LEU112      0.0284
      6  CG        35.4890   29.0980   31.9190 C.3   112  LEU112      0.0019
      7  CD1       33.9620   29.1670   31.8930 C.3   112  LEU112      0.0001
      8  CD2       36.0000   29.6020   33.2590 C.3   112  LEU112      0.0001
      9  N         38.1810   25.6410   30.1120 N.am  113  SER113     -0.1952
     10  CA        38.4000   24.2310   30.0150 C.3   113  SER113      0.1924
     11  C         39.7210   23.9030   29.3080 C.2   113  SER113      0.2314
     12  O         40.5890   23.2670   29.9060 O.2   113  SER113     -0.2863
     13  CB        37.1180   23.5580   29.4470 C.3   113  SER113      0.2116
     14  OG        37.4340   22.2920   28.9830 O.3   113  SER113     -0.2180
     15  N         42.8420   22.8350   31.4420 N.3   117  GLY117     -0.1225
     16  CA        43.4180   21.5240   31.2360 C.3   117  GLY117      0.1811
     17  C         44.9080   21.5600   30.9340 C.2   117  GLY117      0.2280
     18  O         45.6580   20.7100   31.3840 O.2   117  GLY117     -0.2866
     19  N         42.1590   20.4470   19.2750 N.3   163  PHE163     -0.1241
     20  CA        42.5320   20.8690   20.6160 C.3   163  PHE163      0.1605
     21  C         44.0190   21.2200   20.5380 C.2   163  PHE163      0.2264
     22  O         44.8630   20.4300   20.9710 O.2   163  PHE163     -0.2867
     23  CB        42.2960   19.7320   21.6030 C.3   163  PHE163      0.0534
     24  CG        40.8600   19.5230   21.9340 C.ar  163  PHE163     -0.0203
     25  CD1       40.1030   18.6250   21.2230 C.ar  163  PHE163     -0.0042
     26  CD2       40.2590   20.2700   22.9530 C.ar  163  PHE163     -0.0042
     27  CE1       38.7410   18.4940   21.4880 C.ar  163  PHE163     -0.0003
     28  CE2       38.9120   20.1360   23.2280 C.ar  163  PHE163     -0.0003
     29  CZ        38.1500   19.2280   22.5040 C.ar  163  PHE163     -0.0000
     30  N         45.7280   21.8350   24.1630 N.3   166  VAL166     -0.1231
     31  CA        45.6450   20.6730   25.0320 C.3   166  VAL166      0.1692
     32  C         46.5520   19.5540   24.4900 C.2   166  VAL166      0.2591
     33  O         47.3260   18.8950   25.2400 O.2   166  VAL166     -0.2718
     34  CB        44.1810   20.2430   25.2590 C.3   166  VAL166      0.0266
     35  CG1       44.1120   18.8930   25.9800 C.3   166  VAL166      0.0020
     36  CG2       43.4690   21.3150   26.0890 C.3   166  VAL166      0.0020
     37  N         46.5130   19.3710   23.1860 N.am  167  MET167     -0.1979
     38  CA        47.2620   18.2710   22.5650 C.3   167  MET167      0.1605
     39  C         48.7400   18.5650   22.6370 C.2   167  MET167      0.2287
     40  O         49.5370   17.6610   22.7760 O.2   167  MET167     -0.2864
     41  CB        46.8630   18.0640   21.1000 C.3   167  MET167      0.0413
     42  CG        45.5300   17.3350   20.9120 C.3   167  MET167      0.0598
     43  SD        45.6470   15.6320   21.4920 S.3   167  MET167     -0.1393
     44  CE        44.6700   15.6360   22.9830 C.3   167  MET167      0.0692
     45  N         49.5980   17.7390   26.1880 N.3   170  TRP170     -0.1241
     46  CA        49.5190   16.2690   26.3580 C.3   170  TRP170      0.1605
     47  C         50.7160   15.5630   25.7790 C.2   170  TRP170      0.2264
     48  O         51.1630   14.5930   26.3260 O.2   170  TRP170     -0.2867
     49  CB        48.2660   15.6560   25.7330 C.3   170  TRP170      0.0550
     50  CG        47.0990   15.7340   26.5650 C.ar  170  TRP170      0.0003
     51  CD1       46.7060   16.7790   27.3470 C.ar  170  TRP170      0.0946
     52  CD2       46.0640   14.7560   26.6390 C.ar  170  TRP170      0.0152
     53  NE1       45.5100   16.4780   27.9580 N.ar  170  TRP170     -0.2442
     54  CE2       45.0960   15.2400   27.5350 C.ar  170  TRP170      0.0810
     55  CE3       45.8750   13.5020   26.0460 C.ar  170  TRP170      0.0012
     56  CZ2       43.9390   14.5150   27.8430 C.ar  170  TRP170      0.0191
     57  CZ3       44.7400   12.7500   26.3800 C.ar  170  TRP170      0.0001
     58  CH2       43.7890   13.2600   27.2640 C.ar  170  TRP170      0.0015
     59  N         46.6940    7.9670   18.4800 N.3   261  GLU261     -0.1245
     60  CA        45.3340    8.1140   18.9400 C.3   261  GLU261      0.1567
     61  C         44.5630    8.6260   17.7070 C.2   261  GLU261      0.2260
     62  O         44.9300    9.6360   17.0920 O.2   261  GLU261     -0.2867
     63  CB        45.2340    9.0890   20.1010 C.3   261  GLU261      0.0388
     64  CG        43.8730    8.9860   20.8070 C.3   261  GLU261      0.1160
     65  CD        42.8700   10.0170   20.2900 C.2   261  GLU261      0.3649
     66  OE1       43.0670   11.1950   20.5990 O.co2 261  GLU261     -0.2457
     67  OE2       41.8900    9.6580   19.5910 O.co2 261  GLU261     -0.2457
     68  N         24.4450   14.0210   29.3160 N.3   282  PHE282     -0.1241
     69  CA        25.8540   13.6560   29.1070 C.3   282  PHE282      0.1605
     70  C         26.0330   13.1260   27.6930 C.2   282  PHE282      0.2264
     71  O         26.9880   13.4490   26.9830 O.2   282  PHE282     -0.2867
     72  CB        26.3050   12.6180   30.1300 C.3   282  PHE282      0.0534
     73  CG        26.8740   13.1910   31.4120 C.ar  282  PHE282     -0.0203
     74  CD1       28.1330   13.8170   31.4170 C.ar  282  PHE282     -0.0042
     75  CD2       26.2040   13.0410   32.6290 C.ar  282  PHE282     -0.0042
     76  CE1       28.6720   14.3520   32.6010 C.ar  282  PHE282     -0.0003
     77  CE2       26.7370   13.5750   33.8160 C.ar  282  PHE282     -0.0003
     78  CZ        27.9760   14.2030   33.8080 C.ar  282  PHE282     -0.0000
     79  N         26.0010   16.2920   25.4760 N.3   285  HIS285     -0.1226
     80  CA        27.3090   16.9390   25.5110 C.3   285  HIS285      0.1752
     81  C         28.3830   16.0310   24.8970 C.2   285  HIS285      0.2596
     82  O         29.2890   16.5000   24.2310 O.2   285  HIS285     -0.2718
     83  CB        27.6910   17.4210   26.9310 C.3   285  HIS285      0.0759
     84  CG        26.9300   18.6460   27.3530 C.ar  285  HIS285      0.0818
     85  ND1       27.1930   19.9050   26.8410 N.ar  285  HIS285     -0.2268
     86  CD2       25.8730   18.7970   28.1900 C.ar  285  HIS285      0.1154
     87  CE1       26.3530   20.7760   27.3700 C.ar  285  HIS285      0.1986
     88  NE2       25.5350   20.1290   28.1840 N.ar  285  HIS285     -0.2212
     89  N         28.2590   14.7330   25.0960 N.am  286  GLY286     -0.1957
     90  CA        29.2620   13.7930   24.6100 C.3   286  GLY286      0.1869
     91  C         29.4190   13.7540   23.1060 C.2   286  GLY286      0.2309
     92  O         30.4690   13.3750   22.6260 O.2   286  GLY286     -0.2863
     93  N         30.1020   18.2510   21.8110 N.3   289  TYR289     -0.1241
     94  CA        31.1140   19.0880   22.3720 C.3   289  TYR289      0.1605
     95  C         32.0750   19.5480   21.2740 C.2   289  TYR289      0.2264
     96  O         32.4630   18.7650   20.3680 O.2   289  TYR289     -0.2867
     97  CB        31.8250   18.3990   23.5400 C.3   289  TYR289      0.0534
     98  CG        32.6590   19.3550   24.3480 C.ar  289  TYR289     -0.0201
     99  CD1       32.0800   20.1430   25.3340 C.ar  289  TYR289     -0.0009
    100  CD2       34.0140   19.4980   24.0880 C.ar  289  TYR289     -0.0009
    101  CE1       32.8390   21.0340   26.0730 C.ar  289  TYR289      0.0417
    102  CE2       34.8060   20.4060   24.7950 C.ar  289  TYR289      0.0417
    103  CZ        34.2140   21.1660   25.7920 C.ar  289  TYR289      0.1957
    104  OH        34.9870   22.0220   26.5060 O.3   289  TYR289     -0.2866
    105  N         35.5230   15.9080   18.5400 N.3   294  CYS294     -0.1221
    106  CA        36.2170   15.2350   19.6270 C.3   294  CYS294      0.1808
    107  C         36.3880   13.8000   19.2180 C.2   294  CYS294      0.2601
    108  O         35.4500   13.1840   18.7230 O.2   294  CYS294     -0.2717
    109  CB        35.4250   15.2800   20.9460 C.3   294  CYS294      0.0970
    110  SG        35.0370   16.9330   21.6200 S.3   294  CYS294     -0.0800
    111  N         37.5790   13.2730   19.4780 N.am  295  CYS295     -0.1956
    112  CA        37.9030   11.9140   19.2660 C.3   295  CYS295      0.1843
    113  C         36.9150   10.9890   19.9990 C.2   295  CYS295      0.2625
    114  O         36.5670    9.9310   19.4870 O.2   295  CYS295     -0.2714
    115  CB        39.3450   11.6530   19.7690 C.3   295  CYS295      0.0997
    116  SG        39.7030   12.2110   21.4550 S.3   295  CYS295     -0.0797
    117  N         36.4470   11.4100   21.1710 N.am  296  ILE296     -0.1977
    118  CA        35.5970   10.5800   21.9970 C.3   296  ILE296      0.1596
    119  C         34.0910   10.7900   21.7590 C.2   296  ILE296      0.2287
    120  O         33.2950   10.2280   22.4800 O.2   296  ILE296     -0.2864
    121  CB        35.9190   10.8210   23.4860 C.3   296  ILE296      0.0276
    122  CG1       35.7900   12.3060   23.8270 C.3   296  ILE296      0.0022
    123  CG2       37.3360   10.3190   23.7710 C.3   296  ILE296      0.0022
    124  CD1       35.2980   12.6030   25.2090 C.3   296  ILE296      0.0001
    125  N         30.0990   11.0030   30.9400 N.3   449  TYR449     -0.1227
    126  CA        30.6810   10.9590   29.6010 C.3   449  TYR449      0.1736
    127  C         31.6590   12.1050   29.4100 C.2   449  TYR449      0.2596
    128  O         31.4450   13.2100   29.9050 O.2   449  TYR449     -0.2718
    129  CB        29.6220   10.9900   28.4590 C.3   449  TYR449      0.0548
    130  CG        30.2240   10.3490   27.1910 C.ar  449  TYR449     -0.0200
    131  CD1       31.0180   11.0750   26.3320 C.ar  449  TYR449     -0.0009
    132  CD2       30.0590    9.0130   26.9310 C.ar  449  TYR449     -0.0009
    133  CE1       31.5860   10.5010   25.2220 C.ar  449  TYR449      0.0417
    134  CE2       30.6480    8.3930   25.8300 C.ar  449  TYR449      0.0417
    135  CZ        31.4090    9.1490   24.9660 C.ar  449  TYR449      0.1957
    136  OH        31.9850    8.5550   23.8660 O.3   449  TYR449     -0.2866
    137  N         32.7590   11.8510   28.7210 N.am  450  GLY450     -0.1942
    138  CA        33.7040   12.9110   28.4400 C.3   450  GLY450      0.2014
    139  C         34.5280   13.3780   29.6450 C.2   450  GLY450      0.2639
    140  O         35.1350   14.4300   29.6050 O.2   450  GLY450     -0.2714
    141  N         34.6080   12.5730   30.6910 N.am  451  VAL451     -0.1963
    142  CA        35.4090   12.9560   31.8550 C.3   451  VAL451      0.1727
    143  C         36.8430   12.4860   31.7010 C.2   451  VAL451      0.2616
    144  O         37.1850   11.2910   31.8250 O.2   451  VAL451     -0.2715
    145  CB        34.8220   12.3790   33.1380 C.3   451  VAL451      0.0290
    146  CG1       35.6540   12.8140   34.3320 C.3   451  VAL451      0.0023
    147  CG2       33.3580   12.8160   33.2640 C.3   451  VAL451      0.0023
    148  N         37.7080   13.4490   31.4990 N.am  452  VAL452     -0.1977
    149  CA        39.0610   13.1540   31.1290 C.3   452  VAL452      0.1596
    150  C         39.9330   13.9960   32.0340 C.2   452  VAL452      0.2287
    151  O         39.6870   15.1610   32.1960 O.2   452  VAL452     -0.2864
    152  CB        39.2450   13.5300   29.6480 C.3   452  VAL452      0.0276
    153  CG1       40.6700   13.9480   29.3430 C.3   452  VAL452      0.0022
    154  CG2       38.7940   12.3840   28.7430 C.3   452  VAL452      0.0022
    155  N         44.8130    7.4620   28.9630 N.3   458  PHE458     -0.1241
    156  CA        43.8600    7.6800   27.9030 C.3   458  PHE458      0.1605
    157  C         44.3930    7.2070   26.5670 C.2   458  PHE458      0.2264
    158  O         45.5010    7.5490   26.1510 O.2   458  PHE458     -0.2867
    159  CB        43.4990    9.1480   27.8000 C.3   458  PHE458      0.0534
    160  CG        42.4930    9.4450   26.7110 C.ar  458  PHE458     -0.0203
    161  CD1       41.1360    9.3710   26.9710 C.ar  458  PHE458     -0.0042
    162  CD2       42.9090    9.8080   25.4550 C.ar  458  PHE458     -0.0042
    163  CE1       40.2160    9.6450   25.9800 C.ar  458  PHE458     -0.0003
    164  CE2       42.0040   10.0640   24.4610 C.ar  458  PHE458     -0.0003
    165  CZ        40.6550   10.0050   24.7280 C.ar  458  PHE458     -0.0000
@<TRIPOS>BOND
     1    62    61    2
     2    61    60    1
     3    59    60    1
     4   105   106    1
     5   108   107    2
     6    60    63    1
     7   107   111   am
     8   107   106    1
     9   112   111    1
    10   112   115    1
    11   112   113    1
    12    19    20    1
    13   114   113    2
    14    67    65   ar
    15   106   109    1
    16   115   116    1
    17   113   117   am
    18    63    64    1
    19    65    66   ar
    20    65    64    1
    21    96    95    2
    22    21    20    1
    23    21    22    2
    24    20    23    1
    25    42    41    1
    26    42    43    1
    27   109   110    1
    28    41    38    1
    29   117   118    1
    30    25    27   ar
    31    25    24   ar
    32    95    94    1
    33    27    29   ar
    34    43    44    1
    35    23    24    1
    36   119   118    1
    37   119   120    2
    38    93    94    1
    39    24    26   ar
    40   118   121    1
    41    94    97    1
    42    29    28   ar
    43    38    39    1
    44    38    37    1
    45    92    91    2
    46    39    40    2
    47    26    28   ar
    48    91    90    1
    49    37    32   am
    50   121   123    1
    51   121   122    1
    52    97    98    1
    53   122   124    1
    54   136   135    1
    55   100    98   ar
    56   100   102   ar
    57    30    31    1
    58    82    81    2
    59    98    99   ar
    60   164   165   ar
    61   164   162   ar
    62    32    31    1
    63    32    33    2
    64    90    89    1
    65   165   163   ar
    66   102   103   ar
    67    81    89   am
    68    81    80    1
    69   135   133   ar
    70   135   134   ar
    71    31    34    1
    72   133   131   ar
    73    34    35    1
    74    34    36    1
    75    99   101   ar
    76   162   160   ar
    77    79    80    1
    78    80    83    1
    79    49    46    1
    80    49    50    1
    81    47    48    2
    82    47    46    1
    83   103   101   ar
    84   103   104    1
    85   134   132   ar
    86   163   161   ar
    87    55    57   ar
    88    55    52   ar
    89   158   157    2
    90    45    46    1
    91   131   130   ar
    92    57    58   ar
    93    50    52   ar
    94    50    51   ar
    95   157   156    1
    96    52    54   ar
    97   160   161   ar
    98   160   159    1
    99    85    84   ar
   100    85    87   ar
   101   132   130   ar
   102    83    84    1
   103    71    70    2
   104   130   129    1
   105    58    56   ar
   106    51    53   ar
   107    84    86   ar
   108    87    88   ar
   109    54    56   ar
   110    54    53   ar
   111    70    69    1
   112   159   156    1
   113   156   155    1
   114    88    86   ar
   115   138   137    1
   116   138   139    1
   117   129   126    1
   118   137   127   am
   119   154   152    1
   120    14    13    1
   121    69    68    1
   122    69    72    1
   123    11    12    2
   124    11    10    1
   125   153   152    1
   126   127   126    1
   127   127   128    2
   128    13    10    1
   129   126   125    1
   130   140   139    2
   131   139   141   am
   132   152   149    1
   133    10     9    1
   134     1     2    1
   135     9     3   am
   136    72    73    1
   137   141   142    1
   138    17    16    1
   139    17    18    2
   140   149   148    1
   141   149   150    1
   142    16    15    1
   143     3     2    1
   144     3     4    2
   145     2     5    1
   146    73    74   ar
   147    73    75   ar
   148    74    76   ar
   149   148   143   am
   150     5     6    1
   151   143   144    2
   152   143   142    1
   153   142   145    1
   154     7     6    1
   155     6     8    1
   156   150   151    2
   157    76    78   ar
   158    75    77   ar
   159   145   147    1
   160   145   146    1
   161    78    77   ar
