@<TRIPOS>MOLECULE
tmp/5telA00.pdb
 169 160 0 0 0
SMALL
GASTEIGER

@<TRIPOS>ATOM
      1  N        -17.1370  -38.8210  -11.3920 N.3    12  LEU12      -0.1231
      2  CA       -18.5210  -38.6160  -11.8050 C.3    12  LEU12       0.1693
      3  C        -18.6800  -37.3240  -12.5960 C.2    12  LEU12       0.2593
      4  O        -19.4090  -37.2880  -13.5930 O.2    12  LEU12      -0.2718
      5  CB       -19.4390  -38.6170  -10.5820 C.3    12  LEU12       0.0284
      6  CG       -19.5280  -39.9510   -9.8360 C.3    12  LEU12       0.0019
      7  CD1      -20.3850  -39.8190   -8.5860 C.3    12  LEU12       0.0001
      8  CD2      -20.0710  -41.0390  -10.7480 C.3    12  LEU12       0.0001
      9  N        -18.0070  -36.2630  -12.1740 N.am   13  GLY13      -0.1942
     10  CA       -18.0830  -35.0010  -12.8850 C.3    13  GLY13       0.2014
     11  C        -17.1390  -33.9990  -12.2630 C.2    13  GLY13       0.2639
     12  O        -16.6360  -34.1870  -11.1490 O.2    13  GLY13      -0.2714
     13  N        -16.8980  -32.9250  -13.0090 N.am   14  SER14      -0.1949
     14  CA       -16.0620  -31.8390  -12.5270 C.3    14  SER14       0.1924
     15  C        -16.5860  -30.5260  -13.0870 C.2    14  SER14       0.2314
     16  O        -17.2360  -30.4970  -14.1350 O.2    14  SER14      -0.2863
     17  CB       -14.5900  -32.0290  -12.9150 C.3    14  SER14       0.2116
     18  OG       -14.3920  -31.7980  -14.2990 O.3    14  SER14      -0.2180
     19  N        -18.1030  -26.8310   -9.1070 N.3    17  PHE17      -0.1241
     20  CA       -18.2340  -27.5070   -7.8240 C.3    17  PHE17       0.1605
     21  C        -17.0070  -28.3310   -7.4510 C.2    17  PHE17       0.2264
     22  O        -17.0280  -29.0050   -6.4170 O.2    17  PHE17      -0.2867
     23  CB       -19.4720  -28.4110   -7.8400 C.3    17  PHE17       0.0534
     24  CG       -19.5330  -29.3330   -9.0300 C.ar   17  PHE17      -0.0203
     25  CD1      -18.8910  -30.5620   -9.0060 C.ar   17  PHE17      -0.0042
     26  CD2      -20.2310  -28.9680  -10.1720 C.ar   17  PHE17      -0.0042
     27  CE1      -18.9430  -31.4120  -10.0990 C.ar   17  PHE17      -0.0003
     28  CE2      -20.2880  -29.8140  -11.2690 C.ar   17  PHE17      -0.0003
     29  CZ       -19.6430  -31.0380  -11.2310 C.ar   17  PHE17      -0.0000
     30  N        -15.8400  -34.5170   -8.4470 N.3    20  VAL20      -0.1245
     31  CA       -16.6320  -35.4500   -7.6510 C.3    20  VAL20       0.1561
     32  C        -16.3810  -36.8590   -8.1650 C.2    20  VAL20       0.2260
     33  O        -16.6050  -37.1470   -9.3480 O.2    20  VAL20      -0.2867
     34  CB       -18.1290  -35.1070   -7.6990 C.3    20  VAL20       0.0252
     35  CG1      -18.9180  -36.0510   -6.7990 C.3    20  VAL20       0.0019
     36  CG2      -18.3530  -33.6560   -7.2940 C.3    20  VAL20       0.0019
     37  N        -19.9610  -40.2660   -2.3330 N.3    33  ALA33      -0.1245
     38  CA       -19.3710  -39.4100   -3.3490 C.3    33  ALA33       0.1562
     39  C        -18.2670  -38.5980   -2.6960 C.2    33  ALA33       0.2260
     40  O        -18.4560  -38.0550   -1.6030 O.2    33  ALA33      -0.2867
     41  CB       -20.4140  -38.4880   -3.9890 C.3    33  ALA33       0.0290
     42  N        -15.8780  -35.4430   -3.0410 N.3    35  LYS35      -0.1245
     43  CA       -15.7720  -34.1600   -3.7250 C.3    35  LYS35       0.1561
     44  C        -14.5080  -33.4430   -3.2700 C.2    35  LYS35       0.2260
     45  O        -14.3220  -33.2090   -2.0710 O.2    35  LYS35      -0.2867
     46  CB       -16.9990  -33.2900   -3.4520 C.3    35  LYS35       0.0271
     47  CG       -16.8510  -31.8710   -3.9740 C.3    35  LYS35       0.0035
     48  CD       -17.9430  -30.9460   -3.4500 C.3    35  LYS35       0.0206
     49  CE       -18.9620  -30.6320   -4.5320 C.3    35  LYS35       0.1093
     50  NZ       -19.6640  -29.3390   -4.2820 N.3    35  LYS35      -0.1314
     51  N        -28.6300  -33.9640   -0.3450 N.3    71  ILE71      -0.1245
     52  CA       -27.5170  -34.8990   -0.2000 C.3    71  ILE71       0.1561
     53  C        -26.7220  -34.5220    1.0420 C.2    71  ILE71       0.2260
     54  O        -26.2580  -33.3840    1.1800 O.2    71  ILE71      -0.2867
     55  CB       -26.6450  -34.8990   -1.4610 C.3    71  ILE71       0.0252
     56  CG1      -27.3450  -35.6520   -2.5960 C.3    71  ILE71       0.0019
     57  CG2      -25.2780  -35.5050   -1.1750 C.3    71  ILE71       0.0019
     58  CD1      -27.2580  -37.1550   -2.5100 C.3    71  ILE71       0.0001
     59  N        -19.8470  -37.3300    0.7820 N.3    87  LEU87      -0.1231
     60  CA       -21.2800  -37.1210    0.6570 C.3    87  LEU87       0.1693
     61  C        -21.9470  -38.4490    0.3460 C.2    87  LEU87       0.2592
     62  O        -21.3230  -39.3590   -0.2070 O.2    87  LEU87      -0.2718
     63  CB       -21.5980  -36.0970   -0.4430 C.3    87  LEU87       0.0284
     64  CG       -20.9380  -34.7260   -0.2850 C.3    87  LEU87       0.0019
     65  CD1      -20.8580  -34.0110   -1.6240 C.3    87  LEU87       0.0001
     66  CD2      -21.7050  -33.8820    0.7180 C.3    87  LEU87       0.0001
     67  N        -23.2200  -38.5590    0.7120 N.am   88  GLU88      -0.1966
     68  CA       -23.9630  -39.7620    0.3810 C.3    88  GLU88       0.1733
     69  C        -24.1340  -39.8690   -1.1320 C.2    88  GLU88       0.2616
     70  O        -24.0850  -38.8760   -1.8650 O.2    88  GLU88      -0.2715
     71  CB       -25.3230  -39.7660    1.0810 C.3    88  GLU88       0.0429
     72  CG       -26.3650  -38.8800    0.4290 C.3    88  GLU88       0.1163
     73  CD       -27.6920  -38.9060    1.1580 C.2    88  GLU88       0.3649
     74  OE1      -27.7620  -38.3670    2.2800 O.co2  88  GLU88      -0.2457
     75  OE2      -28.6630  -39.4710    0.6120 O.co2  88  GLU88      -0.2457
     76  N        -24.3170  -41.0990   -1.6020 N.am   89  ARG89      -0.1964
     77  CA       -24.4660  -41.3350   -3.0330 C.3    89  ARG89       0.1714
     78  C        -25.5680  -42.3550   -3.2900 C.2    89  ARG89       0.2458
     79  O        -25.3960  -43.5440   -2.9900 O.2    89  ARG89      -0.2730
     80  CB       -23.1390  -41.8010   -3.6390 C.3    89  ARG89       0.0347
     81  CG       -23.2110  -42.2950   -5.0850 C.3    89  ARG89       0.0492
     82  CD       -21.8020  -42.4880   -5.6310 C.3    89  ARG89       0.2205
     83  NE       -21.0700  -43.5360   -4.9180 N.pl3  89  ARG89      -0.0865
     84  CZ       -21.0180  -44.8140   -5.2870 C.cat  89  ARG89       0.5346
     85  NH1      -21.6060  -45.2160   -6.3940 N.pl3  89  ARG89       0.1354
     86  NH2      -20.3340  -45.6900   -4.5680 N.pl3  89  ARG89       0.1354
     87  N        -26.7110  -41.9300   -3.8270 N.am   90  PRO90      -0.2727
     88  CA       -27.7710  -42.8880   -4.1630 C.3    90  PRO90       0.1402
     89  C        -27.3510  -43.7880   -5.3130 C.2    90  PRO90       0.2269
     90  O        -26.5520  -43.4020   -6.1710 O.2    90  PRO90      -0.2865
     91  CB       -28.9480  -41.9940   -4.5750 C.3    90  PRO90       0.0296
     92  CG       -28.6180  -40.6270   -4.0370 C.3    90  PRO90       0.0237
     93  CD       -27.1250  -40.5360   -4.0570 C.3    90  PRO90       0.0939
     94  N        -28.2020  -43.4600   -9.7460 N.3    93  VAL93      -0.1231
     95  CA       -28.5350  -42.0420   -9.7120 C.3    93  VAL93       0.1692
     96  C        -28.3050  -41.4350  -11.0910 C.2    93  VAL93       0.2592
     97  O        -27.4360  -41.8730  -11.8500 O.2    93  VAL93      -0.2718
     98  CB       -27.7150  -41.2960   -8.6310 C.3    93  VAL93       0.0266
     99  CG1      -26.2450  -41.2760   -8.9950 C.3    93  VAL93       0.0020
    100  CG2      -28.2350  -39.8810   -8.4250 C.3    93  VAL93       0.0020
    101  N        -29.1150  -40.4300  -11.4210 N.am   94  GLN94      -0.1966
    102  CA       -28.9370  -39.6330  -12.6270 C.3    94  GLN94       0.1733
    103  C        -29.3090  -38.1940  -12.3080 C.2    94  GLN94       0.2616
    104  O        -30.3520  -37.9440  -11.6960 O.2    94  GLN94      -0.2715
    105  CB       -29.7960  -40.1610  -13.7840 C.3    94  GLN94       0.0408
    106  CG       -29.6030  -39.3990  -15.0890 C.3    94  GLN94       0.0908
    107  CD       -30.4300  -39.9640  -16.2310 C.2    94  GLN94       0.2608
    108  OE1      -31.5200  -40.4970  -16.0210 O.2    94  GLN94      -0.2717
    109  NE2      -29.9120  -39.8480  -17.4490 N.am   94  GLN94      -0.0878
    110  N        -28.4580  -37.2550  -12.7090 N.am   95  ASP95      -0.1971
    111  CA       -28.7600  -35.8480  -12.4940 C.3    95  ASP95       0.1709
    112  C        -29.9260  -35.4180  -13.3770 C.2    95  ASP95       0.2293
    113  O        -30.1200  -35.9300  -14.4840 O.2    95  ASP95      -0.2864
    114  CB       -27.5330  -34.9820  -12.7750 C.3    95  ASP95       0.1436
    115  CG       -27.0370  -35.1250  -14.1950 C.2    95  ASP95       0.3671
    116  OD1      -26.5050  -36.2050  -14.5260 O.co2  95  ASP95      -0.2456
    117  OD2      -27.1800  -34.1600  -14.9770 O.co2  95  ASP95      -0.2456
    118  N        -30.4790  -32.7620  -15.0680 N.3    97  PHE97      -0.1227
    119  CA       -30.1220  -32.1670  -16.3540 C.3    97  PHE97       0.1736
    120  C        -30.0050  -33.2320  -17.4390 C.2    97  PHE97       0.2595
    121  O        -30.5720  -33.0910  -18.5280 O.2    97  PHE97      -0.2718
    122  CB       -28.8150  -31.3830  -16.2280 C.3    97  PHE97       0.0547
    123  CG       -28.3830  -30.7130  -17.5060 C.ar   97  PHE97      -0.0202
    124  CD1      -27.6010  -31.3890  -18.4330 C.ar   97  PHE97      -0.0042
    125  CD2      -28.7520  -29.4050  -17.7760 C.ar   97  PHE97      -0.0042
    126  CE1      -27.2050  -30.7750  -19.6100 C.ar   97  PHE97      -0.0003
    127  CE2      -28.3550  -28.7840  -18.9470 C.ar   97  PHE97      -0.0003
    128  CZ       -27.5810  -29.4710  -19.8660 C.ar   97  PHE97      -0.0000
    129  N        -29.2600  -34.3040  -17.1620 N.am   98  ASP98      -0.1974
    130  CA       -29.1000  -35.3600  -18.1570 C.3    98  ASP98       0.1709
    131  C        -30.3850  -36.1530  -18.3450 C.2    98  ASP98       0.2293
    132  O        -30.6580  -36.6340  -19.4520 O.2    98  ASP98      -0.2864
    133  CB       -27.9500  -36.2830  -17.7640 C.3    98  ASP98       0.1436
    134  CG       -26.6250  -35.5560  -17.6970 C.2    98  ASP98       0.3671
    135  OD1      -26.5210  -34.4530  -18.2710 O.co2  98  ASP98      -0.2456
    136  OD2      -25.6830  -36.0870  -17.0820 O.co2  98  ASP98      -0.2456
    137  N        -29.1750  -29.1100  -12.9860 N.3   138  GLU138     -0.1245
    138  CA       -27.8330  -29.6620  -12.8230 C.3   138  GLU138      0.1567
    139  C        -27.4960  -29.9560  -11.3680 C.2   138  GLU138      0.2260
    140  O        -26.6330  -30.7990  -11.1000 O.2   138  GLU138     -0.2867
    141  CB       -26.7880  -28.6990  -13.3890 C.3   138  GLU138      0.0388
    142  CG       -26.8050  -28.5560  -14.8970 C.3   138  GLU138      0.1160
    143  CD       -25.8580  -27.4750  -15.3790 C.2   138  GLU138      0.3649
    144  OE1      -26.2690  -26.2960  -15.4230 O.co2 138  GLU138     -0.2457
    145  OE2      -24.6990  -27.8030  -15.7010 O.co2 138  GLU138     -0.2457
    146  N        -30.2840  -34.4140   -8.0890 N.3   141  LEU141     -0.1245
    147  CA       -30.0440  -35.8170   -8.3970 C.3   141  LEU141      0.1561
    148  C        -31.3290  -36.6130   -8.2340 C.2   141  LEU141      0.2260
    149  O        -32.1260  -36.3420   -7.3320 O.2   141  LEU141     -0.2867
    150  CB       -28.9600  -36.4060   -7.4920 C.3   141  LEU141      0.0270
    151  CG       -27.5720  -35.7850   -7.6110 C.3   141  LEU141      0.0019
    152  CD1      -26.5730  -36.5700   -6.7740 C.3   141  LEU141      0.0001
    153  CD2      -27.1460  -35.7370   -9.0690 C.3   141  LEU141      0.0001
    154  N        -27.9700  -30.7940   -4.4170 N.3   152  ILE152     -0.1231
    155  CA       -26.5190  -30.8780   -4.2880 C.3   152  ILE152      0.1692
    156  C        -25.9030  -29.5190   -4.5940 C.2   152  ILE152      0.2592
    157  O        -26.5680  -28.5980   -5.0720 O.2   152  ILE152     -0.2718
    158  CB       -25.8870  -31.9470   -5.2100 C.3   152  ILE152      0.0266
    159  CG1      -26.1390  -31.6190   -6.6800 C.3   152  ILE152      0.0019
    160  CG2      -26.4140  -33.3220   -4.8910 C.3   152  ILE152      0.0020
    161  CD1      -25.4620  -32.5810   -7.6410 C.3   152  ILE152      0.0001
    162  N        -24.6010  -29.4220   -4.3120 N.am  153  ASP153     -0.1974
    163  CA       -23.7510  -28.2770   -4.6300 C.3   153  ASP153      0.1709
    164  C        -24.2240  -27.0010   -3.9470 C.2   153  ASP153      0.2293
    165  O        -24.8420  -26.1360   -4.5750 O.2   153  ASP153     -0.2864
    166  CB       -23.6710  -28.0650   -6.1450 C.3   153  ASP153      0.1436
    167  CG       -22.6360  -27.0230   -6.5310 C.2   153  ASP153      0.3671
    168  OD1      -21.6890  -26.8060   -5.7450 O.co2 153  ASP153     -0.2456
    169  OD2      -22.7680  -26.4200   -7.6170 O.co2 153  ASP153     -0.2456
@<TRIPOS>BOND
     1   128   126   ar
     2   128   127   ar
     3   126   124   ar
     4   132   131    2
     5   127   125   ar
     6   121   120    2
     7   124   123   ar
     8   131   130    1
     9   135   134   ar
    10   130   133    1
    11   130   129    1
    12   125   123   ar
    13   133   134    1
    14   134   136   ar
    15   123   122    1
    16   109   107   am
    17   120   129   am
    18   120   119    1
    19   119   122    1
    20   119   118    1
    21   107   108    2
    22   107   106    1
    23   145   143   ar
    24   144   143   ar
    25   143   142    1
    26   106   105    1
    27   117   115   ar
    28   142   141    1
    29   116   115   ar
    30   113   112    2
    31    18    17    1
    32   115   114    1
    33    16    15    2
    34   105   102    1
    35     4     3    2
    36   141   138    1
    37   112   111    1
    38    15    14    1
    39    13    14    1
    40    13    11   am
    41   137   138    1
    42    17    14    1
    43    10    11    1
    44    10     9    1
    45   138   139    1
    46   114   111    1
    47   110   111    1
    48   110   103   am
    49   102   103    1
    50   102   101    1
    51     3     9   am
    52     3     2    1
    53   103   104    2
    54    11    12    2
    55    97    96    2
    56     2     1    1
    57     2     5    1
    58   101    96   am
    59   139   140    2
    60    28    29   ar
    61    28    26   ar
    62    29    27   ar
    63    96    95    1
    64     8     6    1
    65     5     6    1
    66    26    24   ar
    67    27    25   ar
    68     6     7    1
    69    94    95    1
    70    95    98    1
    71    33    32    2
    72    19    20    1
    73   153   151    1
    74    24    25   ar
    75    24    23    1
    76    99    98    1
    77    98   100    1
    78    30    31    1
    79   147   148    1
    80   147   146    1
    81   147   150    1
    82   148   149    2
    83    32    31    1
    84    23    20    1
    85    20    21    1
    86    34    31    1
    87    34    36    1
    88    34    35    1
    89   161   159    1
    90   169   167   ar
    91   151   150    1
    92   151   152    1
    93    21    22    2
    94   159   158    1
    95   167   166    1
    96   167   168   ar
    97    85    84    1
    98    90    89    2
    99   166   163    1
   100    82    81    1
   101    82    83    1
   102    89    88    1
   103    84    83    2
   104    84    86    1
   105   158   160    1
   106   158   155    1
   107    81    80    1
   108   157   156    2
   109   163   162    1
   110   163   164    1
   111   156   162   am
   112   156   155    1
   113   165   164    2
   114    91    88    1
   115    91    92    1
   116    49    50    1
   117    49    48    1
   118   154   155    1
   119    88    87    1
   120    93    92    1
   121    93    87    1
   122    41    38    1
   123    47    46    1
   124    47    48    1
   125    87    78   am
   126    43    46    1
   127    43    44    1
   128    43    42    1
   129    80    77    1
   130    38    39    1
   131    38    37    1
   132    78    77    1
   133    78    79    2
   134    44    45    2
   135    77    76    1
   136    39    40    2
   137    56    58    1
   138    56    55    1
   139    70    69    2
   140    65    64    1
   141    76    69   am
   142    55    57    1
   143    55    52    1
   144    69    68    1
   145    63    64    1
   146    63    60    1
   147    51    52    1
   148    64    66    1
   149    62    61    2
   150    52    53    1
   151    61    60    1
   152    61    67   am
   153    68    67    1
   154    68    71    1
   155    72    71    1
   156    72    73    1
   157    75    73   ar
   158    60    59    1
   159    53    54    2
   160    73    74   ar
