@<TRIPOS>MOLECULE
tmp/5tenC02.pdb
 79 75 0 0 0
SMALL
GASTEIGER

@<TRIPOS>ATOM
      1  N         36.3860  -38.9900   14.1680 N.3     1  MET1       -0.1245
      2  CA        35.0250  -39.1780   14.7660 C.3     1  MET1        0.1570
      3  C         34.9940  -38.7840   16.2690 C.2     1  MET1        0.2261
      4  O         35.6170  -39.4330   17.0960 O.2     1  MET1       -0.2867
      5  CB        34.5110  -40.6080   14.5490 C.3     1  MET1        0.0387
      6  CG        33.0110  -40.6990   14.3990 C.3     1  MET1        0.0595
      7  SD        32.4630  -40.1750   12.7380 S.3     1  MET1       -0.1393
      8  CE        30.6970  -39.9690   13.1810 C.3     1  MET1        0.0692
      9  N         24.5260  -31.9620   16.7180 N.3    21  ALA21      -0.1231
     10  CA        25.4780  -33.1220   16.6920 C.3    21  ALA21       0.1694
     11  C         25.0860  -34.1560   15.6640 C.2    21  ALA21       0.2592
     12  O         25.9330  -34.7480   14.9840 O.2    21  ALA21      -0.2718
     13  CB        25.6150  -33.7280   18.0490 C.3    21  ALA21       0.0304
     14  N         23.7890  -34.3810   15.5530 N.am   22  HIS22      -0.1976
     15  CA        23.2060  -35.3210   14.5440 C.3    22  HIS22       0.1656
     16  C         23.5380  -34.8660   13.1330 C.2    22  HIS22       0.2291
     17  O         23.9100  -35.6540   12.2940 O.2    22  HIS22      -0.2864
     18  CB        21.6710  -35.4760   14.7140 C.3    22  HIS22       0.0771
     19  CG        21.0130  -36.4940   13.8240 C.ar   22  HIS22       0.0820
     20  ND1       21.3880  -37.8130   13.7770 N.ar   22  HIS22      -0.2267
     21  CD2       19.9780  -36.3770   12.9520 C.ar   22  HIS22       0.1154
     22  CE1       20.6690  -38.4450   12.8570 C.ar   22  HIS22       0.1986
     23  NE2       19.7770  -37.6080   12.3790 N.ar   22  HIS22      -0.2212
     24  N         26.1050  -32.9640   12.1470 N.3    24  ASN24      -0.1240
     25  CA        27.5360  -32.9190   11.8870 C.3    24  ASN24       0.1653
     26  C         28.0930  -34.4040   11.6800 C.2    24  ASN24       0.2266
     27  O         28.0600  -35.1310   12.6260 O.2    24  ASN24      -0.2867
     28  CB        28.2460  -32.2020   13.0760 C.3    24  ASN24       0.1155
     29  CG        29.6700  -31.7460   12.7330 C.2    24  ASN24       0.2627
     30  OD1       30.3870  -32.3850   11.9870 O.2    24  ASN24      -0.2716
     31  ND2       30.0560  -30.5940   13.2740 N.am   24  ASN24      -0.0877
     32  N         30.8090  -35.7680   13.9670 N.3    27  ALA27      -0.1231
     33  CA        30.3670  -36.0300   15.3410 C.3    27  ALA27       0.1694
     34  C         29.3290  -37.1660   15.3570 C.2    27  ALA27       0.2592
     35  O         28.4930  -37.2620   14.4370 O.2    27  ALA27      -0.2718
     36  CB        29.8200  -34.7670   15.9900 C.3    27  ALA27       0.0304
     37  N         29.3340  -37.9390   16.4400 N.am   28  LYS28      -0.1966
     38  CA        28.2660  -38.9150   16.7230 C.3    28  LYS28       0.1728
     39  C         27.5480  -38.6030   18.0220 C.2    28  LYS28       0.2616
     40  O         28.1620  -38.1440   18.9970 O.2    28  LYS28      -0.2715
     41  CB        28.8100  -40.3770   16.7540 C.3    28  LYS28       0.0311
     42  CG        27.7710  -41.4310   16.5690 C.3    28  LYS28       0.0038
     43  CD        28.4160  -42.7960   16.7270 C.3    28  LYS28       0.0206
     44  CE        27.4290  -43.8210   17.2820 C.3    28  LYS28       0.1093
     45  NZ        26.8590  -43.4390   18.6330 N.3    28  LYS28      -0.1314
     46  N         26.2220  -38.6340   17.9620 N.am   29  VAL29      -0.1977
     47  CA        25.4240  -38.4710   19.1650 C.3    29  VAL29       0.1596
     48  C         25.6010  -39.8060   19.8800 C.2    29  VAL29       0.2287
     49  O         25.0440  -40.7760   19.4710 O.2    29  VAL29      -0.2864
     50  CB        23.9070  -38.2400   18.9340 C.3    29  VAL29       0.0276
     51  CG1       23.1580  -38.1740   20.3010 C.3    29  VAL29       0.0022
     52  CG2       23.6630  -36.9720   18.1640 C.3    29  VAL29       0.0022
     53  N         14.5490  -42.8660   15.4460 N.3    53  LYS53      -0.1231
     54  CA        15.3450  -43.5730   16.5080 C.3    53  LYS53       0.1693
     55  C         16.8400  -43.6000   16.2090 C.2    53  LYS53       0.2592
     56  O         17.2750  -43.8350   15.0790 O.2    53  LYS53      -0.2718
     57  CB        14.8980  -45.0330   16.8180 C.3    53  LYS53       0.0285
     58  CG        13.6090  -45.2330   17.6080 C.3    53  LYS53       0.0035
     59  CD        13.2490  -46.7190   17.7490 C.3    53  LYS53       0.0206
     60  CE        11.8740  -46.9340   18.4100 C.3    53  LYS53       0.1093
     61  NZ        10.9020  -47.8240   17.6770 N.3    53  LYS53      -0.1314
     62  N         17.6260  -43.3690   17.2520 N.am   54  PHE54      -0.1976
     63  CA        19.1220  -43.3450   17.2040 C.3    54  PHE54       0.1639
     64  C         19.8070  -44.5640   17.8010 C.2    54  PHE54       0.2290
     65  O         21.0220  -44.7470   17.6350 O.2    54  PHE54      -0.2864
     66  CB        19.6700  -42.1130   17.9960 C.3    54  PHE54       0.0560
     67  CG        19.5120  -40.7760   17.3060 C.ar   54  PHE54      -0.0200
     68  CD1       18.8050  -40.6320   16.1260 C.ar   54  PHE54      -0.0042
     69  CD2       20.0620  -39.6470   17.9100 C.ar   54  PHE54      -0.0042
     70  CE1       18.6620  -39.3920   15.5670 C.ar   54  PHE54      -0.0003
     71  CE2       19.9430  -38.4250   17.3480 C.ar   54  PHE54      -0.0003
     72  CZ        19.2370  -38.2850   16.1820 C.ar   54  PHE54      -0.0000
     73  N         20.2220  -44.7890   20.9930 N.3    56  VAL56      -0.1245
     74  CA        20.8680  -44.2320   22.1840 C.3    56  VAL56       0.1561
     75  C         19.7920  -43.7130   23.0960 C.2    56  VAL56       0.2260
     76  O         18.8030  -43.1430   22.6250 O.2    56  VAL56      -0.2867
     77  CB        21.7950  -43.0570   21.8590 C.3    56  VAL56       0.0252
     78  CG1       22.5730  -42.6590   23.1120 C.3    56  VAL56       0.0019
     79  CG2       22.7500  -43.4030   20.7350 C.3    56  VAL56       0.0019
@<TRIPOS>BOND
     1    26    25    1
     2    26    27    2
     3    25    24    1
     4    25    28    1
     5    30    29    2
     6    17    16    2
     7    23    22   ar
     8    23    21   ar
     9    29    28    1
    10    29    31   am
    11     7     8    1
    12     7     6    1
    13    22    20   ar
    14    21    19   ar
    15    16    15    1
    16    20    19   ar
    17    19    18    1
    18    32    33    1
    19     1     2    1
    20     6     5    1
    21    35    34    2
    22    15    18    1
    23    15    14    1
    24     5     2    1
    25     2     3    1
    26    12    11    2
    27    56    55    2
    28    33    34    1
    29    33    36    1
    30    34    37   am
    31    53    54    1
    32    14    11   am
    33    70    68   ar
    34    70    72   ar
    35    11    10    1
    36    68    67   ar
    37    72    71   ar
    38    55    54    1
    39    55    62   am
    40     3     4    2
    41    37    38    1
    42    54    57    1
    43    42    43    1
    44    42    41    1
    45    10     9    1
    46    10    13    1
    47    38    41    1
    48    38    39    1
    49    43    44    1
    50    57    58    1
    51    63    62    1
    52    63    64    1
    53    63    66    1
    54    44    45    1
    55    67    69   ar
    56    67    66    1
    57    71    69   ar
    58    58    59    1
    59    65    64    2
    60    61    60    1
    61    59    60    1
    62    46    39   am
    63    46    47    1
    64    39    40    2
    65    52    50    1
    66    50    47    1
    67    50    51    1
    68    47    48    1
    69    49    48    2
    70    79    77    1
    71    73    74    1
    72    77    74    1
    73    77    78    1
    74    74    75    1
    75    76    75    2
