@<TRIPOS>MOLECULE
tmp/5tenE01.pdb
 115 110 0 0 0
SMALL
GASTEIGER

@<TRIPOS>ATOM
      1  N         22.8740   24.7290   72.4710 N.3    13  MET13      -0.1245
      2  CA        24.2610   24.5130   72.9470 C.3    13  MET13       0.1570
      3  C         25.0610   25.7780   73.1360 C.2    13  MET13       0.2261
      4  O         25.6570   26.0130   74.1880 O.2    13  MET13      -0.2867
      5  CB        24.9980   23.5190   72.0300 C.3    13  MET13       0.0387
      6  CG        24.7100   22.0610   72.3950 C.3    13  MET13       0.0595
      7  SD        24.9910   21.6950   74.1440 S.3    13  MET13      -0.1393
      8  CE        26.7340   21.9420   74.3540 C.3    13  MET13       0.0692
      9  N         27.2510   17.6380   64.5770 N.3   100  THR100     -0.1218
     10  CA        27.0940   16.2930   63.9740 C.3   100  THR100      0.1862
     11  C         26.3810   16.3790   62.6240 C.2   100  THR100      0.2287
     12  O         25.9040   17.4520   62.2370 O.2   100  THR100     -0.2866
     13  CB        26.3110   15.3540   64.8840 C.3   100  THR100      0.1770
     14  OG1       24.9770   15.8060   64.9590 O.3   100  THR100     -0.2211
     15  CG2       26.9450   15.3220   66.2620 C.3   100  THR100      0.0375
     16  N         31.6390   13.0630   69.1410 N.3   123  PRO123     -0.2102
     17  CA        30.1680   13.1200   68.9860 C.3   123  PRO123      0.1504
     18  C         29.4630   13.3990   70.3070 C.2   123  PRO123      0.2575
     19  O         28.2270   13.6980   70.3030 O.2   123  PRO123     -0.2718
     20  CB        29.8160   11.7330   68.4900 C.3   123  PRO123      0.0282
     21  CG        30.9180   10.8500   68.9630 C.3   123  PRO123      0.0208
     22  CD        32.1390   11.6760   69.1900 C.3   123  PRO123      0.0893
     23  N         30.2260   13.3310   71.3980 N.am  124  ASN124     -0.1975
     24  CA        29.6980   13.6120   72.7140 C.3   124  ASN124      0.1688
     25  C         30.7890   14.1220   73.6590 C.2   124  ASN124      0.2292
     26  O         31.8270   13.5150   73.7240 O.2   124  ASN124     -0.2864
     27  CB        29.1020   12.3830   73.2950 C.3   124  ASN124      0.1181
     28  CG        28.0910   12.6890   74.3390 C.2   124  ASN124      0.2629
     29  OD1       28.4150   13.0070   75.5030 O.2   124  ASN124     -0.2716
     30  ND2       26.8340   12.4750   73.9740 N.am  124  ASN124     -0.0877
     31  N         16.2790   11.4580   71.0560 N.3   155  HIS155     -0.1226
     32  CA        16.5040   12.9160   71.2110 C.3   155  HIS155      0.1752
     33  C         15.2590   13.7960   71.0180 C.2   155  HIS155      0.2596
     34  O         14.2480   13.3220   70.4600 O.2   155  HIS155     -0.2718
     35  CB        17.5390   13.4030   70.2390 C.3   155  HIS155      0.0759
     36  CG        18.9270   13.0640   70.6360 C.ar  155  HIS155      0.0818
     37  ND1       19.4680   11.8220   70.3770 N.ar  155  HIS155     -0.2268
     38  CD2       19.8540   13.7490   71.3300 C.ar  155  HIS155      0.1154
     39  CE1       20.6760   11.7580   70.8970 C.ar  155  HIS155      0.1986
     40  NE2       20.9440   12.9240   71.4580 N.ar  155  HIS155     -0.2212
     41  N         15.3460   15.0320   71.5290 N.am  156  HIS156     -0.1975
     42  CA        14.3170   16.0860   71.3800 C.3   156  HIS156      0.1656
     43  C         13.8570   16.3220   69.9220 C.2   156  HIS156      0.2291
     44  O         14.5850   15.9670   68.9690 O.2   156  HIS156     -0.2864
     45  CB        14.8470   17.4230   71.9080 C.3   156  HIS156      0.0771
     46  CG        16.0700   17.9020   71.1850 C.ar  156  HIS156      0.0820
     47  ND1       16.0160   18.6010   69.9990 N.ar  156  HIS156     -0.2267
     48  CD2       17.3850   17.7210   71.4530 C.ar  156  HIS156      0.1154
     49  CE1       17.2430   18.8850   69.6040 C.ar  156  HIS156      0.1986
     50  NE2       18.0950   18.3310   70.4510 N.ar  156  HIS156     -0.2212
     51  N         16.1170   17.9090   66.7730 N.3   159  LYS159     -0.1245
     52  CA        17.3110   17.2980   66.1920 C.3   159  LYS159      0.1561
     53  C         17.0320   16.9310   64.7410 C.2   159  LYS159      0.2260
     54  O         16.0790   16.2610   64.4290 O.2   159  LYS159     -0.2867
     55  CB        17.7840   16.1100   66.9960 C.3   159  LYS159      0.0271
     56  CG        19.1230   15.5570   66.5270 C.3   159  LYS159      0.0035
     57  CD        19.7000   14.5660   67.4980 C.3   159  LYS159      0.0206
     58  CE        21.0490   14.0370   67.0220 C.3   159  LYS159      0.1093
     59  NZ        22.0440   15.0860   66.7010 N.3   159  LYS159     -0.1314
     60  N         21.7840    9.7030   65.9030 N.3   164  SER164     -0.1202
     61  CA        22.7120   10.5780   66.5710 C.3   164  SER164      0.2020
     62  C         24.1270   10.2460   66.2400 C.2   164  SER164      0.2619
     63  O         24.4570    9.1110   65.9430 O.2   164  SER164     -0.2717
     64  CB        22.5060   10.5400   68.0840 C.3   164  SER164      0.2103
     65  OG        22.8750    9.3650   68.7240 O.3   164  SER164     -0.2182
     66  N         24.9720   11.2430   66.2580 N.am  165  GLY165     -0.1942
     67  CA        26.4190   11.0530   66.1450 C.3   165  GLY165      0.2014
     68  C         27.0010   10.2490   67.2870 C.2   165  GLY165      0.2639
     69  O         27.9630    9.5050   67.0990 O.2   165  GLY165     -0.2714
     70  N         26.4410   10.4010   68.4760 N.am  166  THR166     -0.1950
     71  CA        26.7890    9.5600   69.6210 C.3   166  THR166      0.1897
     72  C         26.4500    8.0800   69.3470 C.2   166  THR166      0.2313
     73  O         27.2270    7.1810   69.6920 O.2   166  THR166     -0.2863
     74  CB        26.1130   10.0490   70.9050 C.3   166  THR166      0.1794
     75  OG1       26.6330   11.3380   71.2240 O.3   166  THR166     -0.2208
     76  CG2       26.3920    9.1600   72.0780 C.3   166  THR166      0.0378
     77  N         16.9400   15.5890   76.1110 N.3   213  VAL213     -0.1245
     78  CA        18.3220   16.0200   75.9990 C.3   213  VAL213      0.1561
     79  C         19.2050   14.9390   75.3660 C.2   213  VAL213      0.2260
     80  O         20.0350   15.2430   74.5300 O.2   213  VAL213     -0.2867
     81  CB        18.8750   16.4660   77.3560 C.3   213  VAL213      0.0252
     82  CG1       20.3840   16.6600   77.3120 C.3   213  VAL213      0.0019
     83  CG2       18.2690   17.7910   77.7430 C.3   213  VAL213      0.0019
     84  N         20.8600    7.1950   75.1590 N.3   216  HIS216     -0.1241
     85  CA        21.4670    6.1190   74.4070 C.3   216  HIS216      0.1621
     86  C         21.5100    4.7840   75.1790 C.2   216  HIS216      0.2264
     87  O         21.8390    4.7150   76.3580 O.2   216  HIS216     -0.2867
     88  CB        22.8420    6.5010   73.9830 C.3   216  HIS216      0.0745
     89  CG        22.8550    7.6820   73.0910 C.ar  216  HIS216      0.0817
     90  ND1       22.9210    8.9710   73.5780 N.ar  216  HIS216     -0.2268
     91  CD2       22.8130    7.7780   71.7320 C.ar  216  HIS216      0.1154
     92  CE1       22.9460    9.8010   72.5430 C.ar  216  HIS216      0.1986
     93  NE2       22.8610    9.1080   71.4150 N.ar  216  HIS216     -0.2212
     94  N         22.2080   20.1790   79.1510 N.3   236  ARG236     -0.1245
     95  CA        23.2010   20.4610   78.1290 C.3   236  ARG236      0.1563
     96  C         24.5160   20.8500   78.7780 C.2   236  ARG236      0.2260
     97  O         25.5840   20.5870   78.2400 O.2   236  ARG236     -0.2867
     98  CB        22.6890   21.4510   77.0910 C.3   236  ARG236      0.0307
     99  CG        22.0910   20.7410   75.8880 C.3   236  ARG236      0.0489
    100  CD        21.2740   21.6640   75.0080 C.3   236  ARG236      0.2205
    101  NE        19.8560   21.5990   75.3300 N.pl3 236  ARG236     -0.0865
    102  CZ        18.9510   20.9780   74.5850 C.cat 236  ARG236      0.5346
    103  NH1       19.3160   20.3740   73.4700 N.pl3 236  ARG236      0.1354
    104  NH2       17.6810   20.9670   74.9530 N.pl3 236  ARG236      0.1354
    105  N         27.3790   18.5960   78.4300 N.3   239  PHE239     -0.1241
    106  CA        28.1530   18.7770   77.1850 C.3   239  PHE239      0.1605
    107  C         29.0360   20.0100   77.1950 C.2   239  PHE239      0.2264
    108  O         30.2080   19.9770   76.8270 O.2   239  PHE239     -0.2867
    109  CB        27.2630   18.8510   75.9410 C.3   239  PHE239      0.0534
    110  CG        26.2350   17.7640   75.8820 C.ar  239  PHE239     -0.0203
    111  CD1       26.5770   16.4360   76.1320 C.ar  239  PHE239     -0.0042
    112  CD2       24.9080   18.0710   75.5890 C.ar  239  PHE239     -0.0042
    113  CE1       25.6270   15.4850   76.0960 C.ar  239  PHE239     -0.0003
    114  CE2       23.9560   17.0730   75.5360 C.ar  239  PHE239     -0.0003
    115  CZ        24.3210   15.7970   75.7910 C.ar  239  PHE239     -0.0000
@<TRIPOS>BOND
     1    12    11    2
     2    11    10    1
     3    10     9    1
     4    10    13    1
     5    54    53    2
     6    53    52    1
     7    13    14    1
     8    13    15    1
     9    60    61    1
    10    63    62    2
    11    67    66    1
    12    67    68    1
    13    52    51    1
    14    52    55    1
    15    62    66   am
    16    62    61    1
    17    56    55    1
    18    56    57    1
    19    61    64    1
    20    59    58    1
    21    58    57    1
    22    69    68    2
    23    68    70   am
    24    64    65    1
    25    70    71    1
    26    20    21    1
    27    20    17    1
    28    21    22    1
    29    44    43    2
    30    17    16    1
    31    17    18    1
    32    16    22    1
    33    72    71    1
    34    72    73    2
    35    49    47   ar
    36    49    50   ar
    37    71    74    1
    38    43    42    1
    39    47    46   ar
    40    35    36    1
    41    35    32    1
    42    19    18    2
    43    18    23   am
    44    37    36   ar
    45    37    39   ar
    46    50    48   ar
    47    34    33    2
    48    36    38   ar
    49    39    40   ar
    50    74    75    1
    51    74    76    1
    52    33    32    1
    53    33    41   am
    54    31    32    1
    55    46    48   ar
    56    46    45    1
    57    38    40   ar
    58    42    41    1
    59    42    45    1
    60    23    24    1
    61    93    91   ar
    62    93    92   ar
    63    91    89   ar
    64     5     6    1
    65     5     2    1
    66     6     7    1
    67     1     2    1
    68    92    90   ar
    69    24    27    1
    70    24    25    1
    71     2     3    1
    72    89    90   ar
    73    89    88    1
    74     3     4    2
    75    27    28    1
    76   103   102    1
    77    25    26    2
    78    30    28   am
    79    88    85    1
    80     7     8    1
    81    28    29    2
    82    85    84    1
    83    85    86    1
    84    80    79    2
    85   102   104    1
    86   102   101    2
    87   100   101    1
    88   100    99    1
    89    86    87    2
    90    79    78    1
    91   114   112   ar
    92   114   115   ar
    93   112   110   ar
    94   115   113   ar
    95   110   109    1
    96   110   111   ar
    97    99    98    1
    98   109   106    1
    99    78    77    1
   100    78    81    1
   101   113   111   ar
   102   108   107    2
   103    98    95    1
   104   106   107    1
   105   106   105    1
   106    82    81    1
   107    81    83    1
   108    95    96    1
   109    95    94    1
   110    97    96    2
