@<TRIPOS>MOLECULE
tmp/5terA00.pdb
 192 189 0 0 0
SMALL
GASTEIGER

@<TRIPOS>ATOM
      1  N        352.6890  -23.7820  144.1690 N.3    90  PRO90      -0.2116
      2  CA       353.2230  -24.4340  142.9660 C.3    90  PRO90       0.1372
      3  C        352.1700  -25.2350  142.2120 C.2    90  PRO90       0.2244
      4  O        351.4550  -26.0340  142.8150 O.2    90  PRO90      -0.2868
      5  CB       354.3090  -25.3580  143.5220 C.3    90  PRO90       0.0268
      6  CG       354.7370  -24.7080  144.7860 C.3    90  PRO90       0.0207
      7  CD       353.4970  -24.0890  145.3630 C.3    90  PRO90       0.0892
      8  N        355.9120  -28.3300  137.0060 N.3    95  LEU95      -0.1231
      9  CA       357.0520  -29.1260  137.4500 C.3    95  LEU95       0.1693
     10  C        357.7540  -29.8280  136.2900 C.2    95  LEU95       0.2592
     11  O        357.1150  -30.2380  135.3230 O.2    95  LEU95      -0.2718
     12  CB       356.6010  -30.1540  138.4860 C.3    95  LEU95       0.0284
     13  CG       355.8750  -29.5700  139.6980 C.3    95  LEU95       0.0019
     14  CD1      355.5230  -30.6590  140.6990 C.3    95  LEU95       0.0001
     15  CD2      356.7190  -28.4900  140.3530 C.3    95  LEU95       0.0001
     16  N        359.0740  -29.9560  136.3930 N.am   96  LYS96      -0.1966
     17  CA       359.8660  -30.6380  135.3730 C.3    96  LYS96       0.1728
     18  C        360.1670  -32.0690  135.8100 C.2    96  LYS96       0.2616
     19  O        360.6440  -32.2920  136.9210 O.2    96  LYS96      -0.2715
     20  CB       361.1670  -29.8800  135.1040 C.3    96  LYS96       0.0311
     21  CG       360.9840  -28.3920  134.8460 C.3    96  LYS96       0.0038
     22  CD       362.3260  -27.6810  134.7280 C.3    96  LYS96       0.0206
     23  CE       362.1470  -26.1800  134.5510 C.3    96  LYS96       0.1093
     24  NZ       363.4490  -25.4560  134.5240 N.3    96  LYS96      -0.1314
     25  N        359.8980  -33.0290  134.9290 N.am   97  LYS97      -0.1963
     26  CA       360.0150  -34.4500  135.2610 C.3    97  LYS97       0.1728
     27  C        361.4060  -34.8290  135.7710 C.2    97  LYS97       0.2616
     28  O        362.4170  -34.5360  135.1300 O.2    97  LYS97      -0.2715
     29  CB       359.6660  -35.3080  134.0420 C.3    97  LYS97       0.0311
     30  CG       359.3390  -36.7570  134.3690 C.3    97  LYS97       0.0038
     31  CD       359.3380  -37.6240  133.1170 C.3    97  LYS97       0.0206
     32  CE       358.4790  -37.0210  132.0170 C.3    97  LYS97       0.1093
     33  NZ       358.4980  -37.8560  130.7820 N.3    97  LYS97      -0.1314
     34  N        361.4460  -35.4820  136.9290 N.am   98  LYS98      -0.1977
     35  CA       362.7060  -35.9140  137.5250 C.3    98  LYS98       0.1596
     36  C        362.7220  -37.4230  137.7570 C.2    98  LYS98       0.2287
     37  O        361.7100  -38.0150  138.1380 O.2    98  LYS98      -0.2864
     38  CB       362.9590  -35.1730  138.8400 C.3    98  LYS98       0.0298
     39  CG       363.1250  -33.6720  138.6760 C.3    98  LYS98       0.0038
     40  CD       364.1930  -33.3510  137.6440 C.3    98  LYS98       0.0206
     41  CE       364.3410  -31.8530  137.4400 C.3    98  LYS98       0.1093
     42  NZ       365.3590  -31.5410  136.3980 N.3    98  LYS98      -0.1314
     43  N        362.6570  -38.5090  143.1300 N.3   101  VAL101     -0.1245
     44  CA       362.0730  -37.4410  143.9400 C.3   101  VAL101      0.1561
     45  C        361.8290  -37.8820  145.3890 C.2   101  VAL101      0.2260
     46  O        361.3860  -39.0030  145.6400 O.2   101  VAL101     -0.2867
     47  CB       360.7360  -36.9450  143.3460 C.3   101  VAL101      0.0252
     48  CG1      360.2880  -35.7010  144.0600 C.3   101  VAL101      0.0019
     49  CG2      360.8650  -36.6640  141.8540 C.3   101  VAL101      0.0019
     50  N        360.2870  -36.5300  149.3710 N.3   103  VAL103     -0.1245
     51  CA       359.5430  -35.5830  150.1940 C.3   103  VAL103      0.1561
     52  C        359.9920  -35.6540  151.6520 C.2   103  VAL103      0.2260
     53  O        360.0090  -36.7310  152.2490 O.2   103  VAL103     -0.2867
     54  CB       358.0270  -35.8450  150.1240 C.3   103  VAL103      0.0252
     55  CG1      357.2920  -35.0160  151.1650 C.3   103  VAL103      0.0019
     56  CG2      357.5020  -35.5550  148.7260 C.3   103  VAL103      0.0019
     57  N        367.3920  -30.2400  142.4930 N.3   174  VAL174     -0.1245
     58  CA       366.5000  -29.1000  142.6450 C.3   174  VAL174      0.1561
     59  C        365.6650  -29.2410  143.9120 C.2   174  VAL174      0.2260
     60  O        365.0950  -30.2990  144.1710 O.2   174  VAL174     -0.2867
     61  CB       365.5620  -28.9520  141.4290 C.3   174  VAL174      0.0252
     62  CG1      364.7590  -27.6760  141.5340 C.3   174  VAL174      0.0019
     63  CG2      366.3600  -28.9720  140.1320 C.3   174  VAL174      0.0019
     64  N        362.5220  -27.6220  146.2510 N.3   176  TYR176     -0.1241
     65  CA       361.3780  -26.7330  146.3920 C.3   176  TYR176      0.1605
     66  C        360.9680  -26.6550  147.8550 C.2   176  TYR176      0.2264
     67  O        360.8810  -27.6710  148.5440 O.2   176  TYR176     -0.2867
     68  CB       360.2090  -27.2100  145.5280 C.3   176  TYR176      0.0534
     69  CG       360.4910  -27.1570  144.0440 C.ar  176  TYR176     -0.0201
     70  CD1      361.4260  -26.2690  143.5280 C.ar  176  TYR176     -0.0009
     71  CD2      359.8270  -27.9970  143.1590 C.ar  176  TYR176     -0.0009
     72  CE1      361.6890  -26.2150  142.1720 C.ar  176  TYR176      0.0417
     73  CE2      360.0850  -27.9520  141.8000 C.ar  176  TYR176      0.0417
     74  CZ       361.0180  -27.0600  141.3120 C.ar  176  TYR176      0.1957
     75  OH       361.2810  -27.0100  139.9620 O.3   176  TYR176     -0.2866
     76  N        357.4420  -28.5450  154.6360 N.3   181  ASP181     -0.1239
     77  CA       357.8490  -29.6030  153.7180 C.3   181  ASP181      0.1674
     78  C        358.9030  -29.1460  152.7110 C.2   181  ASP181      0.2266
     79  O        358.9020  -27.9970  152.2530 O.2   181  ASP181     -0.2867
     80  CB       356.6310  -30.1530  152.9670 C.3   181  ASP181      0.1410
     81  CG       355.5910  -30.7550  153.8940 C.2   181  ASP181      0.3668
     82  OD1      355.9670  -31.2470  154.9780 O.co2 181  ASP181     -0.2456
     83  OD2      354.3940  -30.7390  153.5350 O.co2 181  ASP181     -0.2456
     84  N        360.8030  -30.5390  149.0060 N.3   183  TYR183     -0.1227
     85  CA       360.6860  -31.4760  147.8960 C.3   183  TYR183      0.1736
     86  C        361.9590  -31.4810  147.0610 C.2   183  TYR183      0.2595
     87  O        362.2810  -30.4920  146.4070 O.2   183  TYR183     -0.2718
     88  CB       359.4820  -31.1250  147.0200 C.3   183  TYR183      0.0548
     89  CG       358.2280  -30.8140  147.8040 C.ar  183  TYR183     -0.0200
     90  CD1      357.6660  -31.7560  148.6550 C.ar  183  TYR183     -0.0009
     91  CD2      357.6010  -29.5790  147.6890 C.ar  183  TYR183     -0.0009
     92  CE1      356.5190  -31.4770  149.3750 C.ar  183  TYR183      0.0417
     93  CE2      356.4520  -29.2910  148.4050 C.ar  183  TYR183      0.0417
     94  CZ       355.9170  -30.2450  149.2460 C.ar  183  TYR183      0.1957
     95  OH       354.7740  -29.9690  149.9610 O.3   183  TYR183     -0.2866
     96  N        362.6860  -32.5920  147.0810 N.am  184  VAL184     -0.1966
     97  CA       363.9380  -32.6690  146.3360 C.3   184  VAL184      0.1727
     98  C        363.7830  -33.5430  145.1000 C.2   184  VAL184      0.2616
     99  O        363.1820  -34.6070  145.1590 O.2   184  VAL184     -0.2715
    100  CB       365.0750  -33.2180  147.2040 C.3   184  VAL184      0.0290
    101  CG1      366.4180  -32.8470  146.6010 C.3   184  VAL184      0.0023
    102  CG2      364.9600  -32.6760  148.6160 C.3   184  VAL184      0.0023
    103  N        364.3240  -33.0870  143.9780 N.am  185  GLY185     -0.1955
    104  CA       364.2090  -33.8250  142.7350 C.3   185  GLY185      0.1869
    105  C        365.5100  -33.8290  141.9620 C.2   185  GLY185      0.2309
    106  O        366.2820  -32.8730  142.0280 O.2   185  GLY185     -0.2863
    107  N        355.9630  -40.6650  153.0990 N.3   218  LYS218     -0.1245
    108  CA       355.1430  -40.4540  151.9160 C.3   218  LYS218      0.1561
    109  C        355.8690  -40.8670  150.6380 C.2   218  LYS218      0.2260
    110  O        356.9370  -40.3480  150.3100 O.2   218  LYS218     -0.2867
    111  CB       354.6980  -38.9930  151.8340 C.3   218  LYS218      0.0271
    112  CG       353.7400  -38.6070  152.9490 C.3   218  LYS218      0.0035
    113  CD       352.6170  -39.6310  153.0600 C.3   218  LYS218      0.0206
    114  CE       351.9700  -39.6110  154.4340 C.3   218  LYS218      0.1093
    115  NZ       351.0010  -40.7300  154.6000 N.3   218  LYS218     -0.1314
    116  N        355.0090  -42.0600  146.3220 N.3   220  PRO220     -0.2116
    117  CA       354.0000  -41.8430  145.2740 C.3   220  PRO220      0.1372
    118  C        352.8810  -42.8870  145.2790 C.2   220  PRO220      0.2244
    119  O        353.1360  -44.0480  145.6010 O.2   220  PRO220     -0.2868
    120  CB       354.8170  -41.9230  143.9740 C.3   220  PRO220      0.0268
    121  CG       356.1150  -42.5680  144.3540 C.3   220  PRO220      0.0207
    122  CD       356.3680  -42.1440  145.7600 C.3   220  PRO220      0.0892
    123  N        351.5120  -38.9090  145.5160 N.3   222  PHE222     -0.1227
    124  CA       351.4200  -37.9100  146.5770 C.3   222  PHE222      0.1736
    125  C        350.0860  -37.1710  146.5450 C.2   222  PHE222      0.2595
    126  O        349.6720  -36.6720  145.5030 O.2   222  PHE222     -0.2718
    127  CB       352.5670  -36.9050  146.4630 C.3   222  PHE222      0.0547
    128  CG       353.9260  -37.5390  146.4050 C.ar  222  PHE222     -0.0202
    129  CD1      354.5470  -37.7670  145.1890 C.ar  222  PHE222     -0.0042
    130  CD2      354.5860  -37.9020  147.5670 C.ar  222  PHE222     -0.0042
    131  CE1      355.8010  -38.3470  145.1330 C.ar  222  PHE222     -0.0003
    132  CE2      355.8380  -38.4820  147.5170 C.ar  222  PHE222     -0.0003
    133  CZ       356.4460  -38.7030  146.2990 C.ar  222  PHE222     -0.0000
    134  N        349.4180  -37.1010  147.6910 N.am  223  LEU223     -0.1966
    135  CA       348.1590  -36.3720  147.7960 C.3   223  LEU223      0.1728
    136  C        348.3970  -35.0150  148.4480 C.2   223  LEU223      0.2616
    137  O        348.6240  -34.9290  149.6560 O.2   223  LEU223     -0.2715
    138  CB       347.1340  -37.1790  148.5930 C.3   223  LEU223      0.0311
    139  CG       346.8230  -38.5790  148.0580 C.3   223  LEU223      0.0022
    140  CD1      345.8630  -39.3060  148.9860 C.3   223  LEU223      0.0001
    141  CD2      346.2570  -38.5080  146.6480 C.3   223  LEU223      0.0001
    142  N        348.3400  -33.9540  147.6490 N.am  224  TRP224     -0.1974
    143  CA       348.7490  -32.6390  148.1330 C.3   224  TRP224      0.1640
    144  C        347.9030  -31.5010  147.5690 C.2   224  TRP224      0.2290
    145  O        347.8910  -31.2650  146.3610 O.2   224  TRP224     -0.2864
    146  CB       350.2270  -32.4140  147.8020 C.3   224  TRP224      0.0576
    147  CG       350.7310  -31.0350  148.0920 C.ar  224  TRP224      0.0006
    148  CD1      351.1410  -30.5480  149.2990 C.ar  224  TRP224      0.0946
    149  CD2      350.9020  -29.9710  147.1490 C.ar  224  TRP224      0.0152
    150  NE1      351.5480  -29.2420  149.1670 N.ar  224  TRP224     -0.2442
    151  CE2      351.4110  -28.8650  147.8570 C.ar  224  TRP224      0.0810
    152  CE3      350.6700  -29.8460  145.7760 C.ar  224  TRP224      0.0012
    153  CZ2      351.6900  -27.6480  147.2380 C.ar  224  TRP224      0.0191
    154  CZ3      350.9480  -28.6370  145.1630 C.ar  224  TRP224      0.0001
    155  CH2      351.4530  -27.5550  145.8940 C.ar  224  TRP224      0.0015
    156  N        349.7840  -36.3640  142.6390 N.3   229  LEU229     -0.1231
    157  CA       351.0610  -36.3130  141.9440 C.3   229  LEU229      0.1693
    158  C        351.6280  -37.7140  141.7300 C.2   229  LEU229      0.2592
    159  O        351.9990  -38.4020  142.6830 O.2   229  LEU229     -0.2718
    160  CB       352.0570  -35.4500  142.7210 C.3   229  LEU229      0.0284
    161  CG       351.6200  -34.0130  143.0160 C.3   229  LEU229      0.0019
    162  CD1      352.6480  -33.3020  143.8830 C.3   229  LEU229      0.0001
    163  CD2      351.3840  -33.2470  141.7260 C.3   229  LEU229      0.0001
    164  N        351.6820  -38.1250  140.4670 N.am  230  HIS230     -0.1962
    165  CA       352.2450  -39.4120  140.0760 C.3   230  HIS230      0.1772
    166  C        353.6190  -39.1910  139.4410 C.2   230  HIS230      0.2462
    167  O        353.9580  -38.0610  139.0930 O.2   230  HIS230     -0.2730
    168  CB       351.2960  -40.1300  139.1140 C.3   230  HIS230      0.0785
    169  CG       349.9590  -40.4430  139.7140 C.ar  230  HIS230      0.0821
    170  ND1      349.6480  -41.6800  140.2330 N.ar  230  HIS230     -0.2267
    171  CD2      348.8590  -39.6730  139.8860 C.ar  230  HIS230      0.1154
    172  CE1      348.4090  -41.6620  140.6950 C.ar  230  HIS230      0.1986
    173  NE2      347.9100  -40.4570  140.4970 N.ar  230  HIS230     -0.2212
    174  N        354.4260  -40.2580  139.3110 N.am  231  PRO231     -0.2727
    175  CA       355.7690  -40.0750  138.7460 C.3   231  PRO231      0.1402
    176  C        355.8010  -39.4550  137.3480 C.2   231  PRO231      0.2269
    177  O        356.5840  -38.5350  137.1200 O.2   231  PRO231     -0.2865
    178  CB       356.3190  -41.5030  138.7020 C.3   231  PRO231      0.0296
    179  CG       355.6410  -42.1860  139.8300 C.3   231  PRO231      0.0237
    180  CD       354.2520  -41.6100  139.8760 C.3   231  PRO231      0.0939
    181  N        353.9680  -33.4100  132.7900 N.3   313  TYR313     -0.1241
    182  CA       354.8610  -32.4110  133.3660 C.3   313  TYR313      0.1605
    183  C        355.5220  -31.5840  132.2700 C.2   313  TYR313      0.2264
    184  O        355.3610  -31.8700  131.0840 O.2   313  TYR313     -0.2867
    185  CB       355.9220  -33.0710  134.2490 C.3   313  TYR313      0.0534
    186  CG       355.3600  -33.7000  135.5040 C.ar  313  TYR313     -0.0201
    187  CD1      355.4310  -35.0730  135.7080 C.ar  313  TYR313     -0.0009
    188  CD2      354.7460  -32.9220  136.4790 C.ar  313  TYR313     -0.0009
    189  CE1      354.9130  -35.6530  136.8530 C.ar  313  TYR313      0.0417
    190  CE2      354.2240  -33.4920  137.6270 C.ar  313  TYR313      0.0417
    191  CZ       354.3100  -34.8580  137.8090 C.ar  313  TYR313      0.1957
    192  OH       353.7910  -35.4280  138.9490 O.3   313  TYR313     -0.2866
@<TRIPOS>BOND
     1    33    32    1
     2   184   183    2
     3    32    31    1
     4   183   182    1
     5   181   182    1
     6    31    30    1
     7   182   185    1
     8    29    30    1
     9    29    26    1
    10   185   186    1
    11    24    23    1
    12    23    22    1
    13    22    21    1
    14    21    20    1
    15    25    26    1
    16    25    18   am
    17    20    17    1
    18    28    27    2
    19    26    27    1
    20    11    10    2
    21    17    18    1
    22    17    16    1
    23   186   187   ar
    24   186   188   ar
    25   187   189   ar
    26    27    34   am
    27    18    19    2
    28    10    16   am
    29    10     9    1
    30    42    41    1
    31   188   190   ar
    32   189   191   ar
    33    34    35    1
    34     8     9    1
    35   177   176    2
    36   176   175    1
    37    41    40    1
    38     9    12    1
    39    35    36    1
    40    35    38    1
    41   190   191   ar
    42    40    39    1
    43    36    37    2
    44   191   192    1
    45    12    13    1
    46    39    38    1
    47   178   175    1
    48   178   179    1
    49   175   174    1
    50   167   166    2
    51   168   169    1
    52   168   165    1
    53   174   166   am
    54   174   180    1
    55   166   165    1
    56    13    15    1
    57    13    14    1
    58   169   171   ar
    59   169   170   ar
    60   179   180    1
    61   171   173   ar
    62    75    74    1
    63   165   164    1
    64    63    61    1
    65   170   172   ar
    66   164   158   am
    67   173   172   ar
    68    74    73   ar
    69    74    72   ar
    70    61    62    1
    71    61    58    1
    72   163   161    1
    73   158   157    1
    74   158   159    2
    75    73    71   ar
    76    49    47    1
    77   157   156    1
    78   157   160    1
    79   105   106    2
    80   105   104    1
    81    72    70   ar
    82     3     4    2
    83     3     2    1
    84    57    58    1
    85    58    59    1
    86   160   161    1
    87   104   103    1
    88     2     5    1
    89     2     1    1
    90   161   162    1
    91    43    44    1
    92    71    69   ar
    93    47    44    1
    94    47    48    1
    95     5     6    1
    96    70    69   ar
    97    59    60    2
    98    44    45    1
    99   120   121    1
   100   120   117    1
   101   103    98   am
   102    69    68    1
   103     1     7    1
   104   121   122    1
   105     6     7    1
   106    98    99    2
   107    98    97    1
   108   131   129   ar
   109   131   133   ar
   110   154   152   ar
   111   154   155   ar
   112   129   128   ar
   113   117   118    1
   114   117   116    1
   115   118   119    2
   116    45    46    2
   117   126   125    2
   118   123   124    1
   119    68    65    1
   120   122   116    1
   121   152   149   ar
   122   155   153   ar
   123    64    65    1
   124   133   132   ar
   125    97    96    1
   126    97   100    1
   127   145   144    2
   128    65    66    1
   129   128   127    1
   130   128   130   ar
   131    87    86    2
   132   127   124    1
   133   125   124    1
   134   125   134   am
   135   101   100    1
   136   141   139    1
   137    88    89    1
   138    88    85    1
   139    86    96   am
   140    86    85    1
   141   149   151   ar
   142   149   147   ar
   143   100   102    1
   144   153   151   ar
   145   132   130   ar
   146   144   143    1
   147   142   143    1
   148   142   136   am
   149    91    89   ar
   150    91    93   ar
   151   134   135    1
   152   135   136    1
   153   135   138    1
   154   146   147    1
   155   146   143    1
   156    89    90   ar
   157    66    67    2
   158   151   150   ar
   159    85    84    1
   160   139   138    1
   161   139   140    1
   162   147   148   ar
   163    93    94   ar
   164   136   137    2
   165    90    92   ar
   166    56    54    1
   167   150   148   ar
   168    94    92   ar
   169    94    95    1
   170    50    51    1
   171    54    51    1
   172    54    55    1
   173    51    52    1
   174   110   109    2
   175   109   108    1
   176    52    53    2
   177   111   108    1
   178   111   112    1
   179   108   107    1
   180    79    78    2
   181    78    77    1
   182   112   113    1
   183    80    77    1
   184    80    81    1
   185   113   114    1
   186    83    81   ar
   187    77    76    1
   188    81    82   ar
   189   114   115    1
