@<TRIPOS>MOLECULE
tmp/5teuB00.pdb
 85 81 0 0 0
SMALL
GASTEIGER

@<TRIPOS>ATOM
      1  N          4.2530  -26.5200  -37.0710 N.3   117  ASN117     -0.1240
      2  CA         3.6680  -26.6640  -35.7440 C.3   117  ASN117      0.1653
      3  C          4.5200  -25.8810  -34.7580 C.2   117  ASN117      0.2266
      4  O          5.5240  -26.3800  -34.2440 O.2   117  ASN117     -0.2867
      5  CB         3.5730  -28.1530  -35.3640 C.3   117  ASN117      0.1155
      6  CG         2.9740  -28.3770  -33.9840 C.2   117  ASN117      0.2627
      7  OD1        2.4330  -27.4610  -33.3750 O.2   117  ASN117     -0.2716
      8  ND2        3.0790  -29.6100  -33.4840 N.am  117  ASN117     -0.0877
      9  N          4.9690  -25.1170  -31.6560 N.3   119  THR119     -0.1203
     10  CA         4.5920  -25.4940  -30.3090 C.3   119  THR119      0.1994
     11  C          5.8510  -25.6670  -29.4720 C.2   119  THR119      0.2618
     12  O          6.9600  -25.6560  -30.0000 O.2   119  THR119     -0.2717
     13  CB         3.7330  -26.7970  -30.3370 C.3   119  THR119      0.1784
     14  OG1        3.0630  -26.9630  -29.0830 O.3   119  THR119     -0.2211
     15  CG2        4.5880  -28.0170  -30.6490 C.3   119  THR119      0.0376
     16  N          5.6970  -25.7970  -28.1600 N.am  120  TRP120     -0.1961
     17  CA         6.8550  -26.0010  -27.3100 C.3   120  TRP120      0.1771
     18  C          7.5610  -27.3070  -27.6540 C.2   120  TRP120      0.2620
     19  O          6.9190  -28.3470  -27.8710 O.2   120  TRP120     -0.2715
     20  CB         6.4450  -25.9960  -25.8360 C.3   120  TRP120      0.0590
     21  CG         6.3820  -24.6180  -25.2520 C.ar  120  TRP120      0.0006
     22  CD1        5.2590  -23.8420  -25.0760 C.ar  120  TRP120      0.0946
     23  CD2        7.4870  -23.8430  -24.7610 C.ar  120  TRP120      0.0152
     24  NE1        5.6090  -22.6400  -24.5030 N.ar  120  TRP120     -0.2442
     25  CE2        6.9630  -22.6130  -24.3000 C.ar  120  TRP120      0.0810
     26  CE3        8.8700  -24.0660  -24.6730 C.ar  120  TRP120      0.0012
     27  CZ2        7.7690  -21.6140  -23.7520 C.ar  120  TRP120      0.0191
     28  CZ3        9.6770  -23.0680  -24.1270 C.ar  120  TRP120      0.0001
     29  CH2        9.1190  -21.8510  -23.6770 C.ar  120  TRP120      0.0015
     30  N          8.8820  -27.2400  -27.7150 N.am  121  GLY121     -0.1954
     31  CA         9.6730  -28.4040  -28.0690 C.3   121  GLY121      0.1869
     32  C         11.1050  -28.2710  -27.6100 C.2   121  GLY121      0.2309
     33  O         11.4670  -27.3540  -26.8720 O.2   121  GLY121     -0.2863
     34  N         11.8850  -36.5820  -30.8670 N.3   137  LEU137     -0.1245
     35  CA        11.9620  -36.6930  -29.4140 C.3   137  LEU137      0.1561
     36  C         12.1540  -38.1510  -28.9630 C.2   137  LEU137      0.2260
     37  O         12.7940  -38.4070  -27.9480 O.2   137  LEU137     -0.2867
     38  CB        10.7200  -36.0840  -28.7660 C.3   137  LEU137      0.0270
     39  CG        10.7380  -34.5570  -28.8030 C.3   137  LEU137      0.0019
     40  CD1        9.4040  -34.0100  -28.3090 C.3   137  LEU137      0.0001
     41  CD2       11.9030  -34.0330  -27.9600 C.3   137  LEU137      0.0001
     42  N          8.8100  -23.9180  -31.5200 N.3   210  GLY210     -0.1225
     43  CA         9.3520  -24.5500  -32.7080 C.3   210  GLY210      0.1811
     44  C          9.9150  -23.6390  -33.7860 C.2   210  GLY210      0.2280
     45  O         10.8630  -24.0200  -34.4590 O.2   210  GLY210     -0.2866
     46  N         15.1720  -28.3780  -34.1730 N.3   222  VAL222     -0.1231
     47  CA        14.0480  -28.8160  -33.3600 C.3   222  VAL222      0.1692
     48  C         13.7210  -30.2790  -33.6280 C.2   222  VAL222      0.2592
     49  O         13.6230  -30.6920  -34.7840 O.2   222  VAL222     -0.2718
     50  CB        12.8130  -27.9540  -33.6360 C.3   222  VAL222      0.0266
     51  CG1       11.6250  -28.4560  -32.8520 C.3   222  VAL222      0.0020
     52  CG2       13.1210  -26.5110  -33.2560 C.3   222  VAL222      0.0020
     53  N         13.5640  -31.0490  -32.5560 N.am  223  LEU223     -0.1966
     54  CA        13.2140  -32.4700  -32.6670 C.3   223  LEU223      0.1728
     55  C         11.7250  -32.6700  -32.8770 C.2   223  LEU223      0.2616
     56  O         10.9020  -32.0090  -32.2460 O.2   223  LEU223     -0.2715
     57  CB        13.6570  -33.2120  -31.4140 C.3   223  LEU223      0.0311
     58  CG        15.1440  -33.0950  -31.1040 C.3   223  LEU223      0.0022
     59  CD1       15.3800  -33.5760  -29.6900 C.3   223  LEU223      0.0001
     60  CD2       15.9540  -33.9040  -32.1010 C.3   223  LEU223      0.0001
     61  N         11.3760  -33.6140  -33.7430 N.am  224  GLU224     -0.1963
     62  CA         9.9790  -33.8980  -34.0260 C.3   224  GLU224      0.1733
     63  C          9.2270  -34.4420  -32.8120 C.2   224  GLU224      0.2616
     64  O          9.6970  -35.3560  -32.1350 O.2   224  GLU224     -0.2715
     65  CB         9.8720  -34.9000  -35.1810 C.3   224  GLU224      0.0429
     66  CG         8.4350  -35.1840  -35.5950 C.3   224  GLU224      0.1163
     67  CD         8.2770  -36.4990  -36.3440 C.2   224  GLU224      0.3649
     68  OE1        9.2950  -37.1890  -36.5740 O.co2 224  GLU224     -0.2457
     69  OE2        7.1280  -36.8430  -36.7000 O.co2 224  GLU224     -0.2457
     70  N          8.0470  -33.8850  -32.5530 N.am  225  ASP225     -0.1971
     71  CA         7.1740  -34.3690  -31.4970 C.3   225  ASP225      0.1709
     72  C          6.4060  -35.5880  -32.0160 C.2   225  ASP225      0.2293
     73  O          5.2050  -35.5150  -32.2640 O.2   225  ASP225     -0.2864
     74  CB         6.2210  -33.2430  -31.0650 C.3   225  ASP225      0.1436
     75  CG         5.3640  -33.6110  -29.8780 C.2   225  ASP225      0.3671
     76  OD1        5.6400  -34.6340  -29.2130 O.co2 225  ASP225     -0.2456
     77  OD2        4.4150  -32.8490  -29.6000 O.co2 225  ASP225     -0.2456
     78  N          8.1730  -25.5860  -40.9600 N.3   263  LEU263     -0.1245
     79  CA         8.8500  -25.1840  -39.7260 C.3   263  LEU263      0.1561
     80  C         10.1980  -24.5220  -39.9650 C.2   263  LEU263      0.2260
     81  O         10.4720  -23.4610  -39.4060 O.2   263  LEU263     -0.2867
     82  CB         9.0370  -26.3910  -38.8000 C.3   263  LEU263      0.0270
     83  CG         9.4470  -26.0130  -37.3690 C.3   263  LEU263      0.0019
     84  CD1        8.2130  -25.7150  -36.5330 C.3   263  LEU263      0.0001
     85  CD2       10.3040  -27.0990  -36.7210 C.3   263  LEU263      0.0001
@<TRIPOS>BOND
     1    78    79    1
     2    80    79    1
     3    80    81    2
     4    79    82    1
     5    82    83    1
     6    83    85    1
     7    83    84    1
     8     1     2    1
     9    69    67   ar
    10    68    67   ar
    11    67    66    1
    12     2     5    1
    13     2     3    1
    14    66    65    1
    15     5     6    1
    16    65    62    1
    17    49    48    2
    18     3     4    2
    19    45    44    2
    20    46    47    1
    21    62    61    1
    22    62    63    1
    23     6     8   am
    24     6     7    2
    25    44    43    1
    26    61    55   am
    27    50    47    1
    28    50    52    1
    29    50    51    1
    30    48    47    1
    31    48    53   am
    32    55    54    1
    33    55    56    2
    34    63    70   am
    35    63    64    2
    36    43    42    1
    37    54    53    1
    38    54    57    1
    39    70    71    1
    40    73    72    2
    41    60    58    1
    42    72    71    1
    43     9    10    1
    44    71    74    1
    45    57    58    1
    46    58    59    1
    47    74    75    1
    48    34    35    1
    49    15    13    1
    50    13    10    1
    51    13    14    1
    52    10    11    1
    53    12    11    2
    54    75    77   ar
    55    75    76   ar
    56    11    16   am
    57    35    36    1
    58    35    38    1
    59    36    37    2
    60    39    38    1
    61    39    40    1
    62    39    41    1
    63    16    17    1
    64    31    30    1
    65    31    32    1
    66    19    18    2
    67    30    18   am
    68    18    17    1
    69    32    33    2
    70    17    20    1
    71    20    21    1
    72    21    22   ar
    73    21    23   ar
    74    22    24   ar
    75    23    26   ar
    76    23    25   ar
    77    26    28   ar
    78    24    25   ar
    79    25    27   ar
    80    28    29   ar
    81    27    29   ar
