@<TRIPOS>MOLECULE
tmp/5tewA00.pdb
 135 130 0 0 0
SMALL
GASTEIGER

@<TRIPOS>ATOM
      1  N        -16.9710   13.0710    1.7720 N.3     4  LEU4       -0.1231
      2  CA       -15.8930   12.5480    0.9510 C.3     4  LEU4        0.1693
      3  C        -16.4500   11.5670   -0.0690 C.2     4  LEU4        0.2593
      4  O        -17.2610   10.7010    0.2670 O.2     4  LEU4       -0.2718
      5  CB       -14.8290   11.8770    1.8260 C.3     4  LEU4        0.0284
      6  CG       -13.5340   11.4900    1.1120 C.3     4  LEU4        0.0019
      7  CD1      -12.3550   11.6780    2.0380 C.3     4  LEU4        0.0001
      8  CD2      -13.5600   10.0360    0.5840 C.3     4  LEU4        0.0001
      9  N        -15.9970   11.6950   -1.3100 N.am    5  THR5       -0.1939
     10  CA       -16.5080   10.8970   -2.4110 C.3     5  THR5        0.2028
     11  C        -15.3630   10.5060   -3.3260 C.2     5  THR5        0.2643
     12  O        -14.4810   11.3240   -3.6150 O.2     5  THR5       -0.2714
     13  CB       -17.5530   11.6770   -3.2260 C.3     5  THR5        0.1808
     14  OG1      -18.5590   12.2060   -2.3500 O.3     5  THR5       -0.2208
     15  CG2      -18.1780   10.7860   -4.2870 C.3     5  THR5        0.0379
     16  N        -15.3890    9.2590   -3.7780 N.am    6  GLY6       -0.1939
     17  CA       -14.5040    8.7720   -4.8290 C.3     6  GLY6        0.2014
     18  C        -15.2740    8.6060   -6.1290 C.2     6  GLY6        0.2639
     19  O        -16.4500    8.2310   -6.1180 O.2     6  GLY6       -0.2714
     20  N        -14.6280    8.9360   -7.2480 N.am    7  VAL7       -0.1963
     21  CA       -15.2470    8.7260   -8.5420 C.3     7  VAL7        0.1727
     22  C        -14.2740    7.9230   -9.3670 C.2     7  VAL7        0.2616
     23  O        -13.0560    8.0650   -9.2330 O.2     7  VAL7       -0.2715
     24  CB       -15.6390   10.0310   -9.2770 C.3     7  VAL7        0.0290
     25  CG1      -16.5330   10.9080   -8.3970 C.3     7  VAL7        0.0023
     26  CG2      -14.4140   10.7800   -9.7450 C.3     7  VAL7        0.0023
     27  N        -14.8190    7.0460  -10.1970 N.am    8  THR8       -0.1951
     28  CA       -13.9750    6.1780  -10.9860 C.3     8  THR8        0.1897
     29  C        -13.4640    6.9340  -12.1940 C.2     8  THR8        0.2313
     30  O        -14.0710    7.9010  -12.6460 O.2     8  THR8       -0.2863
     31  CB       -14.7360    4.9300  -11.4150 C.3     8  THR8        0.1794
     32  OG1      -15.9710    5.3090  -12.0360 O.3     8  THR8       -0.2208
     33  CG2      -15.0360    4.0850  -10.1870 C.3     8  THR8        0.0378
     34  N        -12.1250   12.8300   -4.8280 N.3    39  PHE39      -0.1241
     35  CA       -10.9160   12.3600   -5.4760 C.3    39  PHE39       0.1605
     36  C        -11.2530   11.4680   -6.6500 C.2    39  PHE39       0.2264
     37  O        -12.3270   10.8530   -6.7170 O.2    39  PHE39      -0.2867
     38  CB        -9.9790   11.6040   -4.5160 C.3    39  PHE39       0.0534
     39  CG       -10.4870   10.2560   -4.0810 C.ar   39  PHE39      -0.0203
     40  CD1      -11.3600   10.1440   -3.0070 C.ar   39  PHE39      -0.0042
     41  CD2      -10.0760    9.1010   -4.7300 C.ar   39  PHE39      -0.0042
     42  CE1      -11.8340    8.9130   -2.5890 C.ar   39  PHE39      -0.0003
     43  CE2      -10.5460    7.8670   -4.3170 C.ar   39  PHE39      -0.0003
     44  CZ       -11.4320    7.7730   -3.2370 C.ar   39  PHE39      -0.0000
     45  N        -10.4790    8.0580   -8.2360 N.3    41  ALA41      -0.1245
     46  CA       -10.0070    6.7450   -7.8070 C.3    41  ALA41       0.1562
     47  C         -9.2140    6.0390   -8.9130 C.2    41  ALA41       0.2260
     48  O         -9.5170    4.9140   -9.3180 O.2    41  ALA41      -0.2867
     49  CB       -11.1900    5.8980   -7.3550 C.3    41  ALA41       0.0290
     50  N         -7.8970    2.4930   -8.3470 N.3    44  HIS44      -0.1241
     51  CA        -8.9220    1.4620   -8.5010 C.3    44  HIS44       0.1621
     52  C         -9.0960    1.0380   -9.9530 C.2    44  HIS44       0.2264
     53  O         -9.5860   -0.0660  -10.2220 O.2    44  HIS44      -0.2867
     54  CB       -10.2430    1.9660   -7.9330 C.3    44  HIS44       0.0745
     55  CG       -10.2470    2.0440   -6.4380 C.ar   44  HIS44       0.0817
     56  ND1      -10.5700    0.9640   -5.6350 N.ar   44  HIS44      -0.2268
     57  CD2       -9.9280    3.0560   -5.5960 C.ar   44  HIS44       0.1154
     58  CE1      -10.4720    1.3170   -4.3660 C.ar   44  HIS44       0.1986
     59  NE2      -10.0770    2.5770   -4.3150 N.ar   44  HIS44      -0.2212
     60  N         -9.6110   -4.6110   -2.8170 N.3   135  TYR135     -0.1241
     61  CA        -9.9670   -3.2140   -2.9820 C.3   135  TYR135      0.1605
     62  C        -10.9060   -2.6820   -1.9020 C.2   135  TYR135      0.2264
     63  O        -10.8180   -1.4740   -1.6240 O.2   135  TYR135     -0.2867
     64  CB       -10.5420   -2.9910   -4.3810 C.3   135  TYR135      0.0534
     65  CG       -12.0210   -3.1590   -4.5300 C.ar  135  TYR135     -0.0201
     66  CD1      -12.8920   -2.1160   -4.2360 C.ar  135  TYR135     -0.0009
     67  CD2      -12.5500   -4.3340   -5.0350 C.ar  135  TYR135     -0.0009
     68  CE1      -14.2510   -2.2630   -4.3880 C.ar  135  TYR135      0.0417
     69  CE2      -13.9240   -4.4890   -5.2140 C.ar  135  TYR135      0.0417
     70  CZ       -14.7660   -3.4500   -4.8840 C.ar  135  TYR135      0.1957
     71  OH       -16.1150   -3.5940   -5.0570 O.3   135  TYR135     -0.2866
     72  N        -10.4560    1.0880   -0.4620 N.3   139  MET139     -0.1245
     73  CA       -11.5800    2.0120   -0.3300 C.3   139  MET139      0.1570
     74  C        -11.7580    2.4810    1.1110 C.2   139  MET139      0.2261
     75  O        -12.0900    3.6520    1.3640 O.2   139  MET139     -0.2867
     76  CB       -12.8560    1.3450   -0.8230 C.3   139  MET139      0.0387
     77  CG       -14.0930    2.1710   -0.6310 C.3   139  MET139      0.0595
     78  SD       -15.3460    1.6990   -1.8400 S.3   139  MET139     -0.1393
     79  CE       -16.6290    2.8900   -1.4520 C.3   139  MET139      0.0692
     80  N         -9.0260    4.9960    1.6020 N.3   142  ASP142     -0.1225
     81  CA        -9.4410    6.2290    0.9390 C.3   142  ASP142      0.1805
     82  C        -10.3060    7.0980    1.8450 C.2   142  ASP142      0.2597
     83  O        -10.1990    8.3300    1.8250 O.2   142  ASP142     -0.2718
     84  CB       -10.2250    5.8980   -0.3220 C.3   142  ASP142      0.1424
     85  CG        -9.3630    5.3420   -1.4270 C.2   142  ASP142      0.3668
     86  OD1       -8.1710    5.6870   -1.5140 O.co2 142  ASP142     -0.2456
     87  OD2       -9.9000    4.5620   -2.2330 O.co2 142  ASP142     -0.2456
     88  N        -11.1780    6.4690    2.6260 N.am  143  ILE143     -0.1980
     89  CA       -12.1430    7.1730    3.4570 C.3   143  ILE143      0.1595
     90  C        -11.5380    7.5570    4.7970 C.2   143  ILE143      0.2287
     91  O        -11.5360    8.7300    5.1850 O.2   143  ILE143     -0.2864
     92  CB       -13.3930    6.2820    3.6420 C.3   143  ILE143      0.0276
     93  CG1      -14.0790    6.0320    2.3060 C.3   143  ILE143      0.0022
     94  CG2      -14.3590    6.8720    4.6550 C.3   143  ILE143      0.0022
     95  CD1      -15.2160    5.0380    2.4110 C.3   143  ILE143      0.0001
     96  N        -20.0800    9.7950    3.6550 N.3   151  VAL151     -0.1231
     97  CA       -19.5680    9.3680    2.3630 C.3   151  VAL151      0.1678
     98  C        -20.7600    9.2030    1.4360 C.2   151  VAL151      0.2434
     99  O        -21.5470    8.2640    1.5720 O.2   151  VAL151     -0.2733
    100  CB       -18.7310    8.0770    2.4860 C.3   151  VAL151      0.0265
    101  CG1      -18.2960    7.5420    1.1280 C.3   151  VAL151      0.0020
    102  CG2      -17.5010    8.3660    3.3330 C.3   151  VAL151      0.0020
    103  N        -20.9930   10.1580    0.5380 N.am  152  PRO152     -0.2718
    104  CA       -22.1420   10.0530   -0.3720 C.3   152  PRO152      0.1535
    105  C        -21.9160    8.8920   -1.3220 C.2   152  PRO152      0.2598
    106  O        -20.9490    8.8810   -2.0780 O.2   152  PRO152     -0.2715
    107  CB       -22.1470   11.3940   -1.1120 C.3   152  PRO152      0.0310
    108  CG       -21.2000   12.2640   -0.3600 C.3   152  PRO152      0.0237
    109  CD       -20.2210   11.3860    0.3150 C.3   152  PRO152      0.0939
    110  N        -22.7960    7.9030   -1.2580 N.am  153  VAL153     -0.1978
    111  CA       -22.6910    6.7080   -2.0790 C.3   153  VAL153      0.1596
    112  C        -24.0730    6.3880   -2.6180 C.2   153  VAL153      0.2287
    113  O        -25.0900    6.8370   -2.0870 O.2   153  VAL153     -0.2864
    114  CB       -22.1380    5.4920   -1.3020 C.3   153  VAL153      0.0276
    115  CG1      -20.6640    5.6620   -1.0280 C.3   153  VAL153      0.0022
    116  CG2      -22.9230    5.2760    0.0030 C.3   153  VAL153      0.0022
    117  N        -23.3100    1.0150   -3.1640 N.3   157  GLN157     -0.1245
    118  CA       -22.0500    1.1220   -2.4410 C.3   157  GLN157      0.1566
    119  C        -22.1930    1.0560   -0.9200 C.2   157  GLN157      0.2260
    120  O        -21.1960    1.2420   -0.2140 O.2   157  GLN157     -0.2867
    121  CB       -21.3440    2.4190   -2.8280 C.3   157  GLN157      0.0367
    122  CG       -21.0500    2.5360   -4.3080 C.3   157  GLN157      0.0905
    123  CD       -19.9920    1.5540   -4.7580 C.2   157  GLN157      0.2608
    124  OE1      -19.0580    1.2280   -4.0100 O.2   157  GLN157     -0.2717
    125  NE2      -20.1350    1.0630   -5.9820 N.am  157  GLN157     -0.0878
    126  N        -19.8410   -0.9910    1.1530 N.3   160  HIS160     -0.1241
    127  CA       -18.4630   -0.5180    1.2130 C.3   160  HIS160      0.1621
    128  C        -18.2300    0.4300    2.3910 C.2   160  HIS160      0.2264
    129  O        -17.1650    0.3970    3.0220 O.2   160  HIS160     -0.2867
    130  CB       -18.1040    0.1430   -0.1110 C.3   160  HIS160      0.0745
    131  CG       -17.7180   -0.8340   -1.1740 C.ar  160  HIS160      0.0817
    132  ND1      -17.8560   -0.5690   -2.5210 N.ar  160  HIS160     -0.2268
    133  CD2      -17.1970   -2.0810   -1.0870 C.ar  160  HIS160      0.1154
    134  CE1      -17.4330   -1.6100   -3.2160 C.ar  160  HIS160      0.1986
    135  NE2      -17.0310   -2.5410   -2.3700 N.ar  160  HIS160     -0.2212
@<TRIPOS>BOND
     1    30    29    2
     2    29    28    1
     3    32    31    1
     4    31    28    1
     5    31    33    1
     6    28    27    1
     7    53    52    2
     8    27    22   am
     9    52    51    1
    10    26    24    1
    11    22    23    2
    12    22    21    1
    13    48    47    2
    14    24    21    1
    15    24    25    1
    16    47    46    1
    17    21    20    1
    18    51    50    1
    19    51    54    1
    20    45    46    1
    21    54    55    1
    22    46    49    1
    23    20    18   am
    24    37    36    2
    25    36    35    1
    26    55    56   ar
    27    55    57   ar
    28    18    19    2
    29    18    17    1
    30   125   123   am
    31    56    58   ar
    32    57    59   ar
    33    35    34    1
    34    35    38    1
    35    69    67   ar
    36    69    70   ar
    37    71    70    1
    38    67    65   ar
    39    70    68   ar
    40    17    16    1
    41   123   122    1
    42   123   124    2
    43    41    43   ar
    44    41    39   ar
    45    65    64    1
    46    65    66   ar
    47    38    39    1
    48    68    66   ar
    49    64    61    1
    50    58    59   ar
    51    43    44   ar
    52   122   121    1
    53    15    13    1
    54    39    40   ar
    55    16    11   am
    56    12    11    2
    57    11    10    1
    58    44    42   ar
    59    13    10    1
    60    13    14    1
    61   134   132   ar
    62   134   135   ar
    63   117   118    1
    64    40    42   ar
    65    61    60    1
    66    61    62    1
    67   121   118    1
    68   112   113    2
    69   112   111    1
    70   132   131   ar
    71   118   119    1
    72    10     9    1
    73   135   133   ar
    74    87    85   ar
    75   111   114    1
    76   111   110    1
    77   106   105    2
    78    62    63    2
    79    78    79    1
    80    78    77    1
    81    86    85   ar
    82    85    84    1
    83   105   110   am
    84   105   104    1
    85     9     3   am
    86   114   115    1
    87   114   116    1
    88   131   133   ar
    89   131   130    1
    90   107   104    1
    91   107   108    1
    92   119   120    2
    93    76    77    1
    94    76    73    1
    95    72    73    1
    96   104   103    1
    97   108   109    1
    98    73    74    1
    99    84    81    1
   100   130   127    1
   101     3     4    2
   102     3     2    1
   103   109   103    1
   104   103    98   am
   105     8     6    1
   106    81    80    1
   107    81    82    1
   108     2     1    1
   109     2     5    1
   110    74    75    2
   111     6     5    1
   112     6     7    1
   113   101   100    1
   114   126   127    1
   115   127   128    1
   116    98    99    2
   117    98    97    1
   118    83    82    2
   119    82    88   am
   120    93    95    1
   121    93    92    1
   122    97   100    1
   123    97    96    1
   124   128   129    2
   125   100   102    1
   126    88    89    1
   127    89    92    1
   128    89    90    1
   129    92    94    1
   130    90    91    2
