@<TRIPOS>MOLECULE
tmp/5texA00.pdb
 173 164 0 0 0
SMALL
GASTEIGER

@<TRIPOS>ATOM
      1  N         80.8000   39.4890    4.3030 N.3    12  LEU12      -0.1231
      2  CA        79.4300   39.3890    4.7960 C.3    12  LEU12       0.1693
      3  C         79.1450   38.0530    5.4580 C.2    12  LEU12       0.2593
      4  O         78.1900   37.9540    6.2330 O.2    12  LEU12      -0.2718
      5  CB        78.4140   39.6110    3.6710 C.3    12  LEU12       0.0284
      6  CG        78.4200   40.9990    3.0350 C.3    12  LEU12       0.0019
      7  CD1       77.6130   41.0220    1.7420 C.3    12  LEU12       0.0001
      8  CD2       77.8910   42.0420    4.0250 C.3    12  LEU12       0.0001
      9  N         79.9450   37.0350    5.1810 N.am   13  GLY13      -0.1942
     10  CA        79.7440   35.7520    5.8080 C.3    13  GLY13       0.2014
     11  C         80.6860   34.6990    5.2710 C.2    13  GLY13       0.2640
     12  O         81.2830   34.8680    4.2020 O.2    13  GLY13      -0.2714
     13  N         80.8430   33.6150    6.0290 N.am   14  SER14      -0.1935
     14  CA        81.5470   32.4400    5.5600 C.3    14  SER14       0.2055
     15  C         80.8260   31.2190    6.1010 C.2    14  SER14       0.2643
     16  O         80.0540   31.3060    7.0550 O.2    14  SER14      -0.2714
     17  CB        83.0220   32.4350    5.9750 C.3    14  SER14       0.2130
     18  OG        83.1730   32.2190    7.3710 O.3    14  SER14      -0.2179
     19  N         81.0790   30.0800    5.4700 N.am   15  GLY15      -0.1954
     20  CA        80.3740   28.8630    5.8240 C.3    15  GLY15       0.1869
     21  C         80.6440   27.7810    4.7940 C.2    15  GLY15       0.2309
     22  O         81.6480   27.8250    4.0790 O.2    15  GLY15      -0.2863
     23  N         79.2760   27.4140    2.0660 N.3    17  PHE17      -0.1241
     24  CA        79.2370   28.0150    0.7390 C.3    17  PHE17       0.1605
     25  C         80.5310   28.7300    0.3630 C.2    17  PHE17       0.2264
     26  O         80.6220   29.2400   -0.7530 O.2    17  PHE17      -0.2867
     27  CB        78.0870   29.0160    0.6750 C.3    17  PHE17       0.0534
     28  CG        78.1430   30.0640    1.7600 C.ar   17  PHE17      -0.0203
     29  CD1       79.0090   31.1500    1.6640 C.ar   17  PHE17      -0.0042
     30  CD2       77.3370   29.9600    2.8810 C.ar   17  PHE17      -0.0042
     31  CE1       79.0600   32.1060    2.6630 C.ar   17  PHE17      -0.0003
     32  CE2       77.3890   30.9130    3.8840 C.ar   17  PHE17      -0.0003
     33  CZ        78.2510   31.9910    3.7700 C.ar   17  PHE17      -0.0000
     34  N         81.7310   35.1370    1.4260 N.3    20  VAL20      -0.1245
     35  CA        81.0030   36.0970    0.6060 C.3    20  VAL20       0.1561
     36  C         81.3180   37.5040    1.0850 C.2    20  VAL20       0.2260
     37  O         81.1950   37.8010    2.2790 O.2    20  VAL20      -0.2867
     38  CB        79.4890   35.8430    0.6460 C.3    20  VAL20       0.0252
     39  CG1       78.7990   36.7040   -0.3950 C.3    20  VAL20       0.0019
     40  CG2       79.2270   34.4110    0.3290 C.3    20  VAL20       0.0019
     41  N         77.4700   40.5920   -4.7190 N.3    33  ALA33      -0.1245
     42  CA        78.0830   39.7370   -3.7190 C.3    33  ALA33       0.1562
     43  C         79.1860   38.9440   -4.3970 C.2    33  ALA33       0.2260
     44  O         78.9680   38.3540   -5.4610 O.2    33  ALA33      -0.2867
     45  CB        77.0530   38.7990   -3.0740 C.3    33  ALA33       0.0290
     46  N         81.6850   35.8960   -4.0600 N.3    35  LYS35      -0.1245
     47  CA        81.7460   34.6640   -3.2770 C.3    35  LYS35       0.1561
     48  C         82.9150   33.8110   -3.7440 C.2    35  LYS35       0.2260
     49  O         83.0180   33.4980   -4.9380 O.2    35  LYS35      -0.2867
     50  CB        80.4450   33.8680   -3.3950 C.3    35  LYS35       0.0271
     51  CG        80.4320   32.5930   -2.5740 C.3    35  LYS35       0.0035
     52  CD        79.0000   32.1050   -2.3710 C.3    35  LYS35       0.0206
     53  CE        78.5440   31.2130   -3.5140 C.3    35  LYS35       0.1093
     54  NZ        79.1270   29.8540   -3.2990 N.3    35  LYS35      -0.1314
     55  N         68.7640   34.2060   -6.5800 N.3    72  ILE72      -0.1245
     56  CA        69.8890   35.1310   -6.7240 C.3    72  ILE72       0.1561
     57  C         70.6690   34.7440   -7.9730 C.2    72  ILE72       0.2260
     58  O         71.1880   33.6240   -8.0680 O.2    72  ILE72      -0.2867
     59  CB        70.7820   35.1200   -5.4810 C.3    72  ILE72       0.0252
     60  CG1       70.1050   35.8300   -4.2980 C.3    72  ILE72       0.0019
     61  CG2       72.1200   35.7960   -5.7730 C.3    72  ILE72       0.0019
     62  CD1       70.1690   37.3300   -4.3560 C.3    72  ILE72       0.0001
     63  N         77.5250   37.5290   -7.7490 N.3    88  LEU88      -0.1231
     64  CA        76.0960   37.3150   -7.5960 C.3    88  LEU88       0.1693
     65  C         75.4120   38.6380   -7.2990 C.2    88  LEU88       0.2592
     66  O         76.0340   39.5850   -6.8070 O.2    88  LEU88      -0.2718
     67  CB        75.8150   36.3230   -6.4660 C.3    88  LEU88       0.0284
     68  CG        76.4220   34.9550   -6.6990 C.3    88  LEU88       0.0019
     69  CD1       76.7140   34.2860   -5.3790 C.3    88  LEU88       0.0001
     70  CD2       75.4540   34.1220   -7.5120 C.3    88  LEU88       0.0001
     71  N         74.1170   38.7070   -7.5820 N.am   89  GLU89      -0.1966
     72  CA        73.4320   39.9390   -7.2330 C.3    89  GLU89       0.1733
     73  C         73.3450   40.0680   -5.7200 C.2    89  GLU89       0.2616
     74  O         73.5050   39.1010   -4.9720 O.2    89  GLU89      -0.2715
     75  CB        72.0430   40.0260   -7.8750 C.3    89  GLU89       0.0429
     76  CG        71.2970   38.7330   -8.0280 C.3    89  GLU89       0.1163
     77  CD        69.9740   38.8990   -8.7780 C.2    89  GLU89       0.3649
     78  OE1       69.7270   39.9900   -9.3500 O.co2  89  GLU89      -0.2457
     79  OE2       69.1790   37.9310   -8.7810 O.co2  89  GLU89      -0.2457
     80  N         73.1550   41.2870   -5.2750 N.am   90  ARG90      -0.1964
     81  CA        73.0560   41.5470   -3.8510 C.3    90  ARG90       0.1714
     82  C         71.9740   42.5900   -3.6220 C.2    90  ARG90       0.2458
     83  O         72.1630   43.7640   -3.9600 O.2    90  ARG90      -0.2730
     84  CB        74.4000   42.0150   -3.2810 C.3    90  ARG90       0.0347
     85  CG        74.3020   42.5830   -1.8780 C.3    90  ARG90       0.0492
     86  CD        75.6750   42.7660   -1.2540 C.3    90  ARG90       0.2205
     87  NE        76.4400   43.8490   -1.8760 N.pl3  90  ARG90      -0.0865
     88  CZ        76.2620   45.1390   -1.6010 C.cat  90  ARG90       0.5346
     89  NH1       75.3330   45.5130   -0.7260 N.pl3  90  ARG90       0.1354
     90  NH2       77.0110   46.0610   -2.1960 N.pl3  90  ARG90       0.1354
     91  N         70.8190   42.1920   -3.0980 N.am   91  PRO91      -0.2727
     92  CA        69.8180   43.1810   -2.6940 C.3    91  PRO91       0.1402
     93  C         70.3160   43.9870   -1.5100 C.2    91  PRO91       0.2269
     94  O         71.1600   43.5350   -0.7310 O.2    91  PRO91      -0.2865
     95  CB        68.5980   42.3330   -2.3080 C.3    91  PRO91       0.0296
     96  CG        68.9360   40.9130   -2.6860 C.3    91  PRO91       0.0237
     97  CD        70.4220   40.8190   -2.7540 C.3    91  PRO91       0.0939
     98  N         69.3640   43.6720    2.8810 N.3    94  VAL94      -0.1231
     99  CA        69.0620   42.2550    2.7690 C.3    94  VAL94       0.1692
    100  C         69.2820   41.6000    4.1230 C.2    94  VAL94       0.2592
    101  O         70.1590   42.0000    4.8950 O.2    94  VAL94      -0.2718
    102  CB        69.9250   41.5730    1.6760 C.3    94  VAL94       0.0266
    103  CG1       71.4020   41.6000    2.0520 C.3    94  VAL94       0.0020
    104  CG2       69.4550   40.1460    1.4160 C.3    94  VAL94       0.0020
    105  N         68.4630   40.5950    4.4160 N.am   95  GLN95      -0.1966
    106  CA        68.6500   39.7730    5.5970 C.3    95  GLN95       0.1733
    107  C         68.3460   38.3230    5.2570 C.2    95  GLN95       0.2616
    108  O         67.3630   38.0260    4.5740 O.2    95  GLN95      -0.2715
    109  CB        67.7610   40.2200    6.7580 C.3    95  GLN95       0.0408
    110  CG        68.0670   39.4780    8.0440 C.3    95  GLN95       0.0908
    111  CD        67.2290   39.9400    9.2220 C.2    95  GLN95       0.2608
    112  OE1       66.1490   40.5010    9.0490 O.2    95  GLN95      -0.2717
    113  NE2       67.7330   39.7160   10.4330 N.am   95  GLN95      -0.0878
    114  N         69.2090   37.4410    5.7360 N.am   96  ASP96      -0.1971
    115  CA        69.0000   36.0020    5.6770 C.3    96  ASP96       0.1709
    116  C         67.7650   35.5960    6.4890 C.2    96  ASP96       0.2293
    117  O         67.5240   36.1190    7.5800 O.2    96  ASP96      -0.2864
    118  CB        70.2630   35.3370    6.2240 C.3    96  ASP96       0.1436
    119  CG        70.3180   33.8620    5.9610 C.2    96  ASP96       0.3671
    120  OD1       70.8410   33.4680    4.8980 O.co2  96  ASP96      -0.2456
    121  OD2       69.8710   33.0920    6.8390 O.co2  96  ASP96      -0.2456
    122  N         67.0820   32.8410    8.1010 N.3    98  PHE98      -0.1227
    123  CA        67.4300   32.2540    9.3940 C.3    98  PHE98       0.1736
    124  C         67.6220   33.3330   10.4550 C.2    98  PHE98       0.2595
    125  O         67.1150   33.2170   11.5780 O.2    98  PHE98      -0.2718
    126  CB        68.6950   31.4100    9.2570 C.3    98  PHE98       0.0547
    127  CG        69.1610   30.8040   10.5490 C.ar   98  PHE98      -0.0202
    128  CD1       70.0030   31.5100   11.4050 C.ar   98  PHE98      -0.0042
    129  CD2       68.7840   29.5220   10.9010 C.ar   98  PHE98      -0.0042
    130  CE1       70.4340   30.9600   12.6010 C.ar   98  PHE98      -0.0003
    131  CE2       69.2140   28.9620   12.0980 C.ar   98  PHE98      -0.0003
    132  CZ        70.0390   29.6890   12.9530 C.ar   98  PHE98      -0.0000
    133  N         68.3700   34.3870   10.1200 N.am   99  ASP99      -0.1974
    134  CA        68.5630   35.4850   11.0620 C.3    99  ASP99       0.1709
    135  C         67.2530   36.2110   11.3300 C.2    99  ASP99       0.2293
    136  O         66.9840   36.6120   12.4650 O.2    99  ASP99      -0.2864
    137  CB        69.6110   36.4720   10.5390 C.3    99  ASP99       0.1436
    138  CG        70.9610   35.8230   10.2850 C.2    99  ASP99       0.3671
    139  OD1       71.3730   34.9510   11.0780 O.co2  99  ASP99      -0.2456
    140  OD2       71.6220   36.1910    9.2870 O.co2  99  ASP99      -0.2456
    141  N         68.3700   29.2450    6.0970 N.3   139  GLU139     -0.1245
    142  CA        69.6960   29.8210    5.8650 C.3   139  GLU139      0.1567
    143  C         69.9970   30.0940    4.3990 C.2   139  GLU139      0.2260
    144  O         70.8780   30.9150    4.1050 O.2   139  GLU139     -0.2867
    145  CB        70.7910   28.9000    6.3820 C.3   139  GLU139      0.0388
    146  CG        70.8390   28.7400    7.8810 C.3   139  GLU139      0.1160
    147  CD        71.9910   27.8620    8.2850 C.2   139  GLU139      0.3649
    148  OE1       71.7650   26.6450    8.4440 O.co2 139  GLU139     -0.2457
    149  OE2       73.1300   28.3820    8.3860 O.co2 139  GLU139     -0.2457
    150  N         67.1520   34.5750    1.1360 N.3   142  LEU142     -0.1245
    151  CA        67.4010   35.9700    1.4510 C.3   142  LEU142      0.1561
    152  C         66.1120   36.7620    1.3160 C.2   142  LEU142      0.2260
    153  O         65.2760   36.4680    0.4630 O.2   142  LEU142     -0.2867
    154  CB        68.4660   36.5750    0.5300 C.3   142  LEU142      0.0270
    155  CG        69.8150   35.8750    0.5060 C.3   142  LEU142      0.0019
    156  CD1       70.7840   36.7240   -0.2830 C.3   142  LEU142      0.0001
    157  CD2       70.3120   35.6670    1.9270 C.3   142  LEU142      0.0001
    158  N         69.4250   30.9060   -2.5520 N.3   153  ILE153     -0.1231
    159  CA        70.8710   30.9050   -2.7580 C.3   153  ILE153      0.1692
    160  C         71.4120   29.5160   -2.4460 C.2   153  ILE153      0.2592
    161  O         70.6960   28.6380   -1.9540 O.2   153  ILE153     -0.2718
    162  CB        71.6030   31.9540   -1.8870 C.3   153  ILE153      0.0266
    163  CG1       71.3880   31.6530   -0.4100 C.3   153  ILE153      0.0019
    164  CG2       71.1390   33.3510   -2.1950 C.3   153  ILE153      0.0020
    165  CD1       72.1170   32.6270    0.5330 C.3   153  ILE153      0.0001
    166  N         72.7060   29.3420   -2.7140 N.am  154  ASP154     -0.1974
    167  CA        73.4800   28.1410   -2.4060 C.3   154  ASP154      0.1709
    168  C         73.0050   26.8960   -3.1430 C.2   154  ASP154      0.2293
    169  O         72.3060   26.0440   -2.5780 O.2   154  ASP154     -0.2864
    170  CB        73.5110   27.8500   -0.9060 C.3   154  ASP154      0.1436
    171  CG        74.5390   26.7580   -0.5520 C.2   154  ASP154      0.3671
    172  OD1       75.4730   26.5350   -1.3660 O.co2 154  ASP154     -0.2456
    173  OD2       74.4180   26.1200    0.5220 O.co2 154  ASP154     -0.2456
@<TRIPOS>BOND
     1    78    77   ar
     2    79    77   ar
     3    77    76    1
     4    58    57    2
     5    76    75    1
     6    57    56    1
     7    75    72    1
     8    63    64    1
     9    64    65    1
    10    64    67    1
    11    71    65   am
    12    71    72    1
    13    70    68    1
    14    65    66    2
    15    72    73    1
    16    56    55    1
    17    56    59    1
    18    68    67    1
    19    68    69    1
    20    61    59    1
    21    73    80   am
    22    73    74    2
    23    59    60    1
    24    44    43    2
    25    80    81    1
    26    49    48    2
    27    41    42    1
    28    43    42    1
    29    62    60    1
    30    46    47    1
    31    83    82    2
    32    81    82    1
    33    81    84    1
    34    48    47    1
    35    42    45    1
    36    82    91   am
    37    53    54    1
    38    53    52    1
    39    50    47    1
    40    50    51    1
    41    84    85    1
    42   168   169    2
    43   168   167    1
    44    91    97    1
    45    91    92    1
    46   159   158    1
    47   159   160    1
    48   159   162    1
    49    97    96    1
    50   166   160   am
    51   166   167    1
    52    92    95    1
    53    92    93    1
    54    96    95    1
    55    51    52    1
    56   160   161    2
    57   167   170    1
    58    90    88    1
    59   164   162    1
    60   162   163    1
    61    85    86    1
    62    87    88    2
    63    87    86    1
    64    88    89    1
    65    93    94    2
    66   172   171   ar
    67   170   171    1
    68    26    25    2
    69   171   173   ar
    70   163   165    1
    71    39    38    1
    72   156   155    1
    73    40    38    1
    74    25    24    1
    75   153   152    2
    76   155   154    1
    77   155   157    1
    78   154   151    1
    79    35    38    1
    80    35    36    1
    81    35    34    1
    82    27    24    1
    83    27    28    1
    84    24    23    1
    85    36    37    2
    86   150   151    1
    87   152   151    1
    88   104   102    1
    89    29    28   ar
    90    29    31   ar
    91   102   103    1
    92   102    99    1
    93     7     6    1
    94    28    30   ar
    95    31    33   ar
    96    99    98    1
    97    99   100    1
    98    30    32   ar
    99     6     5    1
   100     6     8    1
   101     5     2    1
   102    33    32   ar
   103    22    21    2
   104   144   143    2
   105   100   105   am
   106   100   101    2
   107    12    11    2
   108     1     2    1
   109   143   142    1
   110   105   106    1
   111   108   107    2
   112    21    20    1
   113     2     3    1
   114   120   119   ar
   115     9     3   am
   116     9    10    1
   117   107   106    1
   118   107   114   am
   119    11    10    1
   120    11    13   am
   121     3     4    2
   122    19    20    1
   123    19    15   am
   124    14    17    1
   125    14    13    1
   126    14    15    1
   127   106   109    1
   128   115   114    1
   129   115   118    1
   130   115   116    1
   131   142   141    1
   132   142   145    1
   133   119   118    1
   134   119   121   ar
   135    17    18    1
   136    15    16    2
   137   145   146    1
   138   116   117    2
   139   109   110    1
   140   146   147    1
   141   110   111    1
   142   122   123    1
   143   147   149   ar
   144   147   148   ar
   145   112   111    2
   146   111   113   am
   147   126   123    1
   148   126   127    1
   149   140   138   ar
   150   123   124    1
   151   133   124   am
   152   133   134    1
   153   138   137    1
   154   138   139   ar
   155   124   125    2
   156   137   134    1
   157   127   129   ar
   158   127   128   ar
   159   129   131   ar
   160   134   135    1
   161   135   136    2
   162   128   130   ar
   163   131   132   ar
   164   130   132   ar
