@<TRIPOS>MOLECULE
tmp/5tf5A00.pdb
 85 83 0 0 0
SMALL
GASTEIGER

@<TRIPOS>ATOM
      1  N         64.7070   -0.7540   36.6900 N.3    18  PRO18      -0.2102
      2  CA        63.7640   -1.6540   35.9950 C.3    18  PRO18       0.1504
      3  C         64.2740   -3.0400   35.6220 C.2    18  PRO18       0.2576
      4  O         65.3590   -3.4710   36.0250 O.2    18  PRO18      -0.2718
      5  CB        63.4120   -0.8550   34.7340 C.3    18  PRO18       0.0282
      6  CG        64.6370   -0.1250   34.4270 C.3    18  PRO18       0.0208
      7  CD        65.1820    0.2980   35.7680 C.3    18  PRO18       0.0893
      8  N         63.4580   -3.7380   34.8290 N.am   19  ILE19      -0.1966
      9  CA        63.6490   -5.1440   34.4890 C.3    19  ILE19       0.1727
     10  C         63.6790   -5.9370   35.7890 C.2    19  ILE19       0.2616
     11  O         64.5930   -6.7340   36.0260 O.2    19  ILE19      -0.2715
     12  CB        64.9230   -5.3710   33.6530 C.3    19  ILE19       0.0290
     13  CG1       65.1380   -4.2090   32.6730 C.3    19  ILE19       0.0022
     14  CG2       64.8020   -6.6940   32.8930 C.3    19  ILE19       0.0023
     15  CD1       66.3420   -4.3520   31.7460 C.3    19  ILE19       0.0001
     16  N         62.6650   -5.7290   36.6330 N.am   20  ARG20      -0.1963
     17  CA        62.6740   -6.2300   38.0030 C.3    20  ARG20       0.1729
     18  C         61.8500   -7.5050   38.1550 C.2    20  ARG20       0.2617
     19  O         62.2070   -8.5480   37.6010 O.2    20  ARG20      -0.2715
     20  CB        62.1500   -5.1530   38.9580 C.3    20  ARG20       0.0348
     21  CG        62.8660   -3.8220   38.8760 C.3    20  ARG20       0.0492
     22  CD        62.0650   -2.7290   39.5760 C.3    20  ARG20       0.2205
     23  NE        62.3250   -1.4230   38.9830 N.pl3  20  ARG20      -0.0865
     24  CZ        61.6450   -0.3160   39.2540 C.cat  20  ARG20       0.5346
     25  NH1       60.6420   -0.3360   40.1230 N.pl3  20  ARG20       0.1354
     26  NH2       61.9720    0.8160   38.6470 N.pl3  20  ARG20       0.1354
     27  N         60.7450   -7.4290   38.9010 N.am   21  THR21      -0.1937
     28  CA        59.9570   -8.6010   39.2690 C.3    21  THR21       0.2028
     29  C         59.1770   -9.1520   38.0790 C.2    21  THR21       0.2642
     30  O         57.9420   -9.2060   38.1070 O.2    21  THR21      -0.2714
     31  CB        59.0010   -8.2460   40.4110 C.3    21  THR21       0.1808
     32  OG1       58.2070   -7.1090   40.0420 O.3    21  THR21      -0.2208
     33  CG2       59.7820   -7.9240   41.6790 C.3    21  THR21       0.0379
     34  N         59.8890   -9.5600   37.0270 N.am   22  MET22      -0.1976
     35  CA        59.2560  -10.1200   35.8390 C.3    22  MET22       0.1605
     36  C         59.9520  -11.4040   35.4110 C.2    22  MET22       0.2287
     37  O         59.2920  -12.4080   35.1220 O.2    22  MET22      -0.2864
     38  CB        59.2660   -9.1060   34.6920 C.3    22  MET22       0.0413
     39  CG        60.6500   -8.5720   34.3210 C.3    22  MET22       0.0598
     40  SD        60.6090   -7.5470   32.8370 S.3    22  MET22      -0.1393
     41  CE        59.5160   -6.2600   33.4010 C.3    22  MET22       0.0692
     42  N         53.2980   -8.9920   32.3500 N.3    37  ALA37      -0.1245
     43  CA        53.8970   -7.9230   33.1330 C.3    37  ALA37       0.1562
     44  C         55.2400   -7.4760   32.5840 C.2    37  ALA37       0.2260
     45  O         55.7090   -6.3890   32.9400 O.2    37  ALA37      -0.2867
     46  CB        54.0790   -8.3740   34.5880 C.3    37  ALA37       0.0290
     47  N         58.4310   -6.2340   30.2130 N.3    39  GLY39      -0.1210
     48  CA        58.6270   -5.1170   29.3160 C.3    39  GLY39       0.1956
     49  C         59.5320   -5.4240   28.1420 C.2    39  GLY39       0.2612
     50  O         60.0340   -4.5000   27.5200 O.2    39  GLY39      -0.2717
     51  N         59.7300   -6.6270   27.8180 N.am   40  LEU40      -0.1966
     52  CA        60.7680   -6.8710   26.8190 C.3    40  LEU40       0.1713
     53  C         60.2160   -6.7590   25.3980 C.2    40  LEU40       0.2458
     54  O         59.1270   -7.2660   25.1130 O.2    40  LEU40      -0.2730
     55  CB        61.3690   -8.2570   27.0140 C.3    40  LEU40       0.0310
     56  CG        61.9850   -8.5050   28.3910 C.3    40  LEU40       0.0022
     57  CD1       62.5040   -9.9250   28.4770 C.3    40  LEU40       0.0001
     58  CD2       63.1020   -7.5120   28.6870 C.3    40  LEU40       0.0001
     59  N         60.9460   -6.1330   24.4750 N.am   41  PRO41      -0.2727
     60  CA        60.5040   -6.1140   23.0810 C.3    41  PRO41       0.1402
     61  C         60.6840   -7.4840   22.4490 C.2    41  PRO41       0.2269
     62  O         61.4840   -8.3040   22.9010 O.2    41  PRO41      -0.2865
     63  CB        61.4230   -5.0750   22.4350 C.3    41  PRO41       0.0296
     64  CG        62.6880   -5.2090   23.1920 C.3    41  PRO41       0.0237
     65  CD        62.3190   -5.6070   24.6090 C.3    41  PRO41       0.0939
     66  N         67.9190   -7.5410   26.4020 N.3    74  TYR74      -0.1241
     67  CA        68.3950   -7.0460   27.6950 C.3    74  TYR74       0.1605
     68  C         68.9150   -8.1700   28.5870 C.2    74  TYR74       0.2264
     69  O         68.4960   -9.3250   28.4540 O.2    74  TYR74      -0.2867
     70  CB        67.2860   -6.3050   28.4540 C.3    74  TYR74       0.0534
     71  CG        66.6740   -5.1060   27.7540 C.ar   74  TYR74      -0.0201
     72  CD1       67.3740   -3.9040   27.6160 C.ar   74  TYR74      -0.0009
     73  CD2       65.3670   -5.1590   27.2780 C.ar   74  TYR74      -0.0009
     74  CE1       66.7880   -2.8050   26.9960 C.ar   74  TYR74       0.0417
     75  CE2       64.7880   -4.0880   26.6570 C.ar   74  TYR74       0.0417
     76  CZ        65.4880   -2.9060   26.5180 C.ar   74  TYR74       0.1957
     77  OH        64.8630   -1.8470   25.8830 O.3    74  TYR74      -0.2866
     78  N         72.2960    0.4670   31.6530 N.3   292  LEU292     -0.1245
     79  CA        71.4190   -0.6650   31.9430 C.3   292  LEU292      0.1561
     80  C         72.2190   -1.9460   32.1470 C.2   292  LEU292      0.2260
     81  O         72.0510   -2.6280   33.1620 O.2   292  LEU292     -0.2867
     82  CB        70.3720   -0.8680   30.8400 C.3   292  LEU292      0.0270
     83  CG        69.5000    0.3350   30.4660 C.3   292  LEU292      0.0019
     84  CD1       68.3290   -0.1200   29.5990 C.3   292  LEU292      0.0001
     85  CD2       68.9810    1.0760   31.6940 C.3   292  LEU292      0.0001
@<TRIPOS>BOND
     1    63    60    1
     2    63    64    1
     3    61    62    2
     4    61    60    1
     5    60    59    1
     6    64    65    1
     7    59    65    1
     8    59    53   am
     9    54    53    2
    10    53    52    1
    11    77    76    1
    12    66    67    1
    13    76    75   ar
    14    76    74   ar
    15    75    73   ar
    16    52    55    1
    17    52    51    1
    18    74    72   ar
    19    55    56    1
    20    73    71   ar
    21    50    49    2
    22    72    71   ar
    23    67    70    1
    24    67    68    1
    25    71    70    1
    26    51    49   am
    27    49    48    1
    28    56    57    1
    29    56    58    1
    30    69    68    2
    31    48    47    1
    32    84    83    1
    33    83    82    1
    34    83    85    1
    35    82    79    1
    36    78    79    1
    37    15    13    1
    38    79    80    1
    39    80    81    2
    40    42    43    1
    41    44    45    2
    42    44    43    1
    43    13    12    1
    44    40    41    1
    45    40    39    1
    46    14    12    1
    47    43    46    1
    48    12     9    1
    49    39    38    1
    50     6     5    1
    51     6     7    1
    52     9     8    1
    53     9    10    1
    54    38    35    1
    55     5     2    1
    56     8     3   am
    57    37    36    2
    58    36    35    1
    59     3     2    1
    60     3     4    2
    61     7     1    1
    62    10    11    2
    63    10    16   am
    64    35    34    1
    65     2     1    1
    66    16    17    1
    67    34    29   am
    68    19    18    2
    69    17    18    1
    70    17    20    1
    71    29    30    2
    72    29    28    1
    73    18    27   am
    74    26    24    1
    75    21    20    1
    76    21    22    1
    77    27    28    1
    78    23    24    2
    79    23    22    1
    80    24    25    1
    81    28    31    1
    82    32    31    1
    83    31    33    1
