@<TRIPOS>MOLECULE
tmp/5tf5B00.pdb
 113 107 0 0 0
SMALL
GASTEIGER

@<TRIPOS>ATOM
      1  N         69.1080    5.2710   27.0040 N.3   118  GLN118     -0.1245
      2  CA        68.9960    5.6500   28.4090 C.3   118  GLN118      0.1566
      3  C         70.2960    6.2300   28.9600 C.2   118  GLN118      0.2260
      4  O         70.2520    7.1130   29.8220 O.2   118  GLN118     -0.2867
      5  CB        68.5430    4.4560   29.2450 C.3   118  GLN118      0.0367
      6  CG        67.0440    4.2970   29.2750 C.3   118  GLN118      0.0905
      7  CD        66.5750    3.5210   30.4860 C.2   118  GLN118      0.2608
      8  OE1       66.0080    2.4350   30.3620 O.2   118  GLN118     -0.2717
      9  NE2       66.8130    4.0770   31.6720 N.am  118  GLN118     -0.0878
     10  N         57.8900    6.2010   32.4780 N.3   142  TYR142     -0.1227
     11  CA        58.8310    5.0950   32.5420 C.3   142  TYR142      0.1736
     12  C         59.5340    5.0660   33.8890 C.2   142  TYR142      0.2596
     13  O         60.1320    6.0600   34.3140 O.2   142  TYR142     -0.2718
     14  CB        59.8400    5.2370   31.4090 C.3   142  TYR142      0.0548
     15  CG        60.9820    4.2570   31.4540 C.ar  142  TYR142     -0.0200
     16  CD1       62.2880    4.6680   31.2130 C.ar  142  TYR142     -0.0009
     17  CD2       60.7600    2.9210   31.7350 C.ar  142  TYR142     -0.0009
     18  CE1       63.3360    3.7700   31.2460 C.ar  142  TYR142      0.0417
     19  CE2       61.7970    2.0240   31.7830 C.ar  142  TYR142      0.0417
     20  CZ        63.0810    2.4440   31.5330 C.ar  142  TYR142      0.1957
     21  OH        64.1080    1.5310   31.5760 O.3   142  TYR142     -0.2866
     22  N         59.4670    3.9130   34.5590 N.am  143  SER143     -0.1952
     23  CA        60.0100    3.8280   35.9090 C.3   143  SER143      0.1924
     24  C         61.4970    4.1560   35.9250 C.2   143  SER143      0.2314
     25  O         61.9980    4.7080   36.9110 O.2   143  SER143     -0.2863
     26  CB        59.7500    2.4390   36.4990 C.3   143  SER143      0.2116
     27  OG        60.1890    1.4160   35.6280 O.3   143  SER143     -0.2180
     28  N         55.1690    4.6460   27.8660 N.3   202  ASN202     -0.1240
     29  CA        55.1910    3.4860   28.7470 C.3   202  ASN202      0.1653
     30  C         54.8550    4.0480   30.1220 C.2   202  ASN202      0.2266
     31  O         55.6250    4.8430   30.6600 O.2   202  ASN202     -0.2867
     32  CB        56.5650    2.8040   28.6950 C.3   202  ASN202      0.1155
     33  CG        56.7470    1.7280   29.7440 C.2   202  ASN202      0.2627
     34  OD1       55.8020    1.3110   30.4190 O.2   202  ASN202     -0.2716
     35  ND2       57.9850    1.2600   29.8780 N.am  202  ASN202     -0.0877
     36  N         59.7500    4.7770   21.0770 N.3   233  TYR233     -0.1241
     37  CA        58.7060    4.1400   20.2800 C.3   233  TYR233      0.1605
     38  C         58.3790    4.9270   19.0190 C.2   233  TYR233      0.2264
     39  O         57.3380    4.6870   18.3930 O.2   233  TYR233     -0.2867
     40  CB        57.4490    3.9470   21.1270 C.3   233  TYR233      0.0534
     41  CG        57.7440    3.1420   22.3590 C.ar  233  TYR233     -0.0201
     42  CD1       57.7460    3.7330   23.6130 C.ar  233  TYR233     -0.0009
     43  CD2       58.0690    1.7960   22.2620 C.ar  233  TYR233     -0.0009
     44  CE1       58.0440    3.0040   24.7400 C.ar  233  TYR233      0.0417
     45  CE2       58.3680    1.0560   23.3840 C.ar  233  TYR233      0.0417
     46  CZ        58.3560    1.6670   24.6170 C.ar  233  TYR233      0.1957
     47  OH        58.6480    0.9430   25.7390 O.3   233  TYR233     -0.2866
     48  N         66.5680    0.0110   20.2510 N.3   262  SER262     -0.1217
     49  CA        66.3840   -1.0030   21.2540 C.3   262  SER262      0.1889
     50  C         65.1130   -1.8200   21.0180 C.2   262  SER262      0.2288
     51  O         65.0630   -2.9840   21.3640 O.2   262  SER262     -0.2866
     52  CB        66.3400   -0.3430   22.6470 C.3   262  SER262      0.2089
     53  OG        67.5530    0.3380   22.9690 O.3   262  SER262     -0.2183
     54  N         67.9170   -4.5250   21.6350 N.3   266  SER266     -0.1217
     55  CA        68.0990   -3.9370   22.9550 C.3   266  SER266      0.1889
     56  C         69.4040   -4.3950   23.5890 C.2   266  SER266      0.2288
     57  O         70.0620   -3.6180   24.2900 O.2   266  SER266     -0.2866
     58  CB        66.9150   -4.3090   23.8410 C.3   266  SER266      0.2089
     59  OG        66.6620   -5.7000   23.7580 O.3   266  SER266     -0.2183
     60  N         54.0110   -0.8160   22.7540 N.3   353  MET353     -0.1230
     61  CA        53.7410   -2.2330   22.9850 C.3   353  MET353      0.1702
     62  C         52.9850   -2.4990   24.2860 C.2   353  MET353      0.2592
     63  O         52.9820   -3.6420   24.7660 O.2   353  MET353     -0.2718
     64  CB        55.0530   -3.0370   22.9610 C.3   353  MET353      0.0401
     65  CG        56.1980   -2.5180   23.8050 C.3   353  MET353      0.0596
     66  SD        57.7660   -3.4010   23.4300 S.3   353  MET353     -0.1393
     67  CE        58.1960   -2.6940   21.8570 C.3   353  MET353      0.0692
     68  N         52.2880   -1.5030   24.8390 N.am  354  PHE354     -0.1976
     69  CA        51.6000   -1.6560   26.1130 C.3   354  PHE354      0.1639
     70  C         50.1500   -1.2070   26.0140 C.2   354  PHE354      0.2290
     71  O         49.8370   -0.2240   25.3340 O.2   354  PHE354     -0.2864
     72  CB        52.3040   -0.8600   27.2110 C.3   354  PHE354      0.0560
     73  CG        53.7170   -1.2900   27.4390 C.ar  354  PHE354     -0.0200
     74  CD1       53.9850   -2.5460   27.9560 C.ar  354  PHE354     -0.0042
     75  CD2       54.7750   -0.4500   27.1310 C.ar  354  PHE354     -0.0042
     76  CE1       55.2730   -2.9620   28.1650 C.ar  354  PHE354     -0.0003
     77  CE2       56.0770   -0.8590   27.3450 C.ar  354  PHE354     -0.0003
     78  CZ        56.3210   -2.1220   27.8620 C.ar  354  PHE354     -0.0000
     79  N         51.4110   -6.0750   35.1560 N.3   381  LEU381     -0.1245
     80  CA        52.2130   -5.2230   36.0210 C.3   381  LEU381      0.1561
     81  C         51.3460   -4.1470   36.6640 C.2   381  LEU381      0.2260
     82  O         50.7320   -3.3510   35.9410 O.2   381  LEU381     -0.2867
     83  CB        53.3430   -4.5810   35.2440 C.3   381  LEU381      0.0270
     84  CG        54.3890   -3.9050   36.1270 C.3   381  LEU381      0.0019
     85  CD1       55.0800   -4.8940   37.0780 C.3   381  LEU381      0.0001
     86  CD2       55.4170   -3.2130   35.2600 C.3   381  LEU381      0.0001
     87  N         54.3410    1.4830   39.9480 N.3   385  ALA385     -0.1231
     88  CA        55.7610    1.7060   39.7050 C.3   385  ALA385      0.1694
     89  C         56.0330    2.8410   38.7290 C.2   385  ALA385      0.2592
     90  O         57.1890    3.2670   38.6040 O.2   385  ALA385     -0.2718
     91  CB        56.4030    0.4200   39.1820 C.3   385  ALA385      0.0304
     92  N         55.0130    3.3410   38.0410 N.am  386  PHE386     -0.1976
     93  CA        55.1860    4.3720   37.0310 C.3   386  PHE386      0.1639
     94  C         54.8330    5.7600   37.5390 C.2   386  PHE386      0.2290
     95  O         54.6550    6.6750   36.7310 O.2   386  PHE386     -0.2864
     96  CB        54.3430    4.0290   35.8090 C.3   386  PHE386      0.0560
     97  CG        54.6120    2.6630   35.2740 C.ar  386  PHE386     -0.0200
     98  CD1       53.8050    1.5940   35.6260 C.ar  386  PHE386     -0.0042
     99  CD2       55.6820    2.4390   34.4320 C.ar  386  PHE386     -0.0042
    100  CE1       54.0530    0.3340   35.1350 C.ar  386  PHE386     -0.0003
    101  CE2       55.9370    1.1800   33.9360 C.ar  386  PHE386     -0.0003
    102  CZ        55.1250    0.1240   34.2880 C.ar  386  PHE386     -0.0000
    103  N         49.3880   -2.5780   33.5480 N.3   398  ARG398     -0.1245
    104  CA        50.0590   -2.4890   32.2590 C.3   398  ARG398      0.1563
    105  C         50.1550   -3.8850   31.6550 C.2   398  ARG398      0.2260
    106  O         50.7660   -4.7840   32.2450 O.2   398  ARG398     -0.2867
    107  CB        51.4480   -1.8720   32.4060 C.3   398  ARG398      0.0307
    108  CG        52.0900   -1.4930   31.0830 C.3   398  ARG398      0.0489
    109  CD        53.5840   -1.2680   31.2410 C.3   398  ARG398      0.2205
    110  NE        54.3260   -2.5240   31.3400 N.pl3 398  ARG398     -0.0865
    111  CZ        55.6490   -2.6070   31.4240 C.cat 398  ARG398      0.5346
    112  NH1       56.3890   -1.5040   31.4360 N.pl3 398  ARG398      0.1354
    113  NH2       56.2300   -3.7960   31.5040 N.pl3 398  ARG398      0.1354
@<TRIPOS>BOND
     1    39    38    2
     2    38    37    1
     3    48    49    1
     4    37    36    1
     5    37    40    1
     6    50    49    1
     7    50    51    2
     8    40    41    1
     9    49    52    1
    10    54    55    1
    11    67    66    1
    12    43    41   ar
    13    43    45   ar
    14    41    42   ar
    15    52    53    1
    16    60    61    1
    17    55    56    1
    18    55    58    1
    19    64    61    1
    20    64    65    1
    21    61    62    1
    22    45    46   ar
    23    66    65    1
    24    56    57    2
    25    42    44   ar
    26    59    58    1
    27    62    63    2
    28    62    68   am
    29    46    44   ar
    30    46    47    1
    31    68    69    1
    32    71    70    2
    33    70    69    1
    34    69    72    1
    35     1     2    1
    36    75    77   ar
    37    75    73   ar
    38    72    73    1
    39    77    78   ar
    40    73    74   ar
    41    78    76   ar
    42    28    29    1
    43    74    76   ar
    44     2     3    1
    45     2     5    1
    46    32    29    1
    47    32    33    1
    48    29    30    1
    49     3     4    2
    50     5     6    1
    51     6     7    1
    52    33    35   am
    53    33    34    2
    54    30    31    2
    55     8     7    2
    56     7     9   am
    57   108   109    1
    58   108   107    1
    59    16    18   ar
    60    16    15   ar
    61   109   110    1
    62    18    20   ar
    63   110   111    2
    64    14    15    1
    65    14    11    1
    66   111   112    1
    67   111   113    1
    68    15    17   ar
    69    20    21    1
    70    20    19   ar
    71   105   106    2
    72   105   104    1
    73    17    19   ar
    74   104   107    1
    75   104   103    1
    76    10    11    1
    77    11    12    1
    78    12    13    2
    79    12    22   am
    80   101   102   ar
    81   101    99   ar
    82   102   100   ar
    83    99    97   ar
    84    22    23    1
    85   100    98   ar
    86    79    80    1
    87    83    80    1
    88    83    84    1
    89    86    84    1
    90    97    98   ar
    91    97    96    1
    92    27    26    1
    93    96    93    1
    94    23    24    1
    95    23    26    1
    96    24    25    2
    97    82    81    2
    98    80    81    1
    99    84    85    1
   100    95    94    2
   101    93    94    1
   102    93    92    1
   103    92    89   am
   104    90    89    2
   105    89    88    1
   106    91    88    1
   107    88    87    1
