@<TRIPOS>MOLECULE
tmp/5tf8A00.pdb
 103 99 0 0 0
SMALL
GASTEIGER

@<TRIPOS>ATOM
      1  N         -5.7340   43.4580    6.6830 N.3    13  TRP13      -0.1227
      2  CA        -5.1550   42.7260    5.5610 C.3    13  TRP13       0.1737
      3  C         -5.6950   41.3070    5.4640 C.2    13  TRP13       0.2595
      4  O         -5.7640   40.7500    4.3620 O.2    13  TRP13      -0.2718
      5  CB        -3.6340   42.6750    5.6770 C.3    13  TRP13       0.0564
      6  CG        -2.9820   43.9230    5.2090 C.ar   13  TRP13       0.0003
      7  CD1       -2.2420   44.7830    5.9570 C.ar   13  TRP13       0.0946
      8  CD2       -3.0200   44.4670    3.8860 C.ar   13  TRP13       0.0152
      9  NE1       -1.8030   45.8250    5.1810 N.ar   13  TRP13      -0.2442
     10  CE2       -2.2700   45.6570    3.9060 C.ar   13  TRP13       0.0810
     11  CE3       -3.6120   44.0630    2.6850 C.ar   13  TRP13       0.0012
     12  CZ2       -2.0980   46.4470    2.7770 C.ar   13  TRP13       0.0191
     13  CZ3       -3.4400   44.8430    1.5710 C.ar   13  TRP13       0.0001
     14  CH2       -2.6910   46.0220    1.6190 C.ar   13  TRP13       0.0015
     15  N         -6.0740   40.7100    6.5910 N.am   14  GLU14      -0.1979
     16  CA        -6.5760   39.3430    6.6420 C.3    14  GLU14       0.1602
     17  C         -7.8980   39.3050    7.3970 C.2    14  GLU14       0.2287
     18  O         -7.9760   39.7860    8.5300 O.2    14  GLU14      -0.2864
     19  CB        -5.5670   38.4170    7.3230 C.3    14  GLU14       0.0415
     20  CG        -4.4090   38.0150    6.4450 C.3    14  GLU14       0.1163
     21  CD        -3.9850   36.5840    6.6990 C.2    14  GLU14       0.3649
     22  OE1       -2.8320   36.3710    7.1130 O.co2  14  GLU14      -0.2457
     23  OE2       -4.8180   35.6810    6.4960 O.co2  14  GLU14      -0.2457
     24  N         -4.9360   46.4150   10.7550 N.3    20  VAL20      -0.1245
     25  CA        -3.6880   47.0960   10.4260 C.3    20  VAL20       0.1561
     26  C         -3.8220   48.6070   10.6330 C.2    20  VAL20       0.2260
     27  O         -2.8180   49.3070   10.8590 O.2    20  VAL20      -0.2867
     28  CB        -3.2670   46.7460    8.9860 C.3    20  VAL20       0.0252
     29  CG1       -4.2710   47.2940    7.9850 C.3    20  VAL20       0.0019
     30  CG2       -1.8870   47.3050    8.6850 C.3    20  VAL20       0.0019
     31  N          8.2670   50.9210   12.7310 N.3    40  THR40      -0.1203
     32  CA         8.0590   49.8830   11.7320 C.3    40  THR40       0.1994
     33  C          6.8470   49.0290   12.1020 C.2    40  THR40       0.2618
     34  O          6.6220   48.6940   13.2680 O.2    40  THR40      -0.2717
     35  CB         9.3210   49.0160   11.5700 C.3    40  THR40       0.1784
     36  OG1        9.1100   48.0330   10.5420 O.3    40  THR40      -0.2211
     37  CG2        9.7030   48.3160   12.8810 C.3    40  THR40       0.0376
     38  N          6.0380   48.7140   11.0900 N.am   41  GLY41      -0.1942
     39  CA         4.8070   47.9700   11.2880 C.3    41  GLY41       0.2014
     40  C          3.6300   48.7800   11.7810 C.2    41  GLY41       0.2639
     41  O          2.5670   48.2040   12.0260 O.2    41  GLY41      -0.2714
     42  N          3.7710   50.1000   11.9220 N.am   42  ALA42      -0.1963
     43  CA         2.6820   50.9120   12.4590 C.3    42  ALA42       0.1728
     44  C          1.4900   50.9920   11.5260 C.2    42  ALA42       0.2617
     45  O          0.3870   51.2920   11.9920 O.2    42  ALA42      -0.2715
     46  CB         3.1660   52.3320   12.7550 C.3    42  ALA42       0.0334
     47  N          1.6850   50.7650   10.2290 N.am   43  GLY43      -0.1940
     48  CA         0.6140   50.8740    9.2540 C.3    43  GLY43       0.2014
     49  C          0.7540   52.0150    8.2580 C.2    43  GLY43       0.2639
     50  O         -0.2260   52.3380    7.5800 O.2    43  GLY43      -0.2714
     51  N          1.9420   52.6220    8.1430 N.am   44  LYS44      -0.1963
     52  CA         2.0920   53.8070    7.3060 C.3    44  LYS44       0.1728
     53  C          1.9380   53.4580    5.8290 C.2    44  LYS44       0.2617
     54  O          1.1780   54.1070    5.1070 O.2    44  LYS44      -0.2715
     55  CB         3.4510   54.4670    7.5760 C.3    44  LYS44       0.0311
     56  CG         3.7270   54.7350    9.0730 C.3    44  LYS44       0.0038
     57  CD         5.0850   55.4020    9.3420 C.3    44  LYS44       0.0206
     58  CE         6.2670   54.4960    8.9280 C.3    44  LYS44       0.1093
     59  NZ         6.3630   53.2400    9.7460 N.3    44  LYS44      -0.1314
     60  N          2.6640   52.4400    5.3610 N.am   45  THR45      -0.1937
     61  CA         2.5250   52.0350    3.9680 C.3    45  THR45       0.2028
     62  C          1.1200   51.5240    3.6990 C.2    45  THR45       0.2642
     63  O          0.5480   51.7960    2.6370 O.2    45  THR45      -0.2714
     64  CB         3.5760   50.9820    3.6240 C.3    45  THR45       0.1808
     65  OG1        4.8860   51.5480    3.7940 O.3    45  THR45      -0.2208
     66  CG2        3.4210   50.4710    2.1890 C.3    45  THR45       0.0379
     67  N          0.5300   50.8070    4.6680 N.am   46  SER46      -0.1949
     68  CA        -0.8390   50.3310    4.4920 C.3    46  SER46       0.1924
     69  C         -1.8040   51.4890    4.3010 C.2    46  SER46       0.2314
     70  O         -2.7750   51.3770    3.5450 O.2    46  SER46      -0.2863
     71  CB        -1.2640   49.4770    5.6890 C.3    46  SER46       0.2116
     72  OG        -0.4490   48.3150    5.7840 O.3    46  SER46      -0.2180
     73  N         -1.5690   52.4920    0.8230 N.3    49  MET49      -0.1245
     74  CA        -2.2100   51.4730   -0.0060 C.3    49  MET49       0.1570
     75  C         -3.7210   51.6500   -0.0200 C.2    49  MET49       0.2261
     76  O         -4.3730   51.4500   -1.0510 O.2    49  MET49      -0.2867
     77  CB        -1.8480   50.0710    0.5000 C.3    49  MET49       0.0387
     78  CG        -0.3820   49.6910    0.3130 C.3    49  MET49       0.0595
     79  SD         0.0480   49.5510   -1.4310 S.3    49  MET49      -0.1393
     80  CE         1.8110   49.8800   -1.3560 C.3    49  MET49       0.0692
     81  N          8.8830   53.0910   -0.6510 N.3    73  GLN73      -0.1245
     82  CA        10.0290   53.1040    0.2510 C.3    73  GLN73       0.1566
     83  C         11.1680   52.2300   -0.2440 C.2    73  GLN73       0.2260
     84  O         12.2850   52.3710    0.2510 O.2    73  GLN73      -0.2867
     85  CB         9.6260   52.6530    1.6520 C.3    73  GLN73       0.0367
     86  CG         9.3630   51.1670    1.7890 C.3    73  GLN73       0.0905
     87  CD         8.8330   50.8400    3.1830 C.2    73  GLN73       0.2608
     88  OE1        7.6680   51.0740    3.4680 O.2    73  GLN73      -0.2717
     89  NE2        9.6990   50.3360    4.0590 N.am   73  GLN73      -0.0878
     90  N          6.5810   57.5940    0.2350 N.3   152  ASP152     -0.1225
     91  CA         6.7310   56.6500    1.3430 C.3   152  ASP152      0.1805
     92  C          8.2100   56.5590    1.7070 C.2   152  ASP152      0.2598
     93  O          8.9670   55.8170    1.0780 O.2   152  ASP152     -0.2718
     94  CB         6.1620   55.2840    0.9550 C.3   152  ASP152      0.1424
     95  CG         5.9190   54.3740    2.1620 C.2   152  ASP152      0.3668
     96  OD1        6.3310   54.7420    3.2690 O.co2 152  ASP152     -0.2456
     97  OD2        5.3360   53.2760    1.9950 O.co2 152  ASP152     -0.2456
     98  N          8.6280   57.3130    2.7200 N.am  153  SER153     -0.1952
     99  CA         9.9940   57.2660    3.2290 C.3   153  SER153      0.1924
    100  C         11.0120   57.3730    2.0870 C.2   153  SER153      0.2314
    101  O         11.8300   56.4770    1.8890 O.2   153  SER153     -0.2863
    102  CB        10.2170   55.9870    4.0270 C.3   153  SER153      0.2116
    103  OG         9.3680   55.9320    5.1650 O.3   153  SER153     -0.2180
@<TRIPOS>BOND
     1    79    80    1
     2    79    78    1
     3    76    75    2
     4    81    82    1
     5    83    82    1
     6    83    84    2
     7    75    74    1
     8    74    77    1
     9    74    73    1
    10    90    91    1
    11    82    85    1
    12    78    77    1
    13    94    91    1
    14    94    95    1
    15    93    92    2
    16    91    92    1
    17    13    14   ar
    18    13    11   ar
    19    14    12   ar
    20    85    86    1
    21    92    98   am
    22    86    87    1
    23   101   100    2
    24    97    95   ar
    25   100    99    1
    26    95    96   ar
    27    66    64    1
    28    63    62    2
    29    11     8   ar
    30    98    99    1
    31    12    10   ar
    32    87    88    2
    33    87    89   am
    34    99   102    1
    35    70    69    2
    36    64    65    1
    37    64    61    1
    38    62    61    1
    39    62    67   am
    40     8    10   ar
    41     8     6   ar
    42    10     9   ar
    43    61    60    1
    44   102   103    1
    45    69    68    1
    46     4     3    2
    47    68    67    1
    48    68    71    1
    49    54    53    2
    50     9     7   ar
    51     6     5    1
    52     6     7   ar
    53    60    53   am
    54     3     2    1
    55     3    15   am
    56     2     5    1
    57     2     1    1
    58    71    72    1
    59    53    52    1
    60    20    21    1
    61    20    19    1
    62    23    21   ar
    63    15    16    1
    64    16    19    1
    65    16    17    1
    66    21    22   ar
    67    52    55    1
    68    52    51    1
    69    17    18    2
    70    55    56    1
    71    50    49    2
    72    29    28    1
    73    51    49   am
    74    49    48    1
    75    30    28    1
    76    58    57    1
    77    58    59    1
    78    28    25    1
    79    56    57    1
    80    48    47    1
    81    47    44   am
    82    25    26    1
    83    25    24    1
    84    36    35    1
    85    26    27    2
    86    38    39    1
    87    38    33   am
    88    39    40    1
    89    44    45    2
    90    44    43    1
    91    35    32    1
    92    35    37    1
    93    32    33    1
    94    32    31    1
    95    40    42   am
    96    40    41    2
    97    42    43    1
    98    33    34    2
    99    43    46    1
