@<TRIPOS>MOLECULE
tmp/5tf9B00.pdb
 195 182 0 0 0
SMALL
GASTEIGER

@<TRIPOS>ATOM
      1  N         55.7210   10.9600   13.5290 N.3    28  LYS28      -0.1245
      2  CA        56.1660   11.9390   14.5050 C.3    28  LYS28       0.1561
      3  C         57.6840   11.9480   14.5370 C.2    28  LYS28       0.2260
      4  O         58.3380   10.9470   14.2340 O.2    28  LYS28      -0.2867
      5  CB        55.6070   11.6590   15.9120 C.3    28  LYS28       0.0271
      6  CG        55.9730   10.3010   16.4940 C.3    28  LYS28       0.0035
      7  CD        55.1760   10.0220   17.7630 C.3    28  LYS28       0.0206
      8  CE        55.3680    8.5930   18.2430 C.3    28  LYS28       0.1093
      9  NZ        55.5350    8.5300   19.7200 N.3    28  LYS28      -0.1314
     10  N         53.9230   16.2670   15.1270 N.3    47  LEU47      -0.1245
     11  CA        53.2080   15.3270   14.2810 C.3    47  LEU47       0.1561
     12  C         52.9930   15.8940   12.8860 C.2    47  LEU47       0.2260
     13  O         52.9440   17.1100   12.6760 O.2    47  LEU47      -0.2867
     14  CB        51.8520   14.9490   14.8810 C.3    47  LEU47       0.0270
     15  CG        51.7280   13.7950   15.8850 C.3    47  LEU47       0.0019
     16  CD1       51.9820   12.4550   15.2440 C.3    47  LEU47       0.0001
     17  CD2       52.6970   13.9880   17.0090 C.3    47  LEU47       0.0001
     18  N         47.7960   17.0050    8.9160 N.3    50  ARG50      -0.1245
     19  CA        46.6350   16.1800    9.2080 C.3    50  ARG50       0.1563
     20  C         45.4390   16.6110    8.3720 C.2    50  ARG50       0.2260
     21  O         45.4540   17.6520    7.7070 O.2    50  ARG50      -0.2867
     22  CB        46.2760   16.2790   10.6920 C.3    50  ARG50       0.0307
     23  CG        47.1900   15.5260   11.6400 C.3    50  ARG50       0.0489
     24  CD        46.3800   14.4030   12.3100 C.3    50  ARG50       0.2205
     25  NE        46.0860   13.3170   11.3630 N.pl3  50  ARG50      -0.0865
     26  CZ        44.8840   12.7130   11.2890 C.cat  50  ARG50       0.5346
     27  NH1       43.8540   13.1070   12.0590 N.pl3  50  ARG50       0.1354
     28  NH2       44.6770   11.7390   10.4120 N.pl3  50  ARG50       0.1354
     29  N         39.9270   17.1440   18.2430 N.3    60  PHE60      -0.1241
     30  CA        41.2990   17.0460   18.7310 C.3    60  PHE60       0.1605
     31  C         41.5110   17.9300   19.9550 C.2    60  PHE60       0.2264
     32  O         42.0780   17.4890   20.9610 O.2    60  PHE60      -0.2867
     33  CB        42.2860   17.4210   17.6240 C.3    60  PHE60       0.0534
     34  CG        43.5680   18.0240   18.1370 C.ar   60  PHE60      -0.0203
     35  CD1       44.5610   17.2250   18.6780 C.ar   60  PHE60      -0.0042
     36  CD2       43.7760   19.3940   18.0850 C.ar   60  PHE60      -0.0042
     37  CE1       45.7350   17.7810   19.1580 C.ar   60  PHE60      -0.0003
     38  CE2       44.9490   19.9520   18.5650 C.ar   60  PHE60      -0.0003
     39  CZ        45.9280   19.1420   19.1020 C.ar   60  PHE60      -0.0000
     40  N         40.0810   16.3600   22.9460 N.3    63  GLU63      -0.1231
     41  CA        40.8490   15.1910   23.3590 C.3    63  GLU63       0.1699
     42  C         42.1630   15.5970   24.0230 C.2    63  GLU63       0.2592
     43  O         42.5300   15.0460   25.0680 O.2    63  GLU63      -0.2718
     44  CB        41.0890   14.2810   22.1530 C.3    63  GLU63       0.0402
     45  CG        39.8360   13.5110   21.7360 C.3    63  GLU63       0.1161
     46  CD        39.8620   13.0330   20.2920 C.2    63  GLU63       0.3649
     47  OE1       40.7700   13.4360   19.5300 O.co2  63  GLU63      -0.2457
     48  OE2       38.9610   12.2480   19.9200 O.co2  63  GLU63      -0.2457
     49  N         42.8670   16.5760   23.4480 N.am   64  ALA64      -0.1980
     50  CA        44.1140   17.0490   24.0390 C.3    64  ALA64       0.1597
     51  C         43.9060   17.5810   25.4510 C.2    64  ALA64       0.2287
     52  O         44.8000   17.4560   26.2970 O.2    64  ALA64      -0.2864
     53  CB        44.7360   18.1300   23.1560 C.3    64  ALA64       0.0319
     54  N         41.6050   16.4710   27.5420 N.3    66  MET66      -0.1230
     55  CA        41.2950   15.3530   28.3740 C.3    66  MET66       0.1702
     56  C         42.5650   14.5830   28.6390 C.2    66  MET66       0.2592
     57  O         42.8020   14.1340   29.7330 O.2    66  MET66      -0.2718
     58  CB        40.2740   14.4870   27.6850 C.3    66  MET66       0.0401
     59  CG        39.9870   13.2200   28.4180 C.3    66  MET66       0.0596
     60  SD        40.8660   11.8570   27.6780 S.3    66  MET66      -0.1393
     61  CE        39.9100   11.6180   26.2040 C.3    66  MET66       0.0692
     62  N         43.4210   14.4870   27.6440 N.am   67  LEU67      -0.1980
     63  CA        44.6650   13.7950   27.7730 C.3    67  LEU67       0.1596
     64  C         45.6070   14.4530   28.7460 C.2    67  LEU67       0.2287
     65  O         46.3560   13.8080   29.3990 O.2    67  LEU67      -0.2864
     66  CB        45.3330   13.7120   26.4310 C.3    67  LEU67       0.0297
     67  CG        44.7140   12.8030   25.4030 C.3    67  LEU67       0.0022
     68  CD1       45.3450   13.0790   24.0760 C.3    67  LEU67       0.0001
     69  CD2       44.9280   11.3670   25.7730 C.3    67  LEU67       0.0001
     70  N         45.0460   13.5900   32.7220 N.3    70  LEU70      -0.1245
     71  CA        45.2660   12.2400   33.1840 C.3    70  LEU70       0.1561
     72  C         46.5050   12.2090   34.0320 C.2    70  LEU70       0.2260
     73  O         47.5780   12.4450   33.5840 O.2    70  LEU70      -0.2867
     74  CB        45.4540   11.2880   32.0230 C.3    70  LEU70       0.0270
     75  CG        44.3580   11.1150   30.9910 C.3    70  LEU70       0.0019
     76  CD1       44.8440   10.4200   29.7590 C.3    70  LEU70       0.0001
     77  CD2       43.2030   10.3660   31.5640 C.3    70  LEU70       0.0001
     78  N         51.0310    5.7310   33.9040 N.3    75  ILE75      -0.1231
     79  CA        50.7350    6.2710   32.6120 C.3    75  ILE75       0.1692
     80  C         51.6900    7.4180   32.3250 C.2    75  ILE75       0.2592
     81  O         51.8930    8.2430   33.1470 O.2    75  ILE75      -0.2718
     82  CB        49.2930    6.7590   32.5240 C.3    75  ILE75       0.0266
     83  CG1       48.3240    5.6290   32.7430 C.3    75  ILE75       0.0019
     84  CG2       49.0270    7.3470   31.1710 C.3    75  ILE75       0.0020
     85  CD1       48.2800    4.6110   31.6520 C.3    75  ILE75       0.0001
     86  N         52.3070    7.4260   31.1520 N.am   76  VAL76      -0.1966
     87  CA        53.1870    8.5040   30.7240 C.3    76  VAL76       0.1727
     88  C         52.3630    9.7740   30.6600 C.2    76  VAL76       0.2616
     89  O         51.2860    9.7860   30.1820 O.2    76  VAL76      -0.2715
     90  CB        53.8230    8.2390   29.3490 C.3    76  VAL76       0.0290
     91  CG1       54.7280    9.3520   28.9370 C.3    76  VAL76       0.0023
     92  CG2       54.6480    7.0030   29.3540 C.3    76  VAL76       0.0023
     93  N         52.9050   10.8550   31.1520 N.am   77  ARG77      -0.1963
     94  CA        52.2180   12.1070   31.1980 C.3    77  ARG77       0.1729
     95  C         52.1460   12.9470   29.9280 C.2    77  ARG77       0.2616
     96  O         53.1130   13.1190   29.2640 O.2    77  ARG77      -0.2715
     97  CB        52.8850   12.9060   32.2970 C.3    77  ARG77       0.0348
     98  CG        52.3080   14.2570   32.5480 C.3    77  ARG77       0.0492
     99  CD        51.3720   14.1600   33.7100 C.3    77  ARG77       0.2205
    100  NE        51.4720   15.2940   34.5960 N.pl3  77  ARG77      -0.0865
    101  CZ        50.7840   16.4100   34.4320 C.cat  77  ARG77       0.5346
    102  NH1       49.9630   16.5360   33.3970 N.pl3  77  ARG77       0.1354
    103  NH2       50.9270   17.4050   35.2940 N.pl3  77  ARG77       0.1354
    104  N         50.9610   13.4650   29.6410 N.am   78  PHE78      -0.1974
    105  CA        50.6820   14.3400   28.5110 C.3    78  PHE78       0.1639
    106  C         50.6020   15.7430   29.1110 C.2    78  PHE78       0.2290
    107  O         49.7480   16.0280   29.8750 O.2    78  PHE78      -0.2864
    108  CB        49.3770   13.9110   27.8480 C.3    78  PHE78       0.0560
    109  CG        49.0750   14.5820   26.5600 C.ar   78  PHE78      -0.0200
    110  CD1       48.7700   15.9010   26.5140 C.ar   78  PHE78      -0.0042
    111  CD2       49.0470   13.8650   25.3980 C.ar   78  PHE78      -0.0042
    112  CE1       48.4870   16.5050   25.3330 C.ar   78  PHE78      -0.0003
    113  CE2       48.7650   14.4620   24.2050 C.ar   78  PHE78      -0.0003
    114  CZ        48.4830   15.7850   24.1800 C.ar   78  PHE78      -0.0000
    115  N         49.3750   20.4700   24.2890 N.3    81  SER81      -0.1217
    116  CA        49.3290   20.2950   22.8460 C.3    81  SER81       0.1889
    117  C         48.8560   21.5940   22.2110 C.2    81  SER81       0.2288
    118  O         47.9950   22.2800   22.7690 O.2    81  SER81      -0.2866
    119  CB        48.3990   19.1410   22.4550 C.3    81  SER81       0.2089
    120  OG        48.7370   18.6250   21.1790 O.3    81  SER81      -0.2183
    121  N         50.8330   19.5690   14.5440 N.3    92  ILE92      -0.1245
    122  CA        50.4400   19.5550   15.9460 C.3    92  ILE92       0.1561
    123  C         51.6380   19.1350   16.7870 C.2    92  ILE92       0.2260
    124  O         52.3390   18.1690   16.4580 O.2    92  ILE92      -0.2867
    125  CB        49.2120   18.6570   16.1960 C.3    92  ILE92       0.0252
    126  CG1       49.5050   17.1850   15.9150 C.3    92  ILE92       0.0019
    127  CG2       48.0340   19.1250   15.3520 C.3    92  ILE92       0.0019
    128  CD1       49.6250   16.3470   17.1700 C.3    92  ILE92       0.0001
    129  N         52.9750   18.1120   20.6740 N.3    94  LEU94      -0.1245
    130  CA        52.5770   17.6540   22.0010 C.3    94  LEU94       0.1561
    131  C         53.8070   17.4610   22.8660 C.2    94  LEU94       0.2260
    132  O         54.8070   16.8860   22.4230 O.2    94  LEU94      -0.2867
    133  CB        51.7600   16.3540   21.9780 C.3    94  LEU94       0.0270
    134  CG        52.2320   15.1130   21.2360 C.3    94  LEU94       0.0019
    135  CD1       51.7790   13.8460   21.9440 C.3    94  LEU94       0.0001
    136  CD2       51.5790   15.2020   19.9110 C.3    94  LEU94       0.0001
    137  N         55.2290   15.6780   26.1570 N.3    96  THR96      -0.1218
    138  CA        54.9780   14.5740   27.0730 C.3    96  THR96       0.1862
    139  C         56.2050   14.3170   27.9350 C.2    96  THR96       0.2287
    140  O         57.2820   14.8810   27.7290 O.2    96  THR96      -0.2866
    141  CB        54.5900   13.2730   26.3450 C.3    96  THR96       0.1770
    142  OG1       55.7250   12.7460   25.6500 O.3    96  THR96      -0.2211
    143  CG2       53.4630   13.5130   25.3580 C.3    96  THR96       0.0375
    144  N         38.7540    5.1190   28.4050 N.3   140  ILE140     -0.1245
    145  CA        39.7270    5.1350   27.3200 C.3   140  ILE140      0.1561
    146  C         40.1670    3.7050   27.0470 C.2   140  ILE140      0.2260
    147  O         40.5540    2.9780   27.9710 O.2   140  ILE140     -0.2867
    148  CB        40.9420    6.0140   27.6620 C.3   140  ILE140      0.0252
    149  CG1       40.5080    7.4410   27.9780 C.3   140  ILE140      0.0019
    150  CG2       41.9400    6.0030   26.5160 C.3   140  ILE140      0.0019
    151  CD1       41.5680    8.2340   28.6940 C.3   140  ILE140      0.0001
    152  N         52.6140    4.3750   27.4360 N.3   162  GLY162     -0.1210
    153  CA        52.6570    5.5880   26.6430 C.3   162  GLY162      0.1956
    154  C         52.0970    5.4100   25.2470 C.2   162  GLY162      0.2612
    155  O         51.5390    4.3560   24.9250 O.2   162  GLY162     -0.2717
    156  N         52.2480    6.4390   24.4130 N.am  163  ASP163     -0.1959
    157  CA        51.7650    6.4500   23.0310 C.3   163  ASP163      0.1840
    158  C         50.2900    6.0420   22.9590 C.2   163  ASP163      0.2622
    159  O         49.9200    4.9750   22.4690 O.2   163  ASP163     -0.2715
    160  CB        52.6330    5.5550   22.1380 C.3   163  ASP163      0.1450
    161  CG        54.0500    6.0830   21.9810 C.2   163  ASP163      0.3671
    162  OD1       54.3300    7.2050   22.4590 O.co2 163  ASP163     -0.2456
    163  OD2       54.8870    5.3820   21.3710 O.co2 163  ASP163     -0.2456
    164  N         49.4510    6.9400   23.4720 N.am  164  LEU164     -0.1963
    165  CA        48.0050    6.7820   23.3970 C.3   164  LEU164      0.1728
    166  C         47.4180    7.2680   22.0670 C.2   164  LEU164      0.2616
    167  O         46.2100    7.5290   21.9960 O.2   164  LEU164     -0.2715
    168  CB        47.3380    7.5140   24.5640 C.3   164  LEU164      0.0311
    169  CG        47.0260    6.6840   25.8110 C.3   164  LEU164      0.0022
    170  CD1       48.2880    6.3370   26.5950 C.3   164  LEU164      0.0001
    171  CD2       46.0160    7.4140   26.6840 C.3   164  LEU164      0.0001
    172  N         48.2380    7.3670   21.0140 N.am  165  GLY165     -0.1955
    173  CA        47.7810    7.9820   19.7760 C.3   165  GLY165      0.1869
    174  C         46.6990    7.2030   19.0530 C.2   165  GLY165      0.2309
    175  O         45.8980    7.7820   18.3160 O.2   165  GLY165     -0.2863
    176  N         44.3570    5.4800   20.6470 N.3   167  ALA167     -0.1231
    177  CA        43.2940    5.2050   21.6000 C.3   167  ALA167      0.1694
    178  C         41.9590    5.7850   21.1240 C.2   167  ALA167      0.2593
    179  O         41.8660    6.4800   20.1070 O.2   167  ALA167     -0.2718
    180  CB        43.6560    5.7620   22.9760 C.3   167  ALA167      0.0304
    181  N         40.9110    5.4830   21.8860 N.am  168  THR168     -0.1939
    182  CA        39.5590    5.9340   21.5890 C.3   168  THR168      0.2028
    183  C         38.7600    5.8910   22.8810 C.2   168  THR168      0.2642
    184  O         39.1670    5.2550   23.8570 O.2   168  THR168     -0.2714
    185  CB        38.8950    5.0660   20.5130 C.3   168  THR168      0.1808
    186  OG1       37.6240    5.6230   20.1600 O.3   168  THR168     -0.2208
    187  CG2       38.6870    3.6520   21.0280 C.3   168  THR168      0.0379
    188  N         37.6160    6.5650   22.8820 N.am  169  LEU169     -0.1977
    189  CA        36.7760    6.6300   24.0680 C.3   169  LEU169      0.1596
    190  C         35.5660    5.7110   23.9510 C.2   169  LEU169      0.2287
    191  O         35.2170    5.2330   22.8690 O.2   169  LEU169     -0.2864
    192  CB        36.3170    8.0630   24.3360 C.3   169  LEU169      0.0297
    193  CG        37.4100    9.0210   24.8080 C.3   169  LEU169      0.0022
    194  CD1       37.0460   10.4210   24.3600 C.3   169  LEU169      0.0001
    195  CD2       37.5930    8.9400   26.3290 C.3   169  LEU169      0.0001
@<TRIPOS>BOND
     1    21    20    2
     2    20    19    1
     3    18    19    1
     4    19    22    1
     5    28    26    1
     6    22    23    1
     7    26    25    2
     8    26    27    1
     9    25    24    1
    10    23    24    1
    11    13    12    2
    12    12    11    1
    13     1     2    1
    14     4     3    2
    15    11    14    1
    16    11    10    1
    17     2     3    1
    18     2     5    1
    19   121   122    1
    20    14    15    1
    21    16    15    1
    22   127   125    1
    23    15    17    1
    24     5     6    1
    25   126   125    1
    26   126   128    1
    27   122   125    1
    28   122   123    1
    29   124   123    2
    30     6     7    1
    31    33    34    1
    32    33    30    1
    33     7     8    1
    34    36    34   ar
    35    36    38   ar
    36    34    35   ar
    37    29    30    1
    38     8     9    1
    39   175   174    2
    40    38    39   ar
    41    35    37   ar
    42    30    31    1
    43   174   173    1
    44    39    37   ar
    45    47    46   ar
    46   173   172    1
    47   136   134    1
    48    48    46   ar
    49    31    32    2
    50   179   178    2
    51   186   185    1
    52    46    45    1
    53   185   187    1
    54   185   182    1
    55   176   177    1
    56   129   130    1
    57   172   166   am
    58   178   177    1
    59   178   181   am
    60   120   119    1
    61   134   135    1
    62   134   133    1
    63   163   161   ar
    64   182   181    1
    65   182   183    1
    66   177   180    1
    67    45    44    1
    68   133   130    1
    69   161   160    1
    70   161   162   ar
    71   167   166    2
    72   130   131    1
    73   166   165    1
    74   160   157    1
    75    44    41    1
    76   117   118    2
    77   117   116    1
    78   132   131    2
    79   119   116    1
    80   159   158    2
    81   116   115    1
    82   191   190    2
    83   183   188   am
    84   183   184    2
    85   188   189    1
    86    40    41    1
    87   158   157    1
    88   158   164   am
    89   157   156    1
    90    53    50    1
    91    41    42    1
    92   165   164    1
    93   165   168    1
    94    49    42   am
    95    49    50    1
    96   190   189    1
    97    42    43    2
    98    50    51    1
    99   189   192    1
   100    68    67    1
   101   114   113   ar
   102   114   112   ar
   103   113   111   ar
   104   192   193    1
   105   194   193    1
   106   156   154   am
   107   168   169    1
   108   193   195    1
   109   155   154    2
   110   154   153    1
   111   112   110   ar
   112   143   141    1
   113   111   109   ar
   114    67    69    1
   115    67    66    1
   116    51    52    2
   117   142   141    1
   118   169   170    1
   119   169   171    1
   120   137   138    1
   121    61    60    1
   122   141   138    1
   123    66    63    1
   124   110   109   ar
   125   150   148    1
   126   109   108    1
   127   153   152    1
   128   146   145    1
   129   146   147    2
   130   138   139    1
   131   145   148    1
   132   145   144    1
   133    54    55    1
   134    62    63    1
   135    62    56   am
   136   148   149    1
   137    60    59    1
   138    58    55    1
   139    58    59    1
   140   140   139    2
   141    63    64    1
   142   108   105    1
   143   149   151    1
   144    55    56    1
   145   105   106    1
   146   105   104    1
   147    56    57    2
   148    64    65    2
   149    91    90    1
   150   106   107    2
   151    96    95    2
   152    90    92    1
   153    90    87    1
   154   104    95   am
   155    76    75    1
   156    95    94    1
   157    89    88    2
   158    88    87    1
   159    88    93   am
   160    87    86    1
   161    75    77    1
   162    75    74    1
   163    93    94    1
   164    86    80   am
   165    84    82    1
   166    94    97    1
   167    85    83    1
   168    74    71    1
   169    97    98    1
   170    80    79    1
   171    80    81    2
   172    82    79    1
   173    82    83    1
   174    98    99    1
   175    79    78    1
   176    70    71    1
   177    71    72    1
   178   102   101    1
   179    73    72    2
   180    99   100    1
   181   101   100    2
   182   101   103    1
