@<TRIPOS>MOLECULE
tmp/5tfaA00.pdb
 97 93 0 0 0
SMALL
GASTEIGER

@<TRIPOS>ATOM
      1  N         97.0590   14.2050    7.7090 N.3    12  TRP12      -0.1227
      2  CA        97.7770   14.7930    6.5860 C.3    12  TRP12       0.1737
      3  C         99.2060   14.2930    6.5160 C.2    12  TRP12       0.2595
      4  O         99.7900   14.2340    5.4270 O.2    12  TRP12      -0.2718
      5  CB        97.8010   16.3140    6.6980 C.3    12  TRP12       0.0564
      6  CG        96.5570   16.9630    6.2460 C.ar   12  TRP12       0.0003
      7  CD1       95.7100   17.7150    6.9990 C.ar   12  TRP12       0.0946
      8  CD2       96.0020   16.9230    4.9290 C.ar   12  TRP12       0.0152
      9  NE1       94.6660   18.1590    6.2300 N.ar   12  TRP12      -0.2442
     10  CE2       94.8140   17.6780    4.9580 C.ar   12  TRP12       0.0810
     11  CE3       96.3930   16.3240    3.7280 C.ar   12  TRP12       0.0012
     12  CZ2       94.0160   17.8610    3.8290 C.ar   12  TRP12       0.0191
     13  CZ3       95.5970   16.4940    2.6160 C.ar   12  TRP12       0.0001
     14  CH2       94.4190   17.2560    2.6730 C.ar   12  TRP12       0.0015
     15  N         99.7790   13.9590    7.6650 N.am   13  GLU13      -0.1979
     16  CA       101.1600   13.5180    7.7750 C.3    13  GLU13       0.1602
     17  C        101.1750   12.2250    8.5820 C.2    13  GLU13       0.2287
     18  O        100.6250   12.1750    9.6880 O.2    13  GLU13      -0.2864
     19  CB       102.0210   14.6130    8.4240 C.3    13  GLU13       0.0415
     20  CG       101.7350   14.8710    9.9200 C.3    13  GLU13       0.1163
     21  CD       100.8530   16.0940   10.1990 C.2    13  GLU13       0.3649
     22  OE1      101.0320   16.7230   11.2700 O.co2  13  GLU13      -0.2457
     23  OE2       99.9760   16.4240    9.3660 O.co2  13  GLU13      -0.2457
     24  N         94.0430   15.0340   11.8200 N.3    19  VAL19      -0.1245
     25  CA        93.3540   16.2740   11.4610 C.3    19  VAL19       0.1561
     26  C         91.8440   16.1390   11.6460 C.2    19  VAL19       0.2260
     27  O         91.1480   17.1480   11.8580 O.2    19  VAL19      -0.2867
     28  CB        93.7110   16.6890   10.0210 C.3    19  VAL19       0.0252
     29  CG1       93.2780   15.6330    9.0290 C.3    19  VAL19       0.0019
     30  CG2       93.0900   18.0340    9.6790 C.3    19  VAL19       0.0019
     31  N         89.6910   28.1210   13.8420 N.3    39  THR39      -0.1203
     32  CA        90.7040   27.9470   12.8150 C.3    39  THR39       0.1994
     33  C         91.5440   26.7190   13.1470 C.2    39  THR39       0.2618
     34  O         91.8150   26.4320   14.3150 O.2    39  THR39      -0.2717
     35  CB        91.5640   29.2220   12.6810 C.3    39  THR39       0.1784
     36  OG1       92.5790   29.0130   11.6970 O.3    39  THR39      -0.2211
     37  CG2       92.2180   29.6090   14.0110 C.3    39  THR39       0.0376
     38  N         91.8720   25.9390   12.1210 N.am   40  GLY40      -0.1942
     39  CA        92.5970   24.7010   12.3130 C.3    40  GLY40       0.2014
     40  C         91.7800   23.5290   12.8070 C.2    40  GLY40       0.2639
     41  O         92.3470   22.4560   13.0310 O.2    40  GLY40      -0.2714
     42  N         90.4610   23.6800   12.9440 N.am   41  ALA41      -0.1963
     43  CA        89.6520   22.6040   13.5030 C.3    41  ALA41       0.1728
     44  C         89.4840   21.4280   12.5550 C.2    41  ALA41       0.2617
     45  O         89.1570   20.3300   13.0210 O.2    41  ALA41      -0.2715
     46  CB        88.2700   23.1240   13.8890 C.3    41  ALA41       0.0334
     47  N         89.6550   21.6350   11.2430 N.am   42  GLY42      -0.1940
     48  CA        89.5810   20.5400   10.2870 C.3    42  GLY42       0.2014
     49  C         88.4650   20.6540    9.2600 C.2    42  GLY42       0.2639
     50  O         88.1840   19.6890    8.5480 O.2    42  GLY42      -0.2714
     51  N         87.8480   21.8380    9.1540 N.am   43  LYS43      -0.1963
     52  CA        86.6640   22.0070    8.3070 C.3    43  LYS43       0.1728
     53  C         87.0140   21.8580    6.8260 C.2    43  LYS43       0.2617
     54  O         86.3960   21.0660    6.1100 O.2    43  LYS43      -0.2715
     55  CB        86.0200   23.3680    8.5860 C.3    43  LYS43       0.0311
     56  CG        85.7760   23.6650   10.0850 C.3    43  LYS43       0.0038
     57  CD        85.1120   25.0260   10.3310 C.3    43  LYS43       0.0206
     58  CE        86.0420   26.1930    9.9760 C.3    43  LYS43       0.1093
     59  NZ        87.2910   26.2710   10.8190 N.3    43  LYS43      -0.1314
     60  N         88.0040   22.6080    6.3440 N.am   44  THR44      -0.1937
     61  CA        88.4180   22.4410    4.9520 C.3    44  THR44       0.2028
     62  C         88.9290   21.0280    4.7030 C.2    44  THR44       0.2642
     63  O         88.6510   20.4340    3.6540 O.2    44  THR44      -0.2714
     64  CB        89.4840   23.4780    4.5930 C.3    44  THR44       0.1808
     65  OG1       88.9770   24.8000    4.8400 O.3    44  THR44      -0.2208
     66  CG2       89.9390   23.3570    3.1320 C.3    44  THR44       0.0379
     67  N         89.6650   20.4630    5.6690 N.am   45  SER45      -0.1949
     68  CA        90.1550   19.0960    5.5260 C.3    45  SER45       0.1924
     69  C         89.0090   18.1090    5.3410 C.2    45  SER45       0.2314
     70  O         89.1320   17.1290    4.5930 O.2    45  SER45      -0.2863
     71  CB        91.0020   18.7130    6.7450 C.3    45  SER45       0.2116
     72  OG        92.1480   19.5440    6.8370 O.3    45  SER45      -0.2180
     73  N         88.0070   18.3420    1.8390 N.3    48  MET48      -0.1245
     74  CA        89.0310   17.6840    1.0260 C.3    48  MET48       0.1570
     75  C         88.8460   16.1720    1.0240 C.2    48  MET48       0.2261
     76  O         89.0740   15.5080    0.0050 O.2    48  MET48      -0.2867
     77  CB        90.4290   18.0350    1.5470 C.3    48  MET48       0.0387
     78  CG        90.7960   19.5220    1.5460 C.3    48  MET48       0.0595
     79  SD        91.0470   20.2550   -0.0780 S.3    48  MET48      -0.1393
     80  CE        92.8440   20.2770   -0.1890 C.3    48  MET48       0.0692
     81  N         87.4960   28.8280    0.3820 N.3    72  GLN72      -0.1245
     82  CA        87.4470   29.9700    1.2830 C.3    72  GLN72       0.1566
     83  C         88.3240   31.1140    0.8170 C.2    72  GLN72       0.2260
     84  O         88.1790   32.2250    1.3320 O.2    72  GLN72      -0.2867
     85  CB        87.8600   29.5750    2.7010 C.3    72  GLN72       0.0367
     86  CG        89.3590   29.3800    2.8720 C.3    72  GLN72       0.0905
     87  CD        89.6720   28.7450    4.2190 C.2    72  GLN72       0.2608
     88  OE1       89.5830   27.5340    4.3610 O.2    72  GLN72      -0.2717
     89  NE2       90.0030   29.5680    5.2160 N.am   72  GLN72      -0.0878
     90  N         82.9390   26.4810    1.2310 N.3   151  ASP151     -0.1239
     91  CA        83.8720   26.6640    2.3480 C.3   151  ASP151      0.1674
     92  C         83.9690   28.1510    2.7000 C.2   151  ASP151      0.2266
     93  O         84.7000   28.8990    2.0520 O.2   151  ASP151     -0.2867
     94  CB        85.2370   26.0960    1.9780 C.3   151  ASP151      0.1410
     95  CG        86.1310   25.8570    3.1930 C.2   151  ASP151      0.3668
     96  OD1       85.7820   26.3370    4.2840 O.co2 151  ASP151     -0.2456
     97  OD2       87.1940   25.2070    3.0440 O.co2 151  ASP151     -0.2456
@<TRIPOS>BOND
     1    80    79    1
     2    79    78    1
     3    76    75    2
     4    81    82    1
     5    83    82    1
     6    83    84    2
     7    75    74    1
     8    74    77    1
     9    74    73    1
    10    90    91    1
    11    82    85    1
    12    78    77    1
    13    94    91    1
    14    94    95    1
    15    93    92    2
    16    91    92    1
    17    13    14   ar
    18    13    11   ar
    19    14    12   ar
    20    85    86    1
    21    86    87    1
    22    97    95   ar
    23    66    64    1
    24    95    96   ar
    25    63    62    2
    26    11     8   ar
    27    12    10   ar
    28    87    88    2
    29    87    89   am
    30    70    69    2
    31    64    65    1
    32    64    61    1
    33    62    61    1
    34    62    67   am
    35     8    10   ar
    36     8     6   ar
    37    61    60    1
    38    10     9   ar
    39    69    68    1
    40     4     3    2
    41    68    67    1
    42    68    71    1
    43    54    53    2
    44     9     7   ar
    45     6     5    1
    46     6     7   ar
    47    60    53   am
    48     3     2    1
    49     3    15   am
    50     2     5    1
    51     2     1    1
    52    71    72    1
    53    53    52    1
    54    15    16    1
    55    16    19    1
    56    16    17    1
    57    52    55    1
    58    52    51    1
    59    19    20    1
    60    50    49    2
    61    17    18    2
    62    55    56    1
    63    29    28    1
    64    51    49   am
    65    49    48    1
    66    23    21   ar
    67    30    28    1
    68    20    21    1
    69    58    57    1
    70    58    59    1
    71    28    25    1
    72    56    57    1
    73    21    22   ar
    74    48    47    1
    75    47    44   am
    76    25    26    1
    77    25    24    1
    78    26    27    2
    79    36    35    1
    80    38    39    1
    81    38    33   am
    82    39    40    1
    83    44    45    2
    84    44    43    1
    85    35    32    1
    86    35    37    1
    87    40    42   am
    88    40    41    2
    89    32    33    1
    90    32    31    1
    91    42    43    1
    92    33    34    2
    93    43    46    1
