@<TRIPOS>MOLECULE
tmp/5tfbA00.pdb
 80 77 0 0 0
SMALL
GASTEIGER

@<TRIPOS>ATOM
      1  N         23.3480   14.4120   -6.8160 N.3    12  TRP12      -0.1241
      2  CA        22.6720   14.9680   -5.6640 C.3    12  TRP12       0.1605
      3  C         21.2610   14.4250   -5.5250 C.2    12  TRP12       0.2264
      4  O         20.7600   14.3390   -4.4020 O.2    12  TRP12      -0.2867
      5  CB        22.5900   16.4780   -5.7600 C.3    12  TRP12       0.0550
      6  CG        23.8270   17.1370   -5.3150 C.ar   12  TRP12       0.0003
      7  CD1       24.6320   17.9110   -6.0740 C.ar   12  TRP12       0.0946
      8  CD2       24.3890   17.1140   -3.9990 C.ar   12  TRP12       0.0152
      9  NE1       25.6690   18.3800   -5.3090 N.ar   12  TRP12      -0.2442
     10  CE2       25.5460   17.9000   -4.0340 C.ar   12  TRP12       0.0810
     11  CE3       24.0310   16.4960   -2.7870 C.ar   12  TRP12       0.0012
     12  CZ2       26.3510   18.0900   -2.9160 C.ar   12  TRP12       0.0191
     13  CZ3       24.8290   16.6800   -1.7000 C.ar   12  TRP12       0.0001
     14  CH2       25.9830   17.4620   -1.7620 C.ar   12  TRP12       0.0015
     15  N         26.4190   15.1880  -10.8170 N.3    19  VAL19      -0.1245
     16  CA        27.0830   16.4510  -10.4890 C.3    19  VAL19       0.1561
     17  C         28.5930   16.3420  -10.7060 C.2    19  VAL19       0.2260
     18  O         29.2610   17.3650  -10.9510 O.2    19  VAL19      -0.2867
     19  CB        26.7470   16.8820   -9.0550 C.3    19  VAL19       0.0252
     20  CG1       27.1820   15.8480   -8.0290 C.3    19  VAL19       0.0019
     21  CG2       27.4030   18.2800   -8.7540 C.3    19  VAL19       0.0019
     22  N         30.7950   28.4400  -12.9020 N.3    39  THR39      -0.1203
     23  CA        29.7900   28.2130  -11.8650 C.3    39  THR39       0.1994
     24  C         28.9570   26.9710  -12.1880 C.2    39  THR39       0.2618
     25  O         28.6800   26.6680  -13.3580 O.2    39  THR39      -0.2717
     26  CB        28.8970   29.4730  -11.6770 C.3    39  THR39       0.1784
     27  OG1       27.9020   29.2180  -10.6740 O.3    39  THR39      -0.2211
     28  CG2       28.2120   29.8700  -12.9490 C.3    39  THR39       0.0376
     29  N         28.6110   26.2150  -11.1480 N.am   40  GLY40      -0.1942
     30  CA        27.9010   24.9490  -11.2930 C.3    40  GLY40       0.2014
     31  C         28.7390   23.8010  -11.8200 C.2    40  GLY40       0.2639
     32  O         28.2140   22.7250  -12.0600 O.2    40  GLY40      -0.2714
     33  N         30.0460   23.9780  -11.9930 N.am   41  ALA41      -0.1963
     34  CA        30.8370   22.8760  -12.5480 C.3    41  ALA41       0.1728
     35  C         30.9380   21.6840  -11.6200 C.2    41  ALA41       0.2617
     36  O         31.3170   20.6100  -12.1050 O.2    41  ALA41      -0.2715
     37  CB        32.2750   23.3110  -12.8590 C.3    41  ALA41       0.0334
     38  N         30.7240   21.8610  -10.2930 N.am   42  GLY42      -0.1940
     39  CA        30.8680   20.7750   -9.3440 C.3    42  GLY42       0.2014
     40  C         32.0070   20.9060   -8.3180 C.2    42  GLY42       0.2639
     41  O         32.2660   19.9470   -7.6030 O.2    42  GLY42      -0.2714
     42  N         32.6370   22.0770   -8.1950 N.am   43  LYS43      -0.1963
     43  CA        33.8380   22.2380   -7.3690 C.3    43  LYS43       0.1728
     44  C         33.4970   22.0980   -5.8970 C.2    43  LYS43       0.2617
     45  O         34.1040   21.3100   -5.1760 O.2    43  LYS43      -0.2715
     46  CB        34.4660   23.6160   -7.6580 C.3    43  LYS43       0.0311
     47  CG        34.7560   23.8870   -9.1820 C.3    43  LYS43       0.0038
     48  CD        35.4360   25.2550   -9.4320 C.3    43  LYS43       0.0206
     49  CE        34.5430   26.4850   -8.9840 C.3    43  LYS43       0.1093
     50  NZ        33.2600   26.5690   -9.7620 N.3    43  LYS43      -0.1314
     51  N         32.4900   22.8320   -5.4330 N.am   44  THR44      -0.1937
     52  CA        32.0950   22.6760   -4.0300 C.3    44  THR44       0.2028
     53  C         31.5550   21.2800   -3.7690 C.2    44  THR44       0.2642
     54  O         31.8140   20.7070   -2.7040 O.2    44  THR44      -0.2714
     55  CB        31.0520   23.7130   -3.6540 C.3    44  THR44       0.1808
     56  OG1       31.6260   25.0140   -3.8510 O.3    44  THR44      -0.2208
     57  CG2       30.5850   23.5780   -2.1530 C.3    44  THR44       0.0379
     58  N         30.8150   20.6980   -4.7360 N.am   45  SER45      -0.1949
     59  CA        30.3120   19.3470   -4.5270 C.3    45  SER45       0.1924
     60  C         31.4560   18.3480   -4.3890 C.2    45  SER45       0.2314
     61  O         31.3460   17.3470   -3.6750 O.2    45  SER45      -0.2863
     62  CB        29.3710   18.9470   -5.6700 C.3    45  SER45       0.2116
     63  OG        28.2640   19.8530   -5.6620 O.3    45  SER45      -0.2180
     64  N         32.5730   18.5280   -0.9300 N.3    48  MET48      -0.1245
     65  CA        31.6100   17.8570   -0.0510 C.3    48  MET48       0.1570
     66  C         31.7680   16.3460   -0.0720 C.2    48  MET48       0.2261
     67  O         31.5270   15.6760    0.9450 O.2    48  MET48      -0.2867
     68  CB        30.1970   18.2370   -0.4530 C.3    48  MET48       0.0387
     69  CG        30.1260   19.6910   -0.3690 C.3    48  MET48       0.0595
     70  SD        28.5080   20.2350   -0.1670 S.3    48  MET48      -0.1393
     71  CE        28.1190   20.6910   -1.7140 C.3    48  MET48       0.0692
     72  N         33.0660   29.1210    0.4500 N.3    72  GLN72      -0.1245
     73  CA        33.0940   30.2480   -0.5000 C.3    72  GLN72       0.1566
     74  C         32.2370   31.4050   -0.0160 C.2    72  GLN72       0.2260
     75  O         32.4230   32.5090   -0.5100 O.2    72  GLN72      -0.2867
     76  CB        32.6770   29.7280   -1.9410 C.3    72  GLN72       0.0367
     77  CG        31.1770   29.5820   -2.5130 C.3    72  GLN72       0.0905
     78  CD        30.9910   28.2730   -3.4780 C.2    72  GLN72       0.2608
     79  OE1       30.9260   27.2080   -2.9580 O.2    72  GLN72      -0.2717
     80  NE2       30.9180   28.4160   -4.7380 N.am   72  GLN72      -0.0878
@<TRIPOS>BOND
     1    25    24    2
     2    28    26    1
     3    22    23    1
     4    37    34    1
     5    34    33    1
     6    34    35    1
     7    24    23    1
     8    24    29   am
     9    36    35    2
    10    32    31    2
    11    33    31   am
    12    23    26    1
    13    31    30    1
    14    26    27    1
    15    35    38   am
    16    30    29    1
    17    18    17    2
    18    15    16    1
    19    17    16    1
    20    16    19    1
    21    38    39    1
    22    50    49    1
    23    48    47    1
    24    48    49    1
    25    39    40    1
    26    47    46    1
    27    19    21    1
    28    19    20    1
    29    40    42   am
    30    40    41    2
    31    42    43    1
    32    46    43    1
    33    43    44    1
    34     1     2    1
    35     7     6   ar
    36     7     9   ar
    37    44    51   am
    38    44    45    2
    39     5     2    1
    40     5     6    1
    41    62    63    1
    42    62    59    1
    43     2     3    1
    44     3     4    2
    45    51    52    1
    46     6     8   ar
    47     9    10   ar
    48    80    78   am
    49    58    59    1
    50    58    53   am
    51    59    60    1
    52    60    61    2
    53    10     8   ar
    54    10    12   ar
    55    52    53    1
    56    52    55    1
    57     8    11   ar
    58    56    55    1
    59    53    54    2
    60    55    57    1
    61    78    79    2
    62    78    77    1
    63    12    14   ar
    64    11    13   ar
    65    77    76    1
    66    76    73    1
    67    14    13   ar
    68    71    70    1
    69    64    65    1
    70    75    74    2
    71    73    74    1
    72    73    72    1
    73    68    69    1
    74    68    65    1
    75    69    70    1
    76    66    65    1
    77    66    67    2
