@<TRIPOS>MOLECULE
tmp/5tfuA01.pdb
 160 149 0 0 0
SMALL
GASTEIGER

@<TRIPOS>ATOM
      1  N         -9.7730   31.0810   15.5290 N.3    61  THR61      -0.1218
      2  CA        -9.2290   32.0260   14.5620 C.3    61  THR61       0.1862
      3  C         -9.1500   33.4330   15.1480 C.2    61  THR61       0.2287
      4  O         -8.5080   34.3160   14.5780 O.2    61  THR61      -0.2866
      5  CB       -10.0710   32.0680   13.2760 C.3    61  THR61       0.1770
      6  OG1      -11.4440   32.3050   13.6100 O.3    61  THR61      -0.2211
      7  CG2       -9.9600   30.7580   12.5220 C.3    61  THR61       0.0375
      8  N         -5.8630   34.7930   15.6280 N.3    64  LEU64      -0.1245
      9  CA        -5.2000   35.2660   14.4190 C.3    64  LEU64       0.1561
     10  C         -5.7510   36.6080   13.9400 C.2    64  LEU64       0.2260
     11  O         -5.3710   37.0960   12.8750 O.2    64  LEU64      -0.2867
     12  CB        -5.3300   34.2190   13.3100 C.3    64  LEU64       0.0270
     13  CG        -4.9150   32.7970   13.7030 C.3    64  LEU64       0.0019
     14  CD1       -5.2130   31.8120   12.5850 C.3    64  LEU64       0.0001
     15  CD2       -3.4440   32.7490   14.0860 C.3    64  LEU64       0.0001
     16  N         -9.1440   37.3470   13.5680 N.3    66  PHE66      -0.1241
     17  CA       -10.3790   37.2000   12.8040 C.3    66  PHE66       0.1605
     18  C        -11.5310   37.9540   13.4600 C.2    66  PHE66       0.2264
     19  O        -11.7940   37.7880   14.6520 O.2    66  PHE66      -0.2867
     20  CB       -10.7440   35.7210   12.6520 C.3    66  PHE66       0.0534
     21  CG       -10.0620   35.0400   11.4990 C.ar   66  PHE66      -0.0203
     22  CD1      -10.8000   34.5560   10.4300 C.ar   66  PHE66      -0.0042
     23  CD2       -8.6850   34.8800   11.4830 C.ar   66  PHE66      -0.0042
     24  CE1      -10.1780   33.9250    9.3680 C.ar   66  PHE66      -0.0003
     25  CE2       -8.0590   34.2510   10.4220 C.ar   66  PHE66      -0.0003
     26  CZ        -8.8060   33.7740    9.3650 C.ar   66  PHE66      -0.0000
     27  N        -10.9330   32.1430    2.6630 N.3    74  PHE74      -0.1227
     28  CA       -10.9650   30.6900    2.7880 C.3    74  PHE74       0.1736
     29  C        -11.9170   30.1950    3.8710 C.2    74  PHE74       0.2595
     30  O        -12.7440   29.3210    3.6210 O.2    74  PHE74      -0.2718
     31  CB        -9.5550   30.1640    3.0610 C.3    74  PHE74       0.0547
     32  CG        -9.4340   28.6730    2.9580 C.ar   74  PHE74      -0.0202
     33  CD1       -9.2800   28.0640    1.7250 C.ar   74  PHE74      -0.0042
     34  CD2       -9.4700   27.8810    4.0940 C.ar   74  PHE74      -0.0042
     35  CE1       -9.1670   26.6900    1.6250 C.ar   74  PHE74      -0.0003
     36  CE2       -9.3560   26.5080    4.0000 C.ar   74  PHE74      -0.0003
     37  CZ        -9.2040   25.9130    2.7650 C.ar   74  PHE74      -0.0000
     38  N        -11.7960   30.7490    5.0740 N.am   75  LEU75      -0.1980
     39  CA       -12.6270   30.3220    6.1980 C.3    75  LEU75       0.1596
     40  C        -13.7960   31.2660    6.4550 C.2    75  LEU75       0.2287
     41  O        -14.5700   31.0570    7.3880 O.2    75  LEU75      -0.2864
     42  CB       -11.7870   30.1980    7.4710 C.3    75  LEU75       0.0297
     43  CG       -10.9100   28.9540    7.6140 C.3    75  LEU75       0.0022
     44  CD1      -10.1390   29.0000    8.9230 C.3    75  LEU75       0.0001
     45  CD2      -11.7590   27.6980    7.5360 C.3    75  LEU75       0.0001
     46  N          4.9500   28.2190    6.9680 N.3   163  ALA163     -0.1245
     47  CA         3.7280   27.8570    6.2630 C.3   163  ALA163      0.1562
     48  C          3.5080   26.3510    6.2800 C.2   163  ALA163      0.2260
     49  O          2.3820   25.8790    6.4340 O.2   163  ALA163     -0.2867
     50  CB         3.7730   28.3650    4.8370 C.3   163  ALA163      0.0290
     51  N          2.5330   25.3920    9.7320 N.3   166  GLY166     -0.1210
     52  CA         1.1930   25.8720   10.0090 C.3   166  GLY166      0.1956
     53  C          0.1270   24.9380    9.4700 C.2   166  GLY166      0.2611
     54  O         -1.0020   24.9220    9.9600 O.2   166  GLY166     -0.2717
     55  N          0.4880   24.1600    8.4540 N.am  167  LEU167     -0.1979
     56  CA        -0.4260   23.1830    7.8760 C.3   167  LEU167      0.1596
     57  C         -0.6550   22.0250    8.8410 C.2   167  LEU167      0.2287
     58  O         -1.7700   21.5200    8.9670 O.2   167  LEU167     -0.2864
     59  CB         0.1140   22.6610    6.5430 C.3   167  LEU167      0.0297
     60  CG        -0.7060   21.5620    5.8620 C.3   167  LEU167      0.0022
     61  CD1       -2.1150   22.0460    5.5640 C.3   167  LEU167      0.0001
     62  CD2       -0.0220   21.0830    4.5920 C.3   167  LEU167      0.0001
     63  N         -3.0620   22.7080   11.6490 N.3   170  GLU170     -0.1245
     64  CA        -4.4490   22.6280   11.2100 C.3   170  GLU170      0.1567
     65  C         -4.9880   21.2220   11.4380 C.2   170  GLU170      0.2260
     66  O         -6.1720   21.0340   11.7190 O.2   170  GLU170     -0.2867
     67  CB        -4.5720   23.0080    9.7330 C.3   170  GLU170      0.0388
     68  CG        -5.9890   23.3250    9.2850 C.3   170  GLU170      0.1160
     69  CD        -6.3080   24.8050    9.3750 C.2   170  GLU170      0.3649
     70  OE1       -5.4040   25.5890    9.7340 O.co2 170  GLU170     -0.2457
     71  OE2       -7.4610   25.1850    9.0800 O.co2 170  GLU170     -0.2457
     72  N         -6.4820   21.1920   18.3460 N.3   175  ARG175     -0.1245
     73  CA        -7.3390   22.1710   17.6860 C.3   175  ARG175      0.1563
     74  C         -8.8170   21.9490   17.9960 C.2   175  ARG175      0.2260
     75  O         -9.4870   22.8410   18.5170 O.2   175  ARG175     -0.2867
     76  CB        -7.1230   22.1330   16.1710 C.3   175  ARG175      0.0307
     77  CG        -7.9960   23.1100   15.3980 C.3   175  ARG175      0.0489
     78  CD        -8.0060   22.7950   13.9120 C.3   175  ARG175      0.2205
     79  NE        -8.7160   23.8120   13.1420 N.pl3 175  ARG175     -0.0865
     80  CZ        -8.1220   24.8290   12.5270 C.cat 175  ARG175      0.5346
     81  NH1       -6.8040   24.9620   12.5880 N.pl3 175  ARG175      0.1354
     82  NH2       -8.8420   25.7120   11.8490 N.pl3 175  ARG175      0.1354
     83  N          1.4860   29.3350   13.0470 N.3   198  GLN198     -0.1245
     84  CA         0.6190   30.1200   12.1760 C.3   198  GLN198      0.1566
     85  C          0.7130   31.6100   12.4900 C.2   198  GLN198      0.2260
     86  O          0.7130   32.4430   11.5850 O.2   198  GLN198     -0.2867
     87  CB        -0.8310   29.6530   12.2920 C.3   198  GLN198      0.0367
     88  CG        -1.1060   28.3140   11.6340 C.3   198  GLN198      0.0905
     89  CD        -2.5830   28.0850   11.3880 C.2   198  GLN198      0.2608
     90  OE1       -3.4190   28.9140   11.7450 O.2   198  GLN198     -0.2717
     91  NE2       -2.9130   26.9580   10.7680 N.am  198  GLN198     -0.0878
     92  N          3.8090   32.8480   11.1010 N.3   201  PHE201     -0.1227
     93  CA         3.6380   33.0480    9.6680 C.3   201  PHE201      0.1736
     94  C          2.9810   34.3960    9.3860 C.2   201  PHE201      0.2595
     95  O          3.3560   35.0950    8.4460 O.2   201  PHE201     -0.2718
     96  CB         2.8090   31.9070    9.0710 C.3   201  PHE201      0.0547
     97  CG         2.5750   32.0300    7.5920 C.ar  201  PHE201     -0.0202
     98  CD1        3.5730   31.7100    6.6890 C.ar  201  PHE201     -0.0042
     99  CD2        1.3490   32.4500    7.1060 C.ar  201  PHE201     -0.0042
    100  CE1        3.3560   31.8200    5.3280 C.ar  201  PHE201     -0.0003
    101  CE2        1.1250   32.5610    5.7480 C.ar  201  PHE201     -0.0003
    102  CZ         2.1300   32.2460    4.8570 C.ar  201  PHE201     -0.0000
    103  N          2.0020   34.7560   10.2110 N.am  202  LEU202     -0.1980
    104  CA         1.3300   36.0460   10.0940 C.3   202  LEU202      0.1596
    105  C          2.2920   37.1980   10.3570 C.2   202  LEU202      0.2287
    106  O          2.3210   38.1770    9.6110 O.2   202  LEU202     -0.2864
    107  CB         0.1490   36.1280   11.0620 C.3   202  LEU202      0.0297
    108  CG        -1.2510   36.0830   10.4510 C.3   202  LEU202      0.0022
    109  CD1       -2.3120   36.1860   11.5370 C.3   202  LEU202      0.0001
    110  CD2       -1.4190   37.1910    9.4220 C.3   202  LEU202      0.0001
    111  N         -4.9110   38.8680    6.4120 N.3   251  ILE251     -0.1245
    112  CA        -5.5640   37.5650    6.4340 C.3   251  ILE251      0.1561
    113  C         -5.8660   37.0730    5.0210 C.2   251  ILE251      0.2260
    114  O         -5.6000   35.9150    4.6900 O.2   251  ILE251     -0.2867
    115  CB        -6.8650   37.6020    7.2580 C.3   251  ILE251      0.0252
    116  CG1       -6.5450   37.8720    8.7270 C.3   251  ILE251      0.0019
    117  CG2       -7.6210   36.2900    7.1240 C.3   251  ILE251      0.0019
    118  CD1       -7.7570   37.8300    9.6280 C.3   251  ILE251      0.0001
    119  N         -2.6280   36.1350    3.4160 N.3   254  ALA254     -0.1231
    120  CA        -2.1810   34.8690    3.9920 C.3   254  ALA254      0.1694
    121  C         -2.9880   33.6930    3.4500 C.2   254  ALA254      0.2592
    122  O         -2.4690   32.5880    3.3010 O.2   254  ALA254     -0.2718
    123  CB        -2.2720   34.9130    5.5080 C.3   254  ALA254      0.0304
    124  N         -4.2620   33.9380    3.1630 N.am  255  ASP255     -0.1974
    125  CA        -5.1220   32.9210    2.5730 C.3   255  ASP255      0.1709
    126  C         -4.6450   32.5570    1.1720 C.2   255  ASP255      0.2293
    127  O         -4.3710   31.3930    0.8870 O.2   255  ASP255     -0.2864
    128  CB        -6.5740   33.4020    2.5300 C.3   255  ASP255      0.1436
    129  CG        -7.3080   33.1680    3.8360 C.2   255  ASP255      0.3671
    130  OD1       -8.4860   33.5740    3.9350 O.co2 255  ASP255     -0.2456
    131  OD2       -6.7150   32.5650    4.7560 O.co2 255  ASP255     -0.2456
    132  N         -0.9460   30.9080    1.2930 N.3   258  SER258     -0.1202
    133  CA        -0.8770   29.5410    1.7950 C.3   258  SER258      0.2020
    134  C         -1.5900   28.5450    0.8850 C.2   258  SER258      0.2618
    135  O         -1.0970   27.4410    0.6590 O.2   258  SER258     -0.2717
    136  CB        -1.4670   29.4680    3.2040 C.3   258  SER258      0.2103
    137  OG        -2.7870   29.9770    3.2260 O.3   258  SER258     -0.2182
    138  N         -2.7470   28.9420    0.3630 N.am  259  ALA259     -0.1979
    139  CA        -3.5740   28.0510   -0.4470 C.3   259  ALA259      0.1597
    140  C         -2.8770   27.6170   -1.7330 C.2   259  ALA259      0.2287
    141  O         -2.7700   26.4240   -2.0160 O.2   259  ALA259     -0.2864
    142  CB        -4.8970   28.7160   -0.7740 C.3   259  ALA259      0.0319
    143  N          0.8640   25.1930   -1.2590 N.3   262  VAL262     -0.1245
    144  CA         0.9850   23.8310   -0.7700 C.3   262  VAL262      0.1561
    145  C          0.1900   22.8950   -1.6800 C.2   262  VAL262      0.2260
    146  O          0.4240   21.6850   -1.7150 O.2   262  VAL262     -0.2867
    147  CB         0.5030   23.7230    0.6960 C.3   262  VAL262      0.0252
    148  CG1       -0.9650   24.1120    0.8120 C.3   262  VAL262      0.0019
    149  CG2        0.7550   22.3280    1.2560 C.3   262  VAL262      0.0019
    150  N         -4.8520   16.3220    5.4240 N.3   437  PHE437     -0.1241
    151  CA        -5.8870   17.1360    4.8000 C.3   437  PHE437      0.1605
    152  C         -5.4390   17.4600    3.3810 C.2   437  PHE437      0.2264
    153  O         -6.2550   17.7210    2.4970 O.2   437  PHE437     -0.2867
    154  CB        -6.1590   18.4100    5.6010 C.3   437  PHE437      0.0534
    155  CG        -6.8940   18.1690    6.8910 C.ar  437  PHE437     -0.0203
    156  CD1       -7.4170   16.9180    7.1860 C.ar  437  PHE437     -0.0042
    157  CD2       -7.0720   19.1950    7.8040 C.ar  437  PHE437     -0.0042
    158  CE1       -8.0940   16.6950    8.3700 C.ar  437  PHE437     -0.0003
    159  CE2       -7.7500   18.9770    8.9910 C.ar  437  PHE437     -0.0003
    160  CZ        -8.2610   17.7260    9.2730 C.ar  437  PHE437     -0.0000
@<TRIPOS>BOND
     1   141   140    2
     2   140   139    1
     3   146   145    2
     4   145   144    1
     5   143   144    1
     6   142   139    1
     7   144   147    1
     8   139   138    1
     9   138   134   am
    10   135   134    2
    11   147   148    1
    12   147   149    1
    13   134   133    1
    14   127   126    2
    15   126   125    1
    16   132   133    1
    17    35    33   ar
    18    35    37   ar
    19    33    32   ar
    20   133   136    1
    21   153   152    2
    22   128   125    1
    23   128   129    1
    24   125   124    1
    25    27    28    1
    26    37    36   ar
    27    28    31    1
    28    28    29    1
    29    32    31    1
    30    32    34   ar
    31   124   121   am
    32   136   137    1
    33   122   121    2
    34   152   151    1
    35   119   120    1
    36   121   120    1
    37    30    29    2
    38   129   130   ar
    39   129   131   ar
    40    29    38   am
    41   120   123    1
    42    36    34   ar
    43    62    60    1
    44   114   113    2
    45   151   150    1
    46   151   154    1
    47    50    47    1
    48   102   100   ar
    49   102   101   ar
    50   113   112    1
    51    38    39    1
    52   100    98   ar
    53    61    60    1
    54   154   155    1
    55   101    99   ar
    56    60    59    1
    57    39    40    1
    58    39    42    1
    59    47    48    1
    60    47    46    1
    61    48    49    2
    62   111   112    1
    63   112   115    1
    64    40    41    2
    65    59    56    1
    66    98    97   ar
    67   155   156   ar
    68   155   157   ar
    69    99    97   ar
    70   117   115    1
    71   156   158   ar
    72   115   116    1
    73    42    43    1
    74    45    43    1
    75    97    96    1
    76    43    44    1
    77   157   159   ar
    78    56    55    1
    79    56    57    1
    80   158   160   ar
    81    95    94    2
    82    55    53   am
    83   116   118    1
    84    57    58    2
    85   159   160   ar
    86    96    93    1
    87    71    69   ar
    88    68    69    1
    89    68    67    1
    90    26    24   ar
    91    26    25   ar
    92    24    22   ar
    93    69    70   ar
    94    94    93    1
    95    94   103   am
    96   110   108    1
    97    53    54    2
    98    53    52    1
    99   106   105    2
   100    93    92    1
   101    51    52    1
   102    67    64    1
   103   104   103    1
   104   104   105    1
   105   104   107    1
   106    25    23   ar
   107    22    21   ar
   108   108   107    1
   109   108   109    1
   110    91    89   am
   111    64    65    1
   112    64    63    1
   113    89    88    1
   114    89    90    2
   115    65    66    2
   116    23    21   ar
   117    21    20    1
   118    86    85    2
   119    88    87    1
   120    82    80    1
   121    84    87    1
   122    84    85    1
   123    84    83    1
   124     7     5    1
   125    80    81    1
   126    80    79    2
   127    14    13    1
   128    20    17    1
   129    17    18    1
   130    17    16    1
   131    11    10    2
   132    79    78    1
   133     5     6    1
   134     5     2    1
   135    12    13    1
   136    12     9    1
   137    18    19    2
   138    13    15    1
   139    78    77    1
   140    10     9    1
   141     9     8    1
   142     2     3    1
   143     2     1    1
   144     4     3    2
   145    77    76    1
   146    76    73    1
   147    73    74    1
   148    73    72    1
   149    74    75    2
