@<TRIPOS>MOLECULE
tmp/5tfxA00.pdb
 134 132 0 0 0
SMALL
GASTEIGER

@<TRIPOS>ATOM
      1  N         -5.4670    0.6870   75.7880 N.3    65  ASN65      -0.1240
      2  CA        -6.3020    1.6110   76.5510 C.3    65  ASN65       0.1653
      3  C         -7.4800    2.0520   75.7110 C.2    65  ASN65       0.2266
      4  O         -7.2880    2.5550   74.5790 O.2    65  ASN65      -0.2867
      5  CB        -5.5320    2.8620   76.9850 C.3    65  ASN65       0.1155
      6  CG        -4.5120    2.5780   78.0350 C.2    65  ASN65       0.2627
      7  OD1       -4.3560    1.4300   78.4670 O.2    65  ASN65      -0.2716
      8  ND2       -3.8090    3.6180   78.4610 N.am   65  ASN65      -0.0877
      9  N        -11.1310    8.5660   82.5930 N.3    89  ILE89      -0.1231
     10  CA       -10.2020    8.9210   81.5070 C.3    89  ILE89       0.1692
     11  C         -9.8530    7.7650   80.6080 C.2    89  ILE89       0.2591
     12  O         -9.7190    7.9670   79.3980 O.2    89  ILE89      -0.2718
     13  CB        -8.9240    9.6500   82.0210 C.3    89  ILE89       0.0266
     14  CG1       -8.1040   10.1370   80.8300 C.3    89  ILE89       0.0019
     15  CG2       -8.1130    8.8140   83.0140 C.3    89  ILE89       0.0020
     16  CD1       -7.0490   11.1460   81.1610 C.3    89  ILE89       0.0001
     17  N         -9.7880    6.5430   81.1200 N.am   90  GLN90      -0.1979
     18  CA        -9.4620    5.3910   80.2880 C.3    90  GLN90       0.1601
     19  C         -9.6890    4.1320   81.0640 C.2    90  GLN90       0.2287
     20  O         -9.7570    4.1650   82.2900 O.2    90  GLN90      -0.2864
     21  CB        -8.0150    5.4090   79.8150 C.3    90  GLN90       0.0394
     22  CG        -6.9510    5.4930   80.9610 C.3    90  GLN90       0.0908
     23  CD        -6.1710    4.2340   81.2200 C.2    90  GLN90       0.2608
     24  OE1       -6.6310    3.1390   80.9980 O.2    90  GLN90      -0.2717
     25  NE2       -4.9020    4.4140   81.5950 N.am   90  GLN90      -0.0878
     26  N         -8.3020   -0.1810   80.8720 N.3    92  HIS92      -0.1241
     27  CA        -7.4310   -1.1750   80.2670 C.3    92  HIS92       0.1621
     28  C         -7.4730   -2.4430   81.0720 C.2    92  HIS92       0.2264
     29  O         -8.1050   -2.4720   82.1110 O.2    92  HIS92      -0.2867
     30  CB        -5.9990   -0.6820   80.1850 C.3    92  HIS92       0.0745
     31  CG        -5.4180   -0.3960   81.5200 C.ar   92  HIS92       0.0817
     32  ND1       -5.5560    0.8300   82.1190 N.ar   92  HIS92      -0.2268
     33  CD2       -4.7940   -1.1900   82.4160 C.ar   92  HIS92       0.1154
     34  CE1       -5.0100    0.7970   83.3220 C.ar   92  HIS92       0.1986
     35  NE2       -4.5390   -0.4210   83.5180 N.ar   92  HIS92      -0.2212
     36  N         -5.0980   -6.1350   82.4090 N.3    94  HIS94      -0.1241
     37  CA        -3.8910   -6.9430   82.5910 C.3    94  HIS94       0.1621
     38  C         -4.2870   -8.4050   82.4930 C.2    94  HIS94       0.2264
     39  O         -5.3650   -8.7530   82.9800 O.2    94  HIS94      -0.2867
     40  CB        -3.2100   -6.6720   83.9180 C.3    94  HIS94       0.0745
     41  CG        -2.9190   -5.2230   84.1700 C.ar   94  HIS94       0.0817
     42  ND1       -1.6850   -4.6480   83.9420 N.ar   94  HIS94      -0.2268
     43  CD2       -3.7360   -4.2340   84.5530 C.ar   94  HIS94       0.1154
     44  CE1       -1.7410   -3.3490   84.2350 C.ar   94  HIS94       0.1986
     45  NE2       -2.9900   -3.0760   84.5660 N.ar   94  HIS94      -0.2212
     46  N         -9.0560   -2.3080   84.8250 N.3   117  HIS117     -0.1241
     47  CA        -8.8190   -1.0660   85.5500 C.3   117  HIS117      0.1621
     48  C         -9.4880    0.0820   84.8510 C.2   117  HIS117      0.2264
     49  O         -9.1160    0.4280   83.7340 O.2   117  HIS117     -0.2867
     50  CB        -7.3180   -0.8210   85.5960 C.3   117  HIS117      0.0745
     51  CG        -6.6110   -1.7820   86.4750 C.ar  117  HIS117      0.0817
     52  ND1       -5.2310   -1.9520   86.4760 N.ar  117  HIS117     -0.2268
     53  CD2       -7.0730   -2.5800   87.4700 C.ar  117  HIS117      0.1154
     54  CE1       -4.9070   -2.8620   87.3770 C.ar  117  HIS117      0.1986
     55  NE2       -6.0050   -3.2580   87.9900 N.ar  117  HIS117     -0.2212
     56  N         -9.7870    3.8940   85.1070 N.3   119  VAL119     -0.1245
     57  CA        -8.9250    4.9200   85.7050 C.3   119  VAL119      0.1561
     58  C         -9.6440    6.2790   85.7450 C.2   119  VAL119      0.2260
     59  O        -10.1500    6.7250   84.7090 O.2   119  VAL119     -0.2867
     60  CB        -7.5990    5.0470   84.9070 C.3   119  VAL119      0.0252
     61  CG1       -6.6740    6.0650   85.5580 C.3   119  VAL119      0.0019
     62  CG2       -6.9150    3.7090   84.8120 C.3   119  VAL119      0.0019
     63  N         -5.1510   15.4420   84.6930 N.3   128  PHE128     -0.1227
     64  CA        -4.5800   14.1920   85.1350 C.3   128  PHE128      0.1736
     65  C         -3.1490   14.3200   85.6060 C.2   128  PHE128      0.2596
     66  O         -2.7690   13.7230   86.5990 O.2   128  PHE128     -0.2718
     67  CB        -4.7260   13.1680   83.9790 C.3   128  PHE128      0.0547
     68  CG        -4.1910   11.8020   84.2780 C.ar  128  PHE128     -0.0202
     69  CD1       -2.8610   11.5180   84.0830 C.ar  128  PHE128     -0.0042
     70  CD2       -5.0270   10.8260   84.7200 C.ar  128  PHE128     -0.0042
     71  CE1       -2.3730   10.2460   84.3330 C.ar  128  PHE128     -0.0003
     72  CE2       -4.5740    9.5460   84.9710 C.ar  128  PHE128     -0.0003
     73  CZ        -3.2370    9.2710   84.7990 C.ar  128  PHE128     -0.0000
     74  N         -2.3140   15.0690   84.8710 N.am  129  GLY129     -0.1957
     75  CA        -0.9200   15.1560   85.2030 C.3   129  GLY129      0.1869
     76  C         -0.6660   15.8130   86.5320 C.2   129  GLY129      0.2309
     77  O          0.2870   15.5200   87.1640 O.2   129  GLY129     -0.2863
     78  N         -8.8530    4.1030   90.9830 N.3   140  VAL140     -0.1245
     79  CA        -8.9170    3.0310   89.9880 C.3   140  VAL140      0.1561
     80  C         -9.8800    1.9770   90.5000 C.2   140  VAL140      0.2260
     81  O         -9.7820    1.4900   91.6390 O.2   140  VAL140     -0.2867
     82  CB        -7.5560    2.4310   89.6520 C.3   140  VAL140      0.0252
     83  CG1       -7.7380    1.3780   88.5290 C.3   140  VAL140      0.0019
     84  CG2       -6.6080    3.5410   89.1900 C.3   140  VAL140      0.0019
     85  N          0.0080    3.5160   91.1000 N.3   195  LEU195     -0.1231
     86  CA        -0.0130    3.0000   89.7490 C.3   195  LEU195      0.1693
     87  C          0.7360    1.6520   89.7890 C.2   195  LEU195      0.2593
     88  O          1.7850    1.5080   90.4550 O.2   195  LEU195     -0.2718
     89  CB         0.7200    3.8850   88.7750 C.3   195  LEU195      0.0284
     90  CG         0.1730    5.3150   88.6830 C.3   195  LEU195      0.0019
     91  CD1        0.9690    6.2070   87.7120 C.3   195  LEU195      0.0001
     92  CD2       -1.2960    5.2850   88.2620 C.3   195  LEU195      0.0001
     93  N          0.2760    0.6640   89.0180 N.am  196  THR196     -0.1939
     94  CA         0.9590   -0.6330   88.9730 C.3   196  THR196      0.2028
     95  C          2.0040   -0.7760   87.8800 C.2   196  THR196      0.2643
     96  O          2.5900   -1.8430   87.7750 O.2   196  THR196     -0.2714
     97  CB        -0.0410   -1.8160   88.8140 C.3   196  THR196      0.1808
     98  OG1       -0.6810   -1.7310   87.5230 O.3   196  THR196     -0.2208
     99  CG2       -1.0800   -1.8150   89.9830 C.3   196  THR196      0.0379
    100  N          2.2340    0.2720   87.0800 N.am  197  THR197     -0.1937
    101  CA         3.3400    0.3240   86.1290 C.3   197  THR197      0.2013
    102  C          4.1350    1.5990   86.4210 C.2   197  THR197      0.2484
    103  O          3.6370    2.5590   87.0470 O.2   197  THR197     -0.2729
    104  CB         2.8500    0.3580   84.6690 C.3   197  THR197      0.1807
    105  OG1        2.3780    1.6930   84.3410 O.3   197  THR197     -0.2208
    106  CG2        1.7900   -0.6590   84.4220 C.3   197  THR197      0.0379
    107  N          5.4070    1.6110   85.9590 N.am  198  PRO198     -0.2715
    108  CA         6.0950    2.8840   85.9430 C.3   198  PRO198      0.1521
    109  C          5.2140    3.9980   85.3900 C.2   198  PRO198      0.2440
    110  O          4.4940    3.7880   84.3900 O.2   198  PRO198     -0.2731
    111  CB         7.3430    2.5970   85.0850 C.3   198  PRO198      0.0310
    112  CG         7.5760    1.1400   85.3050 C.3   198  PRO198      0.0237
    113  CD         6.1950    0.5430   85.3210 C.3   198  PRO198      0.0939
    114  N          5.1980    5.1680   86.0120 N.am  199  PRO199     -0.2727
    115  CA         6.1530    5.6110   87.0620 C.3   199  PRO199      0.1402
    116  C          5.8350    5.2280   88.5350 C.2   199  PRO199      0.2269
    117  O          6.4720    5.7040   89.4690 O.2   199  PRO199     -0.2865
    118  CB         6.1050    7.1430   86.8960 C.3   199  PRO199      0.0296
    119  CG         4.7240    7.4460   86.4080 C.3   199  PRO199      0.0237
    120  CD         4.3790    6.2880   85.4930 C.3   199  PRO199      0.0939
    121  N         -7.5070    2.6770   95.5340 N.3   206  TRP206     -0.1241
    122  CA        -7.9410    1.4480   94.8820 C.3   206  TRP206      0.1605
    123  C         -9.2920    1.0200   95.3860 C.2   206  TRP206      0.2264
    124  O         -9.4970    1.0170   96.5680 O.2   206  TRP206     -0.2867
    125  CB        -6.9210    0.3290   95.0750 C.3   206  TRP206      0.0550
    126  CG        -5.8160    0.4600   94.0680 C.ar  206  TRP206      0.0003
    127  CD1       -4.5510    1.0400   94.2620 C.ar  206  TRP206      0.0946
    128  CD2       -5.8550    0.0630   92.6830 C.ar  206  TRP206      0.0152
    129  NE1       -3.8580    1.0280   93.0870 N.ar  206  TRP206     -0.2442
    130  CE2       -4.6100    0.3950   92.1170 C.ar  206  TRP206      0.0810
    131  CE3       -6.8190   -0.5910   91.8760 C.ar  206  TRP206      0.0012
    132  CZ2       -4.3520    0.1730   90.7650 C.ar  206  TRP206      0.0191
    133  CZ3       -6.5110   -0.8700   90.5840 C.ar  206  TRP206      0.0001
    134  CH2       -5.3130   -0.4800   90.0270 C.ar  206  TRP206      0.0015
@<TRIPOS>BOND
     1     4     3    2
     2     3     2    1
     3     1     2    1
     4     2     5    1
     5     5     6    1
     6     6     8   am
     7     6     7    2
     8    12    11    2
     9    21    18    1
    10    21    22    1
    11    30    27    1
    12    30    31    1
    13    27    26    1
    14    27    28    1
    15    18    19    1
    16    18    17    1
    17    11    17   am
    18    11    10    1
    19    14    16    1
    20    14    13    1
    21    22    23    1
    22    24    23    2
    23    19    20    2
    24    28    29    2
    25    23    25   am
    26    10    13    1
    27    10     9    1
    28    31    32   ar
    29    31    33   ar
    30    13    15    1
    31    32    34   ar
    32    36    37    1
    33    33    35   ar
    34    38    37    1
    35    38    39    2
    36    37    40    1
    37    34    35   ar
    38    49    48    2
    39    40    41    1
    40    42    41   ar
    41    42    44   ar
    42    67    68    1
    43    67    64    1
    44    69    68   ar
    45    69    71   ar
    46    41    43   ar
    47    44    45   ar
    48    68    70   ar
    49    71    73   ar
    50   105   104    1
    51   110   109    2
    52   106   104    1
    53    43    45   ar
    54   104   101    1
    55    63    64    1
    56    59    58    2
    57    70    72   ar
    58    73    72   ar
    59    62    60    1
    60    46    47    1
    61    48    47    1
    62    74    75    1
    63    74    65   am
    64    60    61    1
    65    60    57    1
    66   111   112    1
    67   111   108    1
    68    56    57    1
    69    64    65    1
    70    75    76    1
    71   112   113    1
    72   113   107    1
    73   109   108    1
    74   109   114   am
    75   120   114    1
    76   120   119    1
    77    47    50    1
    78    50    51    1
    79    65    66    2
    80    57    58    1
    81   108   107    1
    82   107   102   am
    83   114   115    1
    84   101   102    1
    85   101   100    1
    86   119   118    1
    87   102   103    2
    88    51    52   ar
    89    51    53   ar
    90    52    54   ar
    91    76    77    2
    92   118   115    1
    93   115   116    1
    94   100    95   am
    95    54    55   ar
    96    53    55   ar
    97    98    97    1
    98    91    90    1
    99    96    95    2
   100    95    94    1
   101    92    90    1
   102    83    82    1
   103   116   117    2
   104    90    89    1
   105    89    86    1
   106    97    94    1
   107    97    99    1
   108    94    93    1
   109    93    87   am
   110    84    82    1
   111    82    79    1
   112    86    87    1
   113    86    85    1
   114    87    88    2
   115    79    80    1
   116    79    78    1
   117   134   133   ar
   118   134   132   ar
   119    80    81    2
   120   133   131   ar
   121   132   130   ar
   122   131   128   ar
   123   130   128   ar
   124   130   129   ar
   125   128   126   ar
   126   129   127   ar
   127   126   127   ar
   128   126   125    1
   129   122   125    1
   130   122   123    1
   131   122   121    1
   132   123   124    2
