@<TRIPOS>MOLECULE
tmp/5tfzB02.pdb
 140 139 0 0 0
SMALL
GASTEIGER

@<TRIPOS>ATOM
      1  N         -3.5610    4.9130   17.7810 N.3    26  TYR26      -0.1241
      2  CA        -3.9280    4.1220   16.6050 C.3    26  TYR26       0.1605
      3  C         -5.3250    4.5520   16.1930 C.2    26  TYR26       0.2264
      4  O         -6.3190    3.9120   16.5600 O.2    26  TYR26      -0.2867
      5  CB        -3.9040    2.6290   16.9050 C.3    26  TYR26       0.0534
      6  CG        -2.5960    2.1220   17.4410 C.ar   26  TYR26      -0.0201
      7  CD1       -1.3910    2.6530   17.0020 C.ar   26  TYR26      -0.0009
      8  CD2       -2.5630    1.0940   18.3770 C.ar   26  TYR26      -0.0009
      9  CE1       -0.1740    2.1700   17.4770 C.ar   26  TYR26       0.0417
     10  CE2       -1.3530    0.5980   18.8660 C.ar   26  TYR26       0.0417
     11  CZ        -0.1680    1.1340   18.4100 C.ar   26  TYR26       0.1957
     12  OH         1.0150    0.6570   18.9130 O.3    26  TYR26      -0.2866
     13  N         -8.6500    2.2920   15.0180 N.3    29  VAL29      -0.1245
     14  CA        -8.3960    0.8900   15.3500 C.3    29  VAL29       0.1561
     15  C         -9.1220    0.5510   16.6420 C.2    29  VAL29       0.2260
     16  O         -9.0520    1.3130   17.6090 O.2    29  VAL29      -0.2867
     17  CB        -6.8930    0.6170   15.5140 C.3    29  VAL29       0.0252
     18  CG1       -6.6540   -0.8710   15.6750 C.3    29  VAL29       0.0019
     19  CG2       -6.0740    1.2150   14.3160 C.3    29  VAL29       0.0019
     20  N        -10.1040   -3.2110   19.1790 N.3    31  TRP31      -0.1241
     21  CA        -9.8390   -4.6390   19.2680 C.3    31  TRP31       0.1605
     22  C        -10.5090   -5.2470   20.4930 C.2    31  TRP31       0.2264
     23  O        -10.9040   -4.5440   21.4240 O.2    31  TRP31      -0.2867
     24  CB        -8.3370   -4.9200   19.2940 C.3    31  TRP31       0.0550
     25  CG        -7.5870   -4.2950   20.4380 C.ar   31  TRP31       0.0003
     26  CD1       -7.2560   -4.8910   21.6340 C.ar   31  TRP31       0.0946
     27  CD2       -7.0640   -2.9540   20.5030 C.ar   31  TRP31       0.0152
     28  NE1       -6.5510   -3.9970   22.4250 N.ar   31  TRP31      -0.2442
     29  CE2       -6.4200   -2.8120   21.7510 C.ar   31  TRP31       0.0810
     30  CE3       -7.0800   -1.8620   19.6280 C.ar   31  TRP31       0.0012
     31  CZ2       -5.7970   -1.6210   22.1370 C.ar   31  TRP31       0.0191
     32  CZ3       -6.4670   -0.6950   20.0100 C.ar   31  TRP31       0.0001
     33  CH2       -5.8320   -0.5780   21.2420 C.ar   31  TRP31       0.0015
     34  N         -2.7810    1.5980   12.2180 N.3    58  LEU58      -0.1245
     35  CA        -1.9900    1.0610   13.3160 C.3    58  LEU58       0.1561
     36  C         -0.5360    1.4130   13.0070 C.2    58  LEU58       0.2260
     37  O          0.0260    0.9200   12.0230 O.2    58  LEU58      -0.2867
     38  CB        -2.2240   -0.4470   13.4330 C.3    58  LEU58       0.0270
     39  CG        -1.2940   -1.3100   14.2950 C.3    58  LEU58       0.0019
     40  CD1       -1.3810   -0.9650   15.7840 C.3    58  LEU58       0.0001
     41  CD2       -1.5780   -2.7850   14.0880 C.3    58  LEU58       0.0001
     42  N          5.6690   -0.0650   14.6690 N.3    61  HIS61      -0.1241
     43  CA         6.0090   -0.5210   16.0160 C.3    61  HIS61       0.1621
     44  C          6.6770   -1.8870   15.9260 C.2    61  HIS61       0.2264
     45  O          6.6960   -2.5260   14.8710 O.2    61  HIS61      -0.2867
     46  CB         4.7600   -0.5670   16.9240 C.3    61  HIS61       0.0745
     47  CG         3.7780   -1.6300   16.5350 C.ar   61  HIS61       0.0817
     48  ND1        2.8870   -1.4850   15.4880 N.ar   61  HIS61      -0.2268
     49  CD2        3.5850   -2.8830   17.0150 C.ar   61  HIS61       0.1154
     50  CE1        2.1770   -2.5940   15.3470 C.ar   61  HIS61       0.1986
     51  NE2        2.5740   -3.4550   16.2700 N.ar   61  HIS61      -0.2212
     52  N          7.7950   -5.5760   18.5620 N.3    63  HIS63      -0.1241
     53  CA         7.7520   -6.3060   19.8220 C.3    63  HIS63       0.1621
     54  C          8.5090   -7.6110   19.6420 C.2    63  HIS63       0.2264
     55  O          8.5790   -8.1540   18.5320 O.2    63  HIS63      -0.2867
     56  CB         6.3080   -6.5820   20.2850 C.3    63  HIS63       0.0745
     57  CG         5.3440   -6.7920   19.1640 C.ar   63  HIS63       0.0817
     58  ND1        5.4930   -7.8060   18.2390 N.ar   63  HIS63      -0.2268
     59  CD2        4.2200   -6.1140   18.8090 C.ar   63  HIS63       0.1154
     60  CE1        4.5080   -7.7410   17.3590 C.ar   63  HIS63       0.1986
     61  NE2        3.7250   -6.7240   17.6790 N.ar   63  HIS63      -0.2212
     62  N          4.7370  -12.8250   15.3520 N.3    67  GLU67      -0.1245
     63  CA         3.2990  -12.6000   15.3430 C.3    67  GLU67       0.1567
     64  C          2.6940  -13.0150   14.0010 C.2    67  GLU67       0.2260
     65  O          3.3650  -13.0270   12.9700 O.2    67  GLU67      -0.2867
     66  CB         3.0080  -11.1260   15.6800 C.3    67  GLU67       0.0388
     67  CG         1.5800  -10.7250   15.5520 C.3    67  GLU67       0.1160
     68  CD         1.3670   -9.2520   15.9200 C.2    67  GLU67       0.3649
     69  OE1        0.4360   -8.9320   16.6910 O.co2  67  GLU67      -0.2457
     70  OE2        2.2010   -8.4320   15.4730 O.co2  67  GLU67      -0.2457
     71  N         -0.8350  -12.4470   11.5000 N.3    69  TYR69      -0.1241
     72  CA        -2.1160  -11.8420   11.1640 C.3    69  TYR69       0.1605
     73  C         -2.8940  -12.8100   10.2940 C.2    69  TYR69       0.2264
     74  O         -2.3210  -13.4450    9.4010 O.2    69  TYR69      -0.2867
     75  CB        -1.9430  -10.5420   10.3910 C.3    69  TYR69       0.0534
     76  CG        -1.3630   -9.3360   11.1310 C.ar   69  TYR69      -0.0201
     77  CD1       -1.2020   -9.3160   12.5110 C.ar   69  TYR69      -0.0009
     78  CD2       -1.0160   -8.1940   10.4030 C.ar   69  TYR69      -0.0009
     79  CE1       -0.6670   -8.1530   13.1710 C.ar   69  TYR69       0.0417
     80  CE2       -0.4790   -7.0690   11.0110 C.ar   69  TYR69       0.0417
     81  CZ        -0.3100   -7.0400   12.3810 C.ar   69  TYR69       0.1957
     82  OH         0.2100   -5.8880   12.9110 O.3    69  TYR69      -0.2866
     83  N          6.6600   -2.8200   12.0370 N.3   101  HIS101     -0.1241
     84  CA         5.5310   -3.0260   11.1460 C.3   101  HIS101      0.1621
     85  C          4.3920   -2.0870   11.5180 C.2   101  HIS101      0.2264
     86  O          4.2980   -1.6230   12.6510 O.2   101  HIS101     -0.2867
     87  CB         5.0460   -4.4980   11.1490 C.3   101  HIS101      0.0745
     88  CG         4.5710   -4.9840   12.4820 C.ar  101  HIS101      0.0817
     89  ND1        5.4320   -5.2770   13.5100 N.ar  101  HIS101     -0.2268
     90  CD2        3.3240   -5.2460   12.9470 C.ar  101  HIS101      0.1154
     91  CE1        4.7410   -5.7030   14.5500 C.ar  101  HIS101      0.1986
     92  NE2        3.4590   -5.6810   14.2390 N.ar  101  HIS101     -0.2212
     93  N         -9.0430   -8.4480   11.1870 N.3   113  PHE113     -0.1241
     94  CA        -8.0850   -9.5200   11.2340 C.3   113  PHE113      0.1605
     95  C         -7.9120   -9.9800   12.6590 C.2   113  PHE113      0.2264
     96  O         -8.1490   -9.2170   13.6090 O.2   113  PHE113     -0.2867
     97  CB        -6.7390   -9.0930   10.6430 C.3   113  PHE113      0.0534
     98  CG        -6.0640   -7.9710   11.3820 C.ar  113  PHE113     -0.0203
     99  CD1       -6.4150   -6.6520   11.1350 C.ar  113  PHE113     -0.0042
    100  CD2       -5.0470   -8.2310   12.2870 C.ar  113  PHE113     -0.0042
    101  CE1       -5.7830   -5.6050   11.7950 C.ar  113  PHE113     -0.0003
    102  CE2       -4.4080   -7.1950   12.9370 C.ar  113  PHE113     -0.0003
    103  CZ        -4.7940   -5.8670   12.6940 C.ar  113  PHE113     -0.0000
    104  N         -5.0030  -11.4540   15.2770 N.3   115  TRP115     -0.1241
    105  CA        -3.5790  -11.5720   15.5400 C.3   115  TRP115      0.1605
    106  C         -3.3540  -12.7030   16.5360 C.2   115  TRP115      0.2264
    107  O         -4.1970  -12.9710   17.3850 O.2   115  TRP115     -0.2867
    108  CB        -2.9810  -10.2740   16.0840 C.3   115  TRP115      0.0550
    109  CG        -3.2260  -10.0490   17.5600 C.ar  115  TRP115      0.0003
    110  CD1       -2.4640  -10.5210   18.6000 C.ar  115  TRP115      0.0946
    111  CD2       -4.2980   -9.2930   18.1590 C.ar  115  TRP115      0.0152
    112  NE1       -3.0000  -10.1080   19.7990 N.ar  115  TRP115     -0.2442
    113  CE2       -4.1220   -9.3560   19.5610 C.ar  115  TRP115      0.0810
    114  CE3       -5.3870   -8.5850   17.6510 C.ar  115  TRP115      0.0012
    115  CZ2       -4.9890   -8.7060   20.4640 C.ar  115  TRP115      0.0191
    116  CZ3       -6.2540   -7.9480   18.5470 C.ar  115  TRP115      0.0001
    117  CH2       -6.0450   -8.0060   19.9320 C.ar  115  TRP115      0.0015
    118  N         -1.9400  -11.3470   25.9740 N.3   122  PHE122     -0.1241
    119  CA        -1.5310  -10.0930   25.3550 C.3   122  PHE122      0.1605
    120  C         -0.7220   -9.2270   26.3160 C.2   122  PHE122      0.2264
    121  O          0.2580   -8.5690   25.9120 O.2   122  PHE122     -0.2867
    122  CB        -2.7700   -9.3440   24.8850 C.3   122  PHE122      0.0534
    123  CG        -2.4590   -8.0370   24.2470 C.ar  122  PHE122     -0.0203
    124  CD1       -2.1350   -7.9970   22.8940 C.ar  122  PHE122     -0.0042
    125  CD2       -2.5180   -6.8370   24.9780 C.ar  122  PHE122     -0.0042
    126  CE1       -1.8560   -6.7950   22.2580 C.ar  122  PHE122     -0.0003
    127  CE2       -2.2360   -5.6000   24.3350 C.ar  122  PHE122     -0.0003
    128  CZ        -1.8900   -5.5970   22.9660 C.ar  122  PHE122     -0.0000
    129  N          5.3720   -3.4600   23.7680 N.3   127  TYR127     -0.1241
    130  CA         5.3630   -2.7220   22.5080 C.3   127  TYR127      0.1605
    131  C          6.4070   -1.6010   22.5250 C.2   127  TYR127      0.2264
    132  O          6.5420   -0.8730   23.5110 O.2   127  TYR127     -0.2867
    133  CB         3.9590   -2.1460   22.2610 C.3   127  TYR127      0.0534
    134  CG         2.9920   -3.1750   21.6670 C.ar  127  TYR127     -0.0201
    135  CD1        2.5120   -4.2420   22.4390 C.ar  127  TYR127     -0.0009
    136  CD2        2.5740   -3.0880   20.3310 C.ar  127  TYR127     -0.0009
    137  CE1        1.6510   -5.2060   21.9050 C.ar  127  TYR127      0.0417
    138  CE2        1.7070   -4.0430   19.7800 C.ar  127  TYR127      0.0417
    139  CZ         1.2500   -5.1060   20.5690 C.ar  127  TYR127      0.1957
    140  OH         0.3990   -6.0610   20.0240 O.3   127  TYR127     -0.2866
@<TRIPOS>BOND
     1    74    73    2
     2    73    72    1
     3    75    76    1
     4    75    72    1
     5    78    80   ar
     6    78    76   ar
     7    97    94    1
     8    97    98    1
     9    80    81   ar
    10    76    77   ar
    11    99    98   ar
    12    99   101   ar
    13    84    87    1
    14    84    85    1
    15    84    83    1
    16    87    88    1
    17    72    71    1
    18    93    94    1
    19    94    95    1
    20    98   100   ar
    21    85    86    2
    22   101   103   ar
    23    37    36    2
    24    34    35    1
    25   100   102   ar
    26    81    82    1
    27    81    79   ar
    28    88    90   ar
    29    88    89   ar
    30    77    79   ar
    31    95    96    2
    32   103   102   ar
    33    90    92   ar
    34    65    64    2
    35    36    35    1
    36    35    38    1
    37    38    39    1
    38    89    91   ar
    39    64    63    1
    40    41    39    1
    41    92    91   ar
    42    39    40    1
    43    19    17    1
    44    42    43    1
    45    45    44    2
    46    13    14    1
    47   104   105    1
    48    63    62    1
    49    63    66    1
    50    50    48   ar
    51    50    51   ar
    52    14    17    1
    53    14    15    1
    54    70    68   ar
    55    48    47   ar
    56    17    18    1
    57   105   108    1
    58   105   106    1
    59    67    66    1
    60    67    68    1
    61    68    69   ar
    62    44    43    1
    63    43    46    1
    64   108   109    1
    65     3     4    2
    66     3     2    1
    67    51    49   ar
    68    47    46    1
    69    47    49   ar
    70   106   107    2
    71     2     5    1
    72     2     1    1
    73    15    16    2
    74     5     6    1
    75     7     6   ar
    76     7     9   ar
    77    60    61   ar
    78    60    58   ar
    79     6     8   ar
    80     9    11   ar
    81   109   111   ar
    82   109   110   ar
    83   114   111   ar
    84   114   116   ar
    85    61    59   ar
    86   111   113   ar
    87    58    57   ar
    88     8    10   ar
    89    11    10   ar
    90    11    12    1
    91    55    54    2
    92   116   117   ar
    93    52    53    1
    94   110   112   ar
    95    59    57   ar
    96    57    56    1
    97    20    21    1
    98    21    24    1
    99    21    22    1
   100    24    25    1
   101   113   112   ar
   102   113   115   ar
   103    30    32   ar
   104    30    27   ar
   105    54    53    1
   106   138   136   ar
   107   138   139   ar
   108    53    56    1
   109   117   115   ar
   110    32    33   ar
   111   140   139    1
   112   136   134   ar
   113    25    27   ar
   114    25    26   ar
   115    22    23    2
   116    27    29   ar
   117   139   137   ar
   118    33    31   ar
   119    26    28   ar
   120   134   133    1
   121   134   135   ar
   122    29    31   ar
   123    29    28   ar
   124   137   135   ar
   125   126   124   ar
   126   126   128   ar
   127   133   130    1
   128   130   131    1
   129   130   129    1
   130   131   132    2
   131   124   123   ar
   132   128   127   ar
   133   123   122    1
   134   123   125   ar
   135   127   125   ar
   136   122   119    1
   137   119   118    1
   138   119   120    1
   139   121   120    2
