@<TRIPOS>MOLECULE
tmp/5tg4A00.pdb
 107 103 0 0 0
SMALL
GASTEIGER

@<TRIPOS>ATOM
      1  N         -1.7780   27.0080  -14.4160 N.3    51  SER51      -0.1217
      2  CA        -1.3590   26.4710  -13.1480 C.3    51  SER51       0.1889
      3  C         -2.3740   25.5940  -12.4400 C.2    51  SER51       0.2288
      4  O         -2.0250   24.9400  -11.4610 O.2    51  SER51      -0.2866
      5  CB        -0.8990   27.5740  -12.1920 C.3    51  SER51       0.2089
      6  OG         0.2280   28.2590  -12.7920 O.3    51  SER51      -0.2183
      7  N          8.9060   36.8190   -9.4730 N.3    81  TYR81      -0.1241
      8  CA         8.4700   37.3300   -8.1740 C.3    81  TYR81       0.1605
      9  C          9.4100   36.9330   -7.0760 C.2    81  TYR81       0.2264
     10  O          9.8910   35.8070   -7.1460 O.2    81  TYR81      -0.2867
     11  CB         7.1600   36.6370   -7.8580 C.3    81  TYR81       0.0534
     12  CG         6.1650   36.8450   -8.9230 C.ar   81  TYR81      -0.0201
     13  CD1        5.4930   38.0760   -9.0340 C.ar   81  TYR81      -0.0009
     14  CD2        5.9890   35.8690   -9.9350 C.ar   81  TYR81      -0.0009
     15  CE1        4.6080   38.2720  -10.0870 C.ar   81  TYR81       0.0417
     16  CE2        5.1270   36.0540  -10.9950 C.ar   81  TYR81       0.0417
     17  CZ         4.4110   37.2240  -11.0500 C.ar   81  TYR81       0.1957
     18  OH         3.5460   37.4090  -12.0650 O.3    81  TYR81      -0.2866
     19  N          9.2360   33.6730   -5.3500 N.3    83  TRP83      -0.1241
     20  CA         9.7700   32.4120   -5.9290 C.3    83  TRP83       0.1605
     21  C         11.2450   32.2230   -5.7280 C.2    83  TRP83       0.2264
     22  O         11.7550   31.1370   -6.0180 O.2    83  TRP83      -0.2867
     23  CB         9.4810   32.2690   -7.4270 C.3    83  TRP83       0.0550
     24  CG         8.0100   32.2260   -7.8090 C.ar   83  TRP83       0.0003
     25  CD1        6.9460   32.0210   -7.0330 C.ar   83  TRP83       0.0946
     26  CD2        7.5410   32.3210   -9.1070 C.ar   83  TRP83       0.0152
     27  NE1        5.8070   31.9890   -7.7800 N.ar   83  TRP83      -0.2442
     28  CE2        6.1170   32.1750   -9.0620 C.ar   83  TRP83       0.0810
     29  CE3        8.1640   32.4530  -10.3320 C.ar   83  TRP83       0.0012
     30  CZ2        5.3300   32.2740  -10.1780 C.ar   83  TRP83       0.0191
     31  CZ3        7.3940   32.5460  -11.4380 C.ar   83  TRP83       0.0001
     32  CH2        6.0060   32.3800  -11.3670 C.ar   83  TRP83       0.0015
     33  N          1.9940   29.3230   -6.5730 N.3    96  SER96      -0.1217
     34  CA         1.9800   29.0010   -7.9870 C.3    96  SER96       0.1889
     35  C          3.3940   29.1220   -8.5720 C.2    96  SER96       0.2288
     36  O          3.5910   29.6610   -9.6510 O.2    96  SER96      -0.2866
     37  CB         0.9710   29.8220   -8.7930 C.3    96  SER96       0.2089
     38  OG         0.4510   29.0260   -9.8610 O.3    96  SER96      -0.2183
     39  N          5.8710   28.0510  -10.6310 N.3    98  VAL98      -0.1245
     40  CA         6.1190   27.2750  -11.8280 C.3    98  VAL98       0.1561
     41  C          7.4680   26.5760  -11.8250 C.2    98  VAL98       0.2260
     42  O          7.5220   25.4300  -12.2420 O.2    98  VAL98      -0.2867
     43  CB         6.0060   28.1310  -13.1040 C.3    98  VAL98       0.0252
     44  CG1        6.2310   27.3100  -14.3430 C.3    98  VAL98       0.0019
     45  CG2        4.6470   28.7590  -13.2080 C.3    98  VAL98       0.0019
     46  N          7.9830   22.7190  -12.8020 N.3   102  GLN102     -0.1245
     47  CA         8.7660   22.3200  -13.9500 C.3   102  GLN102      0.1566
     48  C          9.8330   21.2990  -13.5790 C.2   102  GLN102      0.2260
     49  O         10.0600   20.3430  -14.3010 O.2   102  GLN102     -0.2867
     50  CB         9.3680   23.5210  -14.6350 C.3   102  GLN102      0.0367
     51  CG         8.3280   24.4010  -15.3210 C.3   102  GLN102      0.0905
     52  CD         8.9330   25.6240  -15.9310 C.2   102  GLN102      0.2608
     53  OE1        9.6400   26.4090  -15.2780 O.2   102  GLN102     -0.2717
     54  NE2        8.5800   25.8440  -17.1610 N.am  102  GLN102     -0.0878
     55  N          6.4050   22.6260  -20.2960 N.3   133  ASN133     -0.1240
     56  CA         5.5180   23.7760  -20.4790 C.3   133  ASN133      0.1653
     57  C          4.1780   23.4580  -21.1380 C.2   133  ASN133      0.2266
     58  O          3.4550   24.3650  -21.5260 O.2   133  ASN133     -0.2867
     59  CB         6.1960   24.8950  -21.2930 C.3   133  ASN133      0.1155
     60  CG         6.3680   24.5560  -22.7300 C.2   133  ASN133      0.2627
     61  OD1        5.9950   23.4760  -23.1460 O.2   133  ASN133     -0.2716
     62  ND2        6.9890   25.4590  -23.4940 N.am  133  ASN133     -0.0877
     63  N          1.0600   25.2200  -20.0310 N.3   136  LEU136     -0.1231
     64  CA         1.1390   26.6390  -20.0680 C.3   136  LEU136      0.1693
     65  C          0.8280   27.2210  -21.4080 C.2   136  LEU136      0.2591
     66  O          0.1770   28.2660  -21.5210 O.2   136  LEU136     -0.2718
     67  CB         2.5290   27.1250  -19.6540 C.3   136  LEU136      0.0284
     68  CG         3.0000   26.6190  -18.2870 C.3   136  LEU136      0.0019
     69  CD1        4.4620   26.9500  -18.0240 C.3   136  LEU136      0.0001
     70  CD2        2.1490   27.2880  -17.2630 C.3   136  LEU136      0.0001
     71  N          1.3040   26.5710  -22.4580 N.am  137  VAL137     -0.1980
     72  CA         1.2050   27.1090  -23.8000 C.3   137  VAL137      0.1595
     73  C          0.5590   26.1890  -24.7790 C.2   137  VAL137      0.2287
     74  O          0.6170   26.4350  -25.9480 O.2   137  VAL137     -0.2864
     75  CB         2.5550   27.5290  -24.3460 C.3   137  VAL137      0.0276
     76  CG1        3.1290   28.6170  -23.4650 C.3   137  VAL137      0.0022
     77  CG2        3.5110   26.3840  -24.4680 C.3   137  VAL137      0.0022
     78  N         -3.5180   30.9580  -14.4170 N.3   188  TRP188     -0.1227
     79  CA        -3.4180   32.1600  -15.2090 C.3   188  TRP188      0.1737
     80  C         -2.5480   31.8370  -16.4300 C.2   188  TRP188      0.2596
     81  O         -1.3410   31.5320  -16.3260 O.2   188  TRP188     -0.2718
     82  CB        -2.7420   33.2420  -14.3860 C.3   188  TRP188      0.0564
     83  CG        -2.7810   34.6460  -14.9870 C.ar  188  TRP188      0.0003
     84  CD1       -2.9200   35.0300  -16.2780 C.ar  188  TRP188      0.0946
     85  CD2       -2.6980   35.8280  -14.2320 C.ar  188  TRP188      0.0152
     86  NE1       -2.8950   36.4070  -16.3710 N.ar  188  TRP188     -0.2442
     87  CE2       -2.8250   36.9160  -15.1120 C.ar  188  TRP188      0.0810
     88  CE3       -2.5800   36.0680  -12.8700 C.ar  188  TRP188      0.0012
     89  CZ2       -2.7960   38.2450  -14.6460 C.ar  188  TRP188      0.0191
     90  CZ3       -2.5490   37.3870  -12.4460 C.ar  188  TRP188      0.0001
     91  CH2       -2.6720   38.4130  -13.3390 C.ar  188  TRP188      0.0015
     92  N         -3.1550   31.8520  -17.6150 N.am  189  GLY189     -0.1942
     93  CA        -2.4380   31.5580  -18.8500 C.3   189  GLY189      0.2014
     94  C         -1.7990   32.7840  -19.3560 C.2   189  GLY189      0.2639
     95  O         -2.4400   33.4530  -20.1250 O.2   189  GLY189     -0.2714
     96  N         -0.6770   33.1280  -18.8270 N.am  190  MET190     -0.1963
     97  CA         0.2770   34.1300  -19.2840 C.3   190  MET190      0.1736
     98  C          0.8100   33.7380  -20.6750 C.2   190  MET190      0.2613
     99  O          1.0660   32.5590  -20.8690 O.2   190  MET190     -0.2715
    100  CB         1.5540   33.9960  -18.2850 C.3   190  MET190      0.0427
    101  CG         1.4010   34.2190  -16.8220 C.3   190  MET190      0.0599
    102  SD         0.7810   35.9050  -16.6770 S.3   190  MET190     -0.1393
    103  CE         1.8230   36.8810  -17.7810 C.3   190  MET190      0.0692
    104  N          0.9980   34.6080  -21.6280 N.am  191  GLY191     -0.2012
    105  CA         1.6010   34.0450  -22.8760 C.3   191  GLY191      0.1506
    106  C          0.8310   33.0320  -23.7720 C.3   191  GLY191      0.2054
    107  O          1.4880   32.2050  -24.5710 O.3   191  GLY191     -0.2184
@<TRIPOS>BOND
     1    74    73    2
     2    73    72    1
     3   107   106    1
     4    77    75    1
     5    75    72    1
     6    75    76    1
     7    72    71    1
     8   106   105    1
     9    62    60   am
    10    61    60    2
    11   105   104    1
    12    60    59    1
    13    71    65   am
    14   104    98   am
    15    58    57    2
    16    66    65    2
    17    65    64    1
    18    59    56    1
    19    57    56    1
    20    99    98    2
    21    98    97    1
    22    56    55    1
    23    95    94    2
    24    64    63    1
    25    64    67    1
    26    67    68    1
    27    94    93    1
    28    94    96   am
    29    97    96    1
    30    97   100    1
    31    93    92    1
    32    68    69    1
    33    68    70    1
    34   100   101    1
    35   103   102    1
    36    92    80   am
    37    54    52   am
    38   101   102    1
    39    80    81    2
    40    80    79    1
    41    86    84   ar
    42    86    87   ar
    43    84    83   ar
    44    52    51    1
    45    52    53    2
    46    51    50    1
    47    79    78    1
    48    79    82    1
    49    87    89   ar
    50    87    85   ar
    51    83    82    1
    52    83    85   ar
    53    89    91   ar
    54    50    47    1
    55     1     2    1
    56    44    43    1
    57    49    48    2
    58    85    88   ar
    59    47    48    1
    60    47    46    1
    61    91    90   ar
    62    45    43    1
    63     2     3    1
    64     2     5    1
    65    43    40    1
    66    88    90   ar
    67     6     5    1
    68     3     4    2
    69    42    41    2
    70    18    17    1
    71    40    41    1
    72    40    39    1
    73    31    32   ar
    74    31    29   ar
    75    32    30   ar
    76    17    16   ar
    77    17    15   ar
    78    16    14   ar
    79    29    26   ar
    80    30    28   ar
    81    15    13   ar
    82    14    12   ar
    83    38    37    1
    84    36    35    2
    85     7     8    1
    86    26    28   ar
    87    26    24   ar
    88    28    27   ar
    89    13    12   ar
    90    12    11    1
    91    37    34    1
    92    35    34    1
    93     8    11    1
    94     8     9    1
    95    34    33    1
    96    24    23    1
    97    24    25   ar
    98    27    25   ar
    99    23    20    1
   100    10     9    2
   101    22    21    2
   102    20    21    1
   103    20    19    1
