@<TRIPOS>MOLECULE
tmp/5tg5A00.pdb
 102 99 0 0 0
SMALL
GASTEIGER

@<TRIPOS>ATOM
      1  N         -1.7950   27.2140  -14.5800 N.3    51  SER51      -0.1217
      2  CA        -1.3750   26.6950  -13.2760 C.3    51  SER51       0.1889
      3  C         -2.4000   25.7850  -12.5650 C.2    51  SER51       0.2288
      4  O         -2.0700   25.1830  -11.5260 O.2    51  SER51      -0.2866
      5  CB        -0.9090   27.8560  -12.3710 C.3    51  SER51       0.2089
      6  OG         0.1720   28.6530  -12.9520 O.3    51  SER51      -0.2183
      7  N         10.7550   35.4890  -12.3920 N.3    80  THR80      -0.1203
      8  CA         9.7400   36.4420  -12.8440 C.3    80  THR80       0.1994
      9  C          9.1280   37.1920  -11.6560 C.2    80  THR80       0.2617
     10  O          8.9430   38.3870  -11.7410 O.2    80  THR80      -0.2717
     11  CB         8.6510   35.7370  -13.6900 C.3    80  THR80       0.1784
     12  OG1        9.2730   34.9640  -14.7320 O.3    80  THR80      -0.2211
     13  CG2        7.6980   36.7580  -14.3080 C.3    80  THR80       0.0376
     14  N          8.8930   36.4880  -10.5420 N.am   81  TYR81      -0.1975
     15  CA         8.4020   37.0710   -9.2850 C.3    81  TYR81       0.1639
     16  C          9.4240   36.8620   -8.1660 C.2    81  TYR81       0.2290
     17  O          9.9140   35.7450   -7.9970 O.2    81  TYR81      -0.2864
     18  CB         7.0710   36.4150   -8.8870 C.3    81  TYR81       0.0560
     19  CG         6.0190   36.5500   -9.9560 C.ar   81  TYR81      -0.0198
     20  CD1        5.9440   35.6420  -11.0050 C.ar   81  TYR81      -0.0009
     21  CD2        5.1180   37.6150   -9.9440 C.ar   81  TYR81      -0.0009
     22  CE1        4.9920   35.7800  -12.0120 C.ar   81  TYR81       0.0417
     23  CE2        4.1590   37.7590  -10.9410 C.ar   81  TYR81       0.0417
     24  CZ         4.1030   36.8440  -11.9720 C.ar   81  TYR81       0.1957
     25  OH         3.1540   36.9890  -12.9580 O.3    81  TYR81      -0.2866
     26  N          9.2870   33.9250   -5.6090 N.3    83  TRP83      -0.1241
     27  CA         9.7510   32.6070   -6.0370 C.3    83  TRP83       0.1605
     28  C         11.2340   32.3790   -5.7330 C.2    83  TRP83       0.2264
     29  O         11.7090   31.2640   -5.8780 O.2    83  TRP83      -0.2867
     30  CB         9.5430   32.4330   -7.5380 C.3    83  TRP83       0.0550
     31  CG         8.1200   32.3590   -7.9870 C.ar   83  TRP83       0.0003
     32  CD1        6.9930   32.3220   -7.2090 C.ar   83  TRP83       0.0946
     33  CD2        7.6740   32.3260   -9.3430 C.ar   83  TRP83       0.0152
     34  NE1        5.8740   32.2400   -8.0060 N.ar   83  TRP83      -0.2442
     35  CE2        6.2620   32.2490   -9.3200 C.ar   83  TRP83       0.0810
     36  CE3        8.3330   32.3400  -10.5770 C.ar   83  TRP83       0.0012
     37  CZ2        5.4980   32.2040  -10.4890 C.ar   83  TRP83       0.0191
     38  CZ3        7.5800   32.2820  -11.7380 C.ar   83  TRP83       0.0001
     39  CH2        6.1720   32.2150  -11.6880 C.ar   83  TRP83       0.0015
     40  N          1.9420   29.4890   -6.6440 N.3    96  SER96      -0.1217
     41  CA         1.9520   29.1230   -8.0660 C.3    96  SER96       0.1889
     42  C          3.3580   29.2470   -8.6790 C.2    96  SER96       0.2288
     43  O          3.5470   29.7990   -9.7710 O.2    96  SER96      -0.2866
     44  CB         0.8890   29.9070   -8.8510 C.3    96  SER96       0.2089
     45  OG         0.4830   29.1780  -10.0120 O.3    96  SER96      -0.2183
     46  N          5.8510   28.2240  -10.6980 N.3    98  VAL98      -0.1231
     47  CA         6.0820   27.4810  -11.9180 C.3    98  VAL98       0.1678
     48  C          7.4350   26.7590  -11.9370 C.2    98  VAL98       0.2434
     49  O          7.4790   25.5900  -12.3110 O.2    98  VAL98      -0.2733
     50  CB         5.9600   28.3960  -13.1670 C.3    98  VAL98       0.0265
     51  CG1        6.1960   27.5980  -14.4470 C.3    98  VAL98       0.0020
     52  CG2        4.5960   29.0910  -13.2000 C.3    98  VAL98       0.0020
     53  N          8.5350   27.4240  -11.5070 N.am   99  PRO99      -0.2729
     54  CA         9.8310   26.7150  -11.5810 C.3    99  PRO99       0.1401
     55  C          9.9180   25.4100  -10.8040 C.2    99  PRO99       0.2269
     56  O         10.5890   24.4750  -11.2350 O.2    99  PRO99      -0.2865
     57  CB        10.8390   27.7330  -11.0210 C.3    99  PRO99       0.0296
     58  CG        10.1590   29.0530  -11.1080 C.3    99  PRO99       0.0237
     59  CD         8.6930   28.7980  -10.9860 C.3    99  PRO99       0.0939
     60  N          7.9510   22.9210  -12.8130 N.3   102  GLN102     -0.1245
     61  CA         8.7400   22.5260  -13.9970 C.3   102  GLN102      0.1566
     62  C          9.8250   21.5050  -13.6460 C.2   102  GLN102      0.2260
     63  O         10.0520   20.5770  -14.4050 O.2   102  GLN102     -0.2867
     64  CB         9.3430   23.7240  -14.6970 C.3   102  GLN102      0.0367
     65  CG         8.3020   24.5340  -15.4410 C.3   102  GLN102      0.0905
     66  CD         8.8890   25.7660  -16.0570 C.2   102  GLN102      0.2608
     67  OE1        9.6730   26.4670  -15.4230 O.2   102  GLN102     -0.2717
     68  NE2        8.5210   26.0420  -17.3000 N.am  102  GLN102     -0.0878
     69  N          1.0500   25.4820  -20.2210 N.3   136  LEU136     -0.1245
     70  CA         1.1530   26.9320  -20.2580 C.3   136  LEU136      0.1561
     71  C          0.8140   27.5170  -21.6190 C.2   136  LEU136      0.2260
     72  O          0.1560   28.5490  -21.6910 O.2   136  LEU136     -0.2867
     73  CB         2.5790   27.3580  -19.8820 C.3   136  LEU136      0.0270
     74  CG         3.0160   26.9860  -18.4520 C.3   136  LEU136      0.0019
     75  CD1        4.5150   27.1610  -18.2390 C.3   136  LEU136      0.0001
     76  CD2        2.2530   27.8200  -17.4480 C.3   136  LEU136      0.0001
     77  N         -3.6530   31.1940  -14.5570 N.3   189  TRP189     -0.1241
     78  CA        -3.5640   32.3590  -15.4200 C.3   189  TRP189      0.1605
     79  C         -2.6600   32.0260  -16.5950 C.2   189  TRP189      0.2264
     80  O         -1.4470   31.8740  -16.4390 O.2   189  TRP189     -0.2867
     81  CB        -3.0460   33.5640  -14.6400 C.3   189  TRP189      0.0550
     82  CG        -3.1230   34.9030  -15.3560 C.ar  189  TRP189      0.0003
     83  CD1       -3.2300   35.1390  -16.7110 C.ar  189  TRP189      0.0946
     84  CD2       -3.0440   36.1860  -14.7380 C.ar  189  TRP189      0.0152
     85  NE1       -3.2400   36.4880  -16.9520 N.ar  189  TRP189     -0.2442
     86  CE2       -3.1340   37.1530  -15.7580 C.ar  189  TRP189      0.0810
     87  CE3       -2.9340   36.6150  -13.4080 C.ar  189  TRP189      0.0012
     88  CZ2       -3.1000   38.5250  -15.4930 C.ar  189  TRP189      0.0191
     89  CZ3       -2.9050   37.9820  -13.1440 C.ar  189  TRP189      0.0001
     90  CH2       -2.9830   38.9150  -14.1800 C.ar  189  TRP189      0.0015
     91  N         -0.7490   33.2330  -19.1590 N.3   191  MET191     -0.1230
     92  CA        -0.1000   34.4790  -19.5420 C.3   191  MET191      0.1702
     93  C          0.5180   34.4430  -20.9370 C.2   191  MET191      0.2592
     94  O          0.6900   35.4870  -21.5530 O.2   191  MET191     -0.2718
     95  CB         0.9340   34.8690  -18.4870 C.3   191  MET191      0.0401
     96  CG         0.2850   35.5460  -17.3000 C.3   191  MET191      0.0596
     97  SD         1.3840   35.7680  -15.9030 S.3   191  MET191     -0.1393
     98  CE         0.7840   34.5060  -14.7850 C.3   191  MET191      0.0692
     99  N          0.8110   33.2520  -21.4480 N.am  192  GLY192     -0.1957
    100  CA         1.4670   33.1050  -22.7490 C.3   192  GLY192      0.1869
    101  C          0.5600   32.7190  -23.8970 C.2   192  GLY192      0.2309
    102  O          1.0220   32.1300  -24.8830 O.2   192  GLY192     -0.2863
@<TRIPOS>BOND
     1   102   101    2
     2   101   100    1
     3   100    99    1
     4    72    71    2
     5    71    70    1
     6    94    93    2
     7    99    93   am
     8    93    92    1
     9    70    69    1
    10    70    73    1
    11    73    74    1
    12    92    91    1
    13    92    95    1
    14    95    96    1
    15    74    75    1
    16    74    76    1
    17    96    97    1
    18    68    66   am
    19    85    83   ar
    20    85    86   ar
    21    83    82   ar
    22    79    80    2
    23    79    78    1
    24    66    65    1
    25    66    67    2
    26    97    98    1
    27    86    88   ar
    28    86    84   ar
    29    88    90   ar
    30    65    64    1
    31    78    81    1
    32    78    77    1
    33    82    84   ar
    34    82    81    1
    35    84    87   ar
    36    12    11    1
    37    64    61    1
    38     1     2    1
    39    51    50    1
    40    63    62    2
    41    13    11    1
    42    90    89   ar
    43    61    62    1
    44    61    60    1
    45    11     8    1
    46    87    89   ar
    47     2     3    1
    48     2     5    1
    49    52    50    1
    50    50    47    1
    51    25    24    1
    52     6     5    1
    53     8     7    1
    54     8     9    1
    55     3     4    2
    56    49    48    2
    57    22    24   ar
    58    22    20   ar
    59    24    23   ar
    60    48    47    1
    61    48    53   am
    62    47    46    1
    63    10     9    2
    64    38    39   ar
    65    38    36   ar
    66    39    37   ar
    67     9    14   am
    68    54    53    1
    69    54    57    1
    70    54    55    1
    71    53    59    1
    72    56    55    2
    73    58    57    1
    74    58    59    1
    75    20    19   ar
    76    23    21   ar
    77    36    33   ar
    78    14    15    1
    79    37    35   ar
    80    45    44    1
    81    19    21   ar
    82    19    18    1
    83    43    42    2
    84    33    35   ar
    85    33    31   ar
    86    35    34   ar
    87    15    18    1
    88    15    16    1
    89    44    41    1
    90    42    41    1
    91    16    17    2
    92    41    40    1
    93    34    32   ar
    94    31    30    1
    95    31    32   ar
    96    30    27    1
    97    27    28    1
    98    27    26    1
    99    29    28    2
