@<TRIPOS>MOLECULE
tmp/5tg6A00.pdb
 135 131 0 0 0
SMALL
GASTEIGER

@<TRIPOS>ATOM
      1  N         -1.8090   27.1210  -14.3520 N.3    50  SER50      -0.1217
      2  CA        -1.3540   26.5860  -13.0720 C.3    50  SER50       0.1889
      3  C         -2.3670   25.7080  -12.3320 C.2    50  SER50       0.2288
      4  O         -2.0160   25.0880  -11.3220 O.2    50  SER50      -0.2866
      5  CB        -0.8850   27.7330  -12.1710 C.3    50  SER50       0.2089
      6  OG         0.2590   28.3900  -12.7450 O.3    50  SER50      -0.2183
      7  N         10.5760   35.4460  -12.1070 N.3    79  THR79      -0.1203
      8  CA         9.5840   36.4350  -12.4620 C.3    79  THR79       0.1994
      9  C          9.0950   37.1710  -11.2280 C.2    79  THR79       0.2617
     10  O          8.9570   38.3690  -11.2650 O.2    79  THR79      -0.2717
     11  CB         8.4040   35.7660  -13.2110 C.3    79  THR79       0.1784
     12  OG1        8.8960   34.7570  -14.1240 O.3    79  THR79      -0.2211
     13  CG2        7.5940   36.8200  -13.9480 C.3    79  THR79       0.0376
     14  N          8.8990   36.4550  -10.1200 N.am   80  TYR80      -0.1975
     15  CA         8.4090   37.0260   -8.8700 C.3    80  TYR80       0.1639
     16  C          9.4250   36.7590   -7.7730 C.2    80  TYR80       0.2290
     17  O          9.9560   35.6350   -7.7010 O.2    80  TYR80      -0.2864
     18  CB         7.0580   36.3980   -8.5060 C.3    80  TYR80       0.0560
     19  CG         6.0730   36.4900   -9.6420 C.ar   80  TYR80      -0.0198
     20  CD1        5.9930   35.4900  -10.5980 C.ar   80  TYR80      -0.0009
     21  CD2        5.2430   37.6160   -9.7880 C.ar   80  TYR80      -0.0009
     22  CE1        5.1010   35.5770  -11.6720 C.ar   80  TYR80       0.0417
     23  CE2        4.3450   37.7110  -10.8470 C.ar   80  TYR80       0.0417
     24  CZ         4.2730   36.6900  -11.7880 C.ar   80  TYR80       0.1957
     25  OH         3.4080   36.7960  -12.8590 O.3    80  TYR80      -0.2866
     26  N          9.2030   33.7390   -5.5030 N.3    83  TRP83      -0.1241
     27  CA         9.6450   32.4320   -5.9460 C.3    83  TRP83       0.1605
     28  C         11.1220   32.2230   -5.6980 C.2    83  TRP83       0.2264
     29  O         11.6040   31.1330   -5.9150 O.2    83  TRP83      -0.2867
     30  CB         9.3840   32.2250   -7.4260 C.3    83  TRP83       0.0550
     31  CG         7.9550   32.1890   -7.8270 C.ar   83  TRP83       0.0003
     32  CD1        6.8620   32.1440   -7.0310 C.ar   83  TRP83       0.0946
     33  CD2        7.4830   32.1910   -9.1710 C.ar   83  TRP83       0.0152
     34  NE1        5.7180   32.1070   -7.8020 N.ar   83  TRP83      -0.2442
     35  CE2        6.0770   32.1320   -9.1190 C.ar   83  TRP83       0.0810
     36  CE3        8.1190   32.2020  -10.4160 C.ar   83  TRP83       0.0012
     37  CZ2        5.2930   32.0980  -10.2660 C.ar   83  TRP83       0.0191
     38  CZ3        7.3290   32.1710  -11.5670 C.ar   83  TRP83       0.0001
     39  CH2        5.9350   32.1190  -11.4720 C.ar   83  TRP83       0.0015
     40  N          1.8790   29.2970   -6.3910 N.3    96  SER96      -0.1217
     41  CA         1.8940   28.9210   -7.8030 C.3    96  SER96       0.1889
     42  C          3.2800   29.0590   -8.4220 C.2    96  SER96       0.2288
     43  O          3.4490   29.6390   -9.5130 O.2    96  SER96      -0.2866
     44  CB         0.8200   29.7060   -8.5800 C.3    96  SER96       0.2089
     45  OG         0.4410   28.9860   -9.7480 O.3    96  SER96      -0.2183
     46  N          5.8300   28.1840  -10.4860 N.3    98  VAL98      -0.1245
     47  CA         6.0590   27.4510  -11.7060 C.3    98  VAL98       0.1561
     48  C          7.3990   26.6870  -11.7520 C.2    98  VAL98       0.2260
     49  O          7.4170   25.5120  -12.1310 O.2    98  VAL98      -0.2867
     50  CB         5.9590   28.3950  -12.9250 C.3    98  VAL98       0.0252
     51  CG1        6.3250   27.6700  -14.1940 C.3    98  VAL98       0.0019
     52  CG2        4.5620   29.0130  -13.0330 C.3    98  VAL98       0.0019
     53  N          6.3790   22.7770  -20.2050 N.3   133  ASN133     -0.1240
     54  CA         5.4590   23.8850  -20.4220 C.3   133  ASN133      0.1653
     55  C          4.1250   23.5440  -21.1030 C.2   133  ASN133      0.2266
     56  O          3.3870   24.4690  -21.5060 O.2   133  ASN133     -0.2867
     57  CB         6.1620   25.0020  -21.1840 C.3   133  ASN133      0.1155
     58  CG         6.3810   24.6710  -22.6550 C.2   133  ASN133      0.2627
     59  OD1        6.0800   23.5780  -23.1290 O.2   133  ASN133     -0.2716
     60  ND2        6.8720   25.6360  -23.3800 N.am  133  ASN133     -0.0877
     61  N          0.9870   25.2860  -19.9810 N.3   136  LEU136     -0.1231
     62  CA         1.0730   26.7420  -19.9970 C.3   136  LEU136      0.1693
     63  C          0.8110   27.3340  -21.3590 C.2   136  LEU136      0.2591
     64  O          0.1950   28.3650  -21.4450 O.2   136  LEU136     -0.2718
     65  CB         2.4560   27.2090  -19.5530 C.3   136  LEU136      0.0284
     66  CG         2.8480   26.7630  -18.1470 C.3   136  LEU136      0.0019
     67  CD1        4.3170   27.0220  -17.8430 C.3   136  LEU136      0.0001
     68  CD2        1.9420   27.4650  -17.1500 C.3   136  LEU136      0.0001
     69  N          1.3020   26.7040  -22.4150 N.am  137  VAL137     -0.1980
     70  CA         1.1900   27.2620  -23.7670 C.3   137  VAL137      0.1595
     71  C          0.5020   26.3330  -24.7610 C.2   137  VAL137      0.2287
     72  O          0.5780   26.5520  -25.9520 O.2   137  VAL137     -0.2864
     73  CB         2.5740   27.6540  -24.3230 C.3   137  VAL137      0.0276
     74  CG1        3.1830   28.7420  -23.4600 C.3   137  VAL137      0.0022
     75  CG2        3.5090   26.4560  -24.4580 C.3   137  VAL137      0.0022
     76  N         -7.2680   25.7070   -6.5200 N.3   186  LYS186     -0.1231
     77  CA        -6.0730   26.1360   -7.1550 C.3   186  LYS186      0.1693
     78  C         -6.4000   27.1510   -8.2330 C.2   186  LYS186      0.2593
     79  O         -7.2200   26.8860   -9.0990 O.2   186  LYS186     -0.2718
     80  CB        -5.3540   24.9660   -7.7890 C.3   186  LYS186      0.0285
     81  CG        -4.0440   25.3140   -8.4620 C.3   186  LYS186      0.0035
     82  CD        -3.0290   25.8910   -7.4760 C.3   186  LYS186      0.0206
     83  CE        -1.8050   26.4510   -8.1780 C.3   186  LYS186      0.1093
     84  NZ        -2.0100   27.8690   -8.6110 N.3   186  LYS186     -0.1314
     85  N         -5.6880   28.2750   -8.1980 N.am  187  SER187     -0.1938
     86  CA        -5.7890   29.2760   -9.2360 C.3   187  SER187      0.2055
     87  C         -5.0020   28.9240  -10.4860 C.2   187  SER187      0.2644
     88  O         -4.0500   28.1590  -10.4490 O.2   187  SER187     -0.2714
     89  CB        -5.3530   30.6440   -8.6970 C.3   187  SER187      0.2130
     90  OG        -3.9700   30.6380   -8.3790 O.3   187  SER187     -0.2179
     91  N         -5.4000   29.5330  -11.5950 N.am  188  GLY188     -0.1939
     92  CA        -4.6800   29.4450  -12.8680 C.3   188  GLY188      0.2014
     93  C         -4.6940   30.7750  -13.5590 C.2   188  GLY188      0.2639
     94  O         -5.6990   31.5000  -13.4780 O.2   188  GLY188     -0.2714
     95  N         -3.5770   31.1070  -14.2120 N.am  189  TRP189     -0.1959
     96  CA        -3.5020   32.2860  -15.0440 C.3   189  TRP189      0.1771
     97  C         -2.6360   31.9450  -16.2440 C.2   189  TRP189      0.2620
     98  O         -1.4480   31.6740  -16.0880 O.2   189  TRP189     -0.2715
     99  CB        -2.9050   33.4210  -14.2220 C.3   189  TRP189      0.0590
    100  CG        -2.9690   34.7650  -14.8190 C.ar  189  TRP189      0.0006
    101  CD1       -3.1040   35.0990  -16.1420 C.ar  189  TRP189      0.0946
    102  CD2       -2.8390   35.9780  -14.1070 C.ar  189  TRP189      0.0152
    103  NE1       -3.0780   36.4550  -16.2820 N.ar  189  TRP189     -0.2442
    104  CE2       -2.9340   37.0250  -15.0470 C.ar  189  TRP189      0.0810
    105  CE3       -2.6500   36.2910  -12.7470 C.ar  189  TRP189      0.0012
    106  CZ2       -2.8230   38.3700  -14.6830 C.ar  189  TRP189      0.0191
    107  CZ3       -2.5650   37.6410  -12.3760 C.ar  189  TRP189      0.0001
    108  CH2       -2.6590   38.6610  -13.3460 C.ar  189  TRP189      0.0015
    109  N         -3.2310   31.9090  -17.4310 N.am  190  GLY190     -0.1940
    110  CA        -2.5010   31.6390  -18.6540 C.3   190  GLY190      0.2014
    111  C         -1.8250   32.9150  -19.1250 C.2   190  GLY190      0.2639
    112  O         -2.3970   33.6770  -19.8840 O.2   190  GLY190     -0.2714
    113  N         -0.6110   33.1260  -18.6350 N.am  191  MET191     -0.1963
    114  CA         0.2230   34.2580  -19.0140 C.3   191  MET191      0.1736
    115  C          0.7080   34.1550  -20.4590 C.2   191  MET191      0.2617
    116  O          0.8880   35.1650  -21.1140 O.2   191  MET191     -0.2715
    117  CB         1.4340   34.3150  -18.0870 C.3   191  MET191      0.0427
    118  CG         1.0850   34.3970  -16.6150 C.3   191  MET191      0.0599
    119  SD         0.3690   35.9890  -16.1960 S.3   191  MET191     -0.1393
    120  CE         0.5510   35.9590  -14.4080 C.3   191  MET191      0.0692
    121  N          0.8940   32.9340  -20.9500 N.am  192  GLY192     -0.1955
    122  CA         1.5200   32.6820  -22.2580 C.3   192  GLY192      0.1869
    123  C          0.5930   32.3950  -23.4180 C.2   192  GLY192      0.2309
    124  O          1.0480   31.8480  -24.4460 O.2   192  GLY192     -0.2863
    125  N        -10.1300   36.6330   -9.2790 N.3   229  ARG229     -0.1245
    126  CA       -10.6160   35.2740   -9.4420 C.3   229  ARG229      0.1563
    127  C        -11.2310   34.7990   -8.1250 C.2   229  ARG229      0.2260
    128  O        -12.3530   34.2530   -8.0700 O.2   229  ARG229     -0.2867
    129  CB        -9.4740   34.3510   -9.8600 C.3   229  ARG229      0.0307
    130  CG        -8.9350   34.6800  -11.2310 C.3   229  ARG229      0.0489
    131  CD        -7.6220   33.9720  -11.4530 C.3   229  ARG229      0.2205
    132  NE        -6.6380   34.4040  -10.4760 N.pl3 229  ARG229     -0.0865
    133  CZ        -5.3640   34.0140  -10.4600 C.cat 229  ARG229      0.5346
    134  NH1       -4.5570   34.4670   -9.5210 N.pl3 229  ARG229      0.1354
    135  NH2       -4.9060   33.1710  -11.3600 N.pl3 229  ARG229      0.1354
@<TRIPOS>BOND
     1    72    71    2
     2    71    70    1
     3    75    73    1
     4   124   123    2
     5    73    70    1
     6    73    74    1
     7    70    69    1
     8   123   122    1
     9    60    58   am
    10    59    58    2
    11    58    57    1
    12    69    63   am
    13   122   121    1
    14    56    55    2
    15    64    63    2
    16    63    62    1
    17    57    54    1
    18   116   115    2
    19    55    54    1
    20   121   115   am
    21   115   114    1
    22    54    53    1
    23    62    61    1
    24    62    65    1
    25   112   111    2
    26    65    66    1
    27   111   110    1
    28   111   113   am
    29   114   113    1
    30   114   117    1
    31   110   109    1
    32    66    67    1
    33    66    68    1
    34   117   118    1
    35   109    97   am
    36   118   119    1
    37   103   101   ar
    38   103   104   ar
    39    97    98    2
    40    97    96    1
    41   119   120    1
    42   101   100   ar
    43   104   106   ar
    44   104   102   ar
    45    96    99    1
    46    96    95    1
    47   100    99    1
    48   100   102   ar
    49   106   108   ar
    50     1     2    1
    51    95    93   am
    52    51    50    1
    53    12    11    1
    54   102   105   ar
    55    13    11    1
    56    93    94    2
    57    93    92    1
    58   108   107   ar
    59    11     8    1
    60     2     3    1
    61     2     5    1
    62    52    50    1
    63    50    47    1
    64    92    91    1
    65    25    24    1
    66   105   107   ar
    67     6     5    1
    68     8     7    1
    69     8     9    1
    70     3     4    2
    71    49    48    2
    72    24    22   ar
    73    24    23   ar
    74    48    47    1
    75    47    46    1
    76    22    20   ar
    77    91    87   am
    78    38    39   ar
    79    38    36   ar
    80    39    37   ar
    81   131   130    1
    82   131   132    1
    83   135   133    1
    84    10     9    2
    85   130   129    1
    86     9    14   am
    87    23    21   ar
    88    20    19   ar
    89    87    88    2
    90    87    86    1
    91   132   133    2
    92   133   134    1
    93    36    33   ar
    94    37    35   ar
    95    14    15    1
    96   129   126    1
    97    21    19   ar
    98    45    44    1
    99    19    18    1
   100    43    42    2
   101   126   125    1
   102   126   127    1
   103    86    89    1
   104    86    85    1
   105    33    35   ar
   106    33    31   ar
   107    35    34   ar
   108    79    78    2
   109    15    18    1
   110    15    16    1
   111    89    90    1
   112    84    83    1
   113    44    41    1
   114    81    80    1
   115    81    82    1
   116    42    41    1
   117    78    85   am
   118    78    77    1
   119    83    82    1
   120   127   128    2
   121    31    30    1
   122    31    32   ar
   123    41    40    1
   124    34    32   ar
   125    80    77    1
   126    16    17    2
   127    30    27    1
   128    77    76    1
   129    27    28    1
   130    27    26    1
   131    29    28    2
