@<TRIPOS>MOLECULE
tmp/5tg7A00.pdb
 103 100 0 0 0
SMALL
GASTEIGER

@<TRIPOS>ATOM
      1  N         -3.3200   26.2260  -17.6070 N.3    49  ALA49      -0.1231
      2  CA        -2.2720   26.9850  -16.9130 C.3    49  ALA49       0.1694
      3  C         -2.0650   26.3790  -15.5300 C.2    49  ALA49       0.2592
      4  O         -2.1100   25.1570  -15.3820 O.2    49  ALA49      -0.2718
      5  CB        -2.5900   28.4840  -16.8770 C.3    49  ALA49       0.0304
      6  N         -1.8790   27.2040  -14.5150 N.am   50  SER50      -0.1952
      7  CA        -1.4710   26.6850  -13.2130 C.3    50  SER50       0.1924
      8  C         -2.5030   25.7500  -12.5820 C.2    50  SER50       0.2314
      9  O         -2.1420   25.0520  -11.6230 O.2    50  SER50      -0.2863
     10  CB        -0.9670   27.8140  -12.2710 C.3    50  SER50       0.2116
     11  OG         0.0280   28.6100  -12.9590 O.3    50  SER50      -0.2180
     12  N          9.0900   36.8290  -10.2210 N.3    80  TYR80      -0.1241
     13  CA         8.5810   37.4710   -8.9430 C.3    80  TYR80       0.1605
     14  C          9.5340   37.1760   -7.7940 C.2    80  TYR80       0.2264
     15  O         10.0580   36.0880   -7.7180 O.2    80  TYR80      -0.2867
     16  CB         7.1540   36.9700   -8.5450 C.3    80  TYR80       0.0534
     17  CG         6.1930   36.9160   -9.7400 C.ar   80  TYR80      -0.0201
     18  CD1        6.2510   35.8580  -10.6840 C.ar   80  TYR80      -0.0009
     19  CD2        5.2520   37.9440   -9.9610 C.ar   80  TYR80      -0.0009
     20  CE1        5.4170   35.8410  -11.8080 C.ar   80  TYR80       0.0417
     21  CE2        4.3960   37.9290  -11.0750 C.ar   80  TYR80       0.0417
     22  CZ         4.4750   36.8790  -11.9870 C.ar   80  TYR80       0.1957
     23  OH         3.6580   36.8770  -13.1050 O.3    80  TYR80      -0.2866
     24  N          9.2750   33.9340   -5.3050 N.3    82  TRP82      -0.1241
     25  CA         9.8050   32.7000   -5.8600 C.3    82  TRP82       0.1605
     26  C         11.2790   32.4520   -5.6030 C.2    82  TRP82       0.2264
     27  O         11.7240   31.3130   -5.7510 O.2    82  TRP82      -0.2867
     28  CB         9.6060   32.6300   -7.3740 C.3    82  TRP82       0.0550
     29  CG         8.2040   32.4950   -7.7320 C.ar   82  TRP82       0.0003
     30  CD1        7.1270   32.4250   -6.8640 C.ar   82  TRP82       0.0946
     31  CD2        7.6540   32.4320   -9.0730 C.ar   82  TRP82       0.0152
     32  NE1        5.9700   32.3080   -7.5870 N.ar   82  TRP82      -0.2442
     33  CE2        6.2570   32.3060   -8.9350 C.ar   82  TRP82       0.0810
     34  CE3        8.2190   32.4500  -10.3750 C.ar   82  TRP82       0.0012
     35  CZ2        5.3990   32.2280  -10.0490 C.ar   82  TRP82       0.0191
     36  CZ3        7.3910   32.3730  -11.4760 C.ar   82  TRP82       0.0001
     37  CH2        5.9860   32.2660  -11.3140 C.ar   82  TRP82       0.0015
     38  N          1.8590   29.5330   -6.5450 N.3    95  SER95      -0.1217
     39  CA         1.8370   29.1970   -7.9480 C.3    95  SER95       0.1889
     40  C          3.2360   29.3130   -8.6070 C.2    95  SER95       0.2288
     41  O          3.3460   29.8190   -9.7450 O.2    95  SER95      -0.2866
     42  CB         0.7810   30.0310   -8.7020 C.3    95  SER95       0.2089
     43  OG         0.3920   29.3070   -9.8610 O.3    95  SER95      -0.2183
     44  N          5.8070   28.2350  -10.7540 N.3    97  VAL97      -0.1245
     45  CA         6.0380   27.3870  -11.9190 C.3    97  VAL97       0.1561
     46  C          7.4160   26.7020  -12.0110 C.2    97  VAL97       0.2260
     47  O          7.4970   25.5500  -12.4690 O.2    97  VAL97      -0.2867
     48  CB         5.6860   28.0750  -13.2730 C.3    97  VAL97       0.0252
     49  CG1        6.5730   29.2850  -13.5980 C.3    97  VAL97       0.0019
     50  CG2        5.7420   27.0480  -14.4020 C.3    97  VAL97       0.0019
     51  N          6.3100   22.9850  -20.3150 N.3   132  ASN132     -0.1240
     52  CA         5.4030   24.1040  -20.5830 C.3   132  ASN132      0.1653
     53  C          4.0510   23.7310  -21.3120 C.2   132  ASN132      0.2266
     54  O          3.3060   24.6150  -21.7700 O.2   132  ASN132     -0.2867
     55  CB         6.1590   25.1450  -21.3640 C.3   132  ASN132      0.1155
     56  CG         6.3710   24.7310  -22.8290 C.2   132  ASN132      0.2627
     57  OD1        5.9690   23.6690  -23.2710 O.2   132  ASN132     -0.2716
     58  ND2        6.9710   25.5890  -23.5690 N.am  132  ASN132     -0.0877
     59  N          1.0020   25.4070  -20.1860 N.3   135  LEU135     -0.1231
     60  CA         1.0080   26.8600  -20.2650 C.3   135  LEU135      0.1693
     61  C          0.7470   27.4090  -21.6360 C.2   135  LEU135      0.2591
     62  O          0.1470   28.4850  -21.7520 O.2   135  LEU135     -0.2718
     63  CB         2.3370   27.4320  -19.8090 C.3   135  LEU135      0.0284
     64  CG         2.7400   27.0730  -18.3630 C.3   135  LEU135      0.0019
     65  CD1        4.2000   27.4640  -18.1220 C.3   135  LEU135      0.0001
     66  CD2        1.8540   27.6740  -17.2650 C.3   135  LEU135      0.0001
     67  N          1.2130   26.7430  -22.6850 N.am  136  VAL136     -0.1980
     68  CA         1.1050   27.3930  -23.9960 C.3   136  VAL136      0.1595
     69  C          0.4910   26.4350  -24.9990 C.2   136  VAL136      0.2287
     70  O          0.6670   26.6000  -26.2110 O.2   136  VAL136     -0.2864
     71  CB         2.4890   27.8360  -24.5360 C.3   136  VAL136      0.0276
     72  CG1        2.9840   29.0960  -23.8570 C.3   136  VAL136      0.0022
     73  CG2        3.5170   26.7260  -24.3560 C.3   136  VAL136      0.0022
     74  N         -3.6990   31.1470  -14.3310 N.3   188  TRP188     -0.1227
     75  CA        -3.5590   32.3330  -15.1210 C.3   188  TRP188      0.1737
     76  C         -2.7490   32.0520  -16.3990 C.2   188  TRP188      0.2596
     77  O         -1.5480   31.8450  -16.3650 O.2   188  TRP188     -0.2718
     78  CB        -2.9080   33.4260  -14.2730 C.3   188  TRP188      0.0564
     79  CG        -2.9840   34.7870  -14.9350 C.ar  188  TRP188      0.0003
     80  CD1       -3.0880   35.0510  -16.2980 C.ar  188  TRP188      0.0946
     81  CD2       -2.9240   36.0480  -14.2910 C.ar  188  TRP188      0.0152
     82  NE1       -3.0860   36.3800  -16.5150 N.ar  188  TRP188     -0.2442
     83  CE2       -2.9950   37.0350  -15.3100 C.ar  188  TRP188      0.0810
     84  CE3       -2.7930   36.4580  -12.9380 C.ar  188  TRP188      0.0012
     85  CZ2       -2.9300   38.4220  -15.0310 C.ar  188  TRP188      0.0191
     86  CZ3       -2.7420   37.8480  -12.6490 C.ar  188  TRP188      0.0001
     87  CH2       -2.8040   38.8100  -13.6960 C.ar  188  TRP188      0.0015
     88  N         -3.4000   32.0700  -17.5440 N.am  189  GLY189     -0.1942
     89  CA        -2.7140   31.7520  -18.8210 C.3   189  GLY189      0.2014
     90  C         -1.9350   32.9180  -19.4130 C.2   189  GLY189      0.2639
     91  O         -2.3610   33.5250  -20.4340 O.2   189  GLY189     -0.2714
     92  N         -0.7780   33.2300  -18.8150 N.am  190  MET190     -0.1963
     93  CA        -0.0400   34.4160  -19.2600 C.3   190  MET190      0.1736
     94  C          0.6150   34.3240  -20.6100 C.2   190  MET190      0.2617
     95  O          0.9320   35.3280  -21.1870 O.2   190  MET190     -0.2715
     96  CB         0.9540   34.8930  -18.2180 C.3   190  MET190      0.0427
     97  CG         0.2810   35.8960  -17.2950 C.3   190  MET190      0.0599
     98  SD         1.1000   36.2700  -15.7270 S.3   190  MET190     -0.1393
     99  CE         1.2990   34.6480  -15.0290 C.3   190  MET190      0.0692
    100  N          0.8150   33.1250  -21.1270 N.am  191  GLY191     -0.1955
    101  CA         1.5570   33.0190  -22.3720 C.3   191  GLY191      0.1869
    102  C          0.7010   32.7080  -23.5740 C.2   191  GLY191      0.2309
    103  O          1.1600   32.0690  -24.5190 O.2   191  GLY191     -0.2863
@<TRIPOS>BOND
     1    70    69    2
     2    69    68    1
     3    71    73    1
     4    71    68    1
     5    71    72    1
     6   103   102    2
     7    68    67    1
     8   102   101    1
     9    58    56   am
    10    57    56    2
    11    56    55    1
    12    67    61   am
    13   101   100    1
    14    54    53    2
    15    62    61    2
    16    61    60    1
    17    55    52    1
    18    53    52    1
    19    95    94    2
    20   100    94   am
    21    94    93    1
    22    52    51    1
    23    91    90    2
    24    60    59    1
    25    60    63    1
    26    63    64    1
    27    90    89    1
    28    90    92   am
    29    93    92    1
    30    93    96    1
    31    89    88    1
    32    64    65    1
    33    64    66    1
    34    96    97    1
    35     1     2    1
    36    88    76   am
    37    97    98    1
    38     2     5    1
    39     2     3    1
    40    82    80   ar
    41    82    83   ar
    42    76    77    2
    43    76    75    1
    44    80    79   ar
    45    98    99    1
    46     3     4    2
    47     3     6   am
    48    83    85   ar
    49    83    81   ar
    50    75    74    1
    51    75    78    1
    52    85    87   ar
    53    79    81   ar
    54    79    78    1
    55     6     7    1
    56    50    48    1
    57    81    84   ar
    58    87    86   ar
    59    49    48    1
    60    48    45    1
    61     7     8    1
    62     7    10    1
    63    23    22    1
    64    11    10    1
    65    84    86   ar
    66     8     9    2
    67    47    46    2
    68    46    45    1
    69    22    20   ar
    70    22    21   ar
    71    45    44    1
    72    20    18   ar
    73    36    37   ar
    74    36    34   ar
    75    37    35   ar
    76    21    19   ar
    77    18    17   ar
    78    34    31   ar
    79    12    13    1
    80    35    33   ar
    81    19    17   ar
    82    43    42    1
    83    41    40    2
    84    17    16    1
    85    31    33   ar
    86    31    29   ar
    87    13    16    1
    88    13    14    1
    89    33    32   ar
    90    42    39    1
    91    40    39    1
    92    39    38    1
    93    14    15    2
    94    29    28    1
    95    29    30   ar
    96    32    30   ar
    97    28    25    1
    98    25    26    1
    99    25    24    1
   100    27    26    2
