@<TRIPOS>MOLECULE
tmp/5tg9A01.pdb
 126 119 0 0 0
SMALL
GASTEIGER

@<TRIPOS>ATOM
      1  N         -1.8930   41.8340  -29.8420 N.3    88  TYR88      -0.1241
      2  CA        -1.5490   42.7310  -30.9460 C.3    88  TYR88       0.1605
      3  C         -1.1000   44.0750  -30.3680 C.2    88  TYR88       0.2264
      4  O         -1.8840   44.7410  -29.6520 O.2    88  TYR88      -0.2867
      5  CB        -2.7470   42.9430  -31.8860 C.3    88  TYR88       0.0534
      6  CG        -2.3500   43.5340  -33.2220 C.ar   88  TYR88      -0.0201
      7  CD1       -2.2230   44.8970  -33.3850 C.ar   88  TYR88      -0.0009
      8  CD2       -2.0890   42.7140  -34.3160 C.ar   88  TYR88      -0.0009
      9  CE1       -1.8370   45.4260  -34.5920 C.ar   88  TYR88       0.0417
     10  CE2       -1.7000   43.2330  -35.5190 C.ar   88  TYR88       0.0417
     11  CZ        -1.5780   44.5850  -35.6550 C.ar   88  TYR88       0.1957
     12  OH        -1.1930   45.1070  -36.8520 O.3    88  TYR88      -0.2866
     13  N        -15.1870   41.7550  -44.4670 N.3   121  ARG121     -0.1245
     14  CA       -14.5580   40.7290  -43.6420 C.3   121  ARG121      0.1563
     15  C        -14.5860   41.1770  -42.1550 C.2   121  ARG121      0.2260
     16  O        -14.1150   42.2720  -41.7990 O.2   121  ARG121     -0.2867
     17  CB       -13.1380   40.4250  -44.1200 C.3   121  ARG121      0.0307
     18  CG       -13.0780   39.1660  -44.9820 C.3   121  ARG121      0.0489
     19  CD       -11.7460   38.9930  -45.7180 C.3   121  ARG121      0.2205
     20  NE       -10.7590   38.3280  -44.8710 N.pl3 121  ARG121     -0.0865
     21  CZ       -10.7130   37.0130  -44.6650 C.cat 121  ARG121      0.5346
     22  NH1      -11.6080   36.2170  -45.2470 N.pl3 121  ARG121      0.1354
     23  NH2       -9.7770   36.4950  -43.8710 N.pl3 121  ARG121      0.1354
     24  N        -11.1480   39.0100  -39.1810 N.3   124  GLY124     -0.1210
     25  CA        -9.7280   39.3060  -39.1630 C.3   124  GLY124      0.1956
     26  C         -9.0240   38.7490  -37.9390 C.2   124  GLY124      0.2612
     27  O         -9.5620   38.7920  -36.8310 O.2   124  GLY124     -0.2717
     28  N         -7.8240   38.2200  -38.1610 N.am  125  ALA125     -0.1965
     29  CA        -7.0230   37.5330  -37.1640 C.3   125  ALA125      0.1728
     30  C         -5.5620   37.9730  -37.2550 C.2   125  ALA125      0.2617
     31  O         -5.2020   38.7960  -38.0920 O.2   125  ALA125     -0.2715
     32  CB        -7.1360   36.0440  -37.3400 C.3   125  ALA125      0.0334
     33  N         -4.7330   37.4160  -36.3760 N.am  126  THR126     -0.1937
     34  CA        -3.3300   37.8020  -36.2060 C.3   126  THR126      0.2028
     35  C         -2.4980   36.7570  -35.4460 C.2   126  THR126      0.2642
     36  O         -2.9650   36.1580  -34.4940 O.2   126  THR126     -0.2714
     37  CB        -3.2210   39.1690  -35.4830 C.3   126  THR126      0.1808
     38  OG1       -1.8390   39.5300  -35.3950 O.3   126  THR126     -0.2208
     39  CG2       -3.6920   39.0690  -34.0720 C.3   126  THR126      0.0379
     40  N         -1.2740   36.5140  -35.9010 N.am  127  SER127     -0.1949
     41  CA        -0.3770   35.5640  -35.2490 C.3   127  SER127      0.1924
     42  C         -0.0140   36.0680  -33.8430 C.2   127  SER127      0.2314
     43  O          0.6030   35.3590  -33.0360 O.2   127  SER127     -0.2863
     44  CB         0.8830   35.3270  -36.0980 C.3   127  SER127      0.2116
     45  OG         1.7710   36.4310  -36.0500 O.3   127  SER127     -0.2180
     46  N        -12.3500   42.5090  -35.9380 N.3   142  TRP142     -0.1241
     47  CA       -11.5280   43.2560  -36.8960 C.3   142  TRP142      0.1605
     48  C        -12.2370   43.3460  -38.2460 C.2   142  TRP142      0.2264
     49  O        -12.5860   42.3280  -38.8340 O.2   142  TRP142     -0.2867
     50  CB       -10.1610   42.6050  -37.0610 C.3   142  TRP142      0.0550
     51  CG        -9.1640   43.4700  -37.7440 C.ar  142  TRP142      0.0003
     52  CD1       -9.4090   44.5930  -38.4750 C.ar  142  TRP142      0.0946
     53  CD2       -7.7490   43.2710  -37.7750 C.ar  142  TRP142      0.0152
     54  NE1       -8.2310   45.1070  -38.9630 N.ar  142  TRP142     -0.2442
     55  CE2       -7.1980   44.3100  -38.5450 C.ar  142  TRP142      0.0810
     56  CE3       -6.8930   42.3060  -37.2340 C.ar  142  TRP142      0.0012
     57  CZ2       -5.8300   44.4180  -38.7760 C.ar  142  TRP142      0.0191
     58  CZ3       -5.5370   42.4160  -37.4690 C.ar  142  TRP142      0.0001
     59  CH2       -5.0190   43.4630  -38.2300 C.ar  142  TRP142      0.0015
     60  N        -12.3410   44.3700  -42.1510 N.3   144  SER144     -0.1217
     61  CA       -11.5880   44.6290  -43.3800 C.3   144  SER144      0.1889
     62  C        -12.4860   44.5090  -44.6460 C.2   144  SER144      0.2288
     63  O        -13.6780   44.2110  -44.5380 O.2   144  SER144     -0.2866
     64  CB       -10.4030   43.6720  -43.4410 C.3   144  SER144      0.2089
     65  OG       -10.7710   42.4260  -42.8620 O.3   144  SER144     -0.2183
     66  N         -7.1650   50.7410  -36.1140 N.3   174  HIS174     -0.1241
     67  CA        -5.9910   50.0460  -36.6210 C.3   174  HIS174      0.1621
     68  C         -5.0620   50.9660  -37.4180 C.2   174  HIS174      0.2264
     69  O         -5.5040   51.7150  -38.2880 O.2   174  HIS174     -0.2867
     70  CB        -6.4010   48.8580  -37.4660 C.3   174  HIS174      0.0745
     71  CG        -5.2520   48.2060  -38.1580 C.ar  174  HIS174      0.0817
     72  ND1       -5.3690   47.6320  -39.4040 N.ar  174  HIS174     -0.2268
     73  CD2       -3.9550   48.0590  -37.7930 C.ar  174  HIS174      0.1154
     74  CE1       -4.1920   47.1530  -39.7690 C.ar  174  HIS174      0.1986
     75  NE2       -3.3160   47.4020  -38.8130 N.ar  174  HIS174     -0.2212
     76  N         -2.0610   50.6340  -39.8780 N.3   176  SER176     -0.1202
     77  CA        -1.3670   49.6630  -40.7350 C.3   176  SER176      0.2020
     78  C          0.1430   49.8670  -40.7360 C.2   176  SER176      0.2619
     79  O          0.6280   50.9300  -40.3670 O.2   176  SER176     -0.2717
     80  CB        -1.9030   49.7320  -42.1600 C.3   176  SER176      0.2103
     81  OG        -3.3170   49.7530  -42.1580 O.3   176  SER176     -0.2182
     82  N          0.8850   48.8350  -41.1240 N.am  177  SER177     -0.1951
     83  CA         2.3480   48.8990  -41.1210 C.3   177  SER177      0.1924
     84  C          2.9280   49.9090  -42.1230 C.2   177  SER177      0.2314
     85  O          3.9990   50.4440  -41.9030 O.2   177  SER177     -0.2863
     86  CB         2.9350   47.5200  -41.3940 C.3   177  SER177      0.2116
     87  OG         4.3130   47.5130  -41.1040 O.3   177  SER177     -0.2180
     88  N         -0.0620   48.7080  -47.0140 N.3   181  GLU181     -0.1245
     89  CA        -0.8520   47.7030  -46.2880 C.3   181  GLU181      0.1567
     90  C         -2.2600   48.1780  -45.9040 C.2   181  GLU181      0.2260
     91  O         -3.1980   47.3870  -45.8660 O.2   181  GLU181     -0.2867
     92  CB        -0.0980   47.2270  -45.0420 C.3   181  GLU181      0.0388
     93  CG        -0.9290   46.2940  -44.1780 C.3   181  GLU181      0.1160
     94  CD        -0.1120   45.3370  -43.3190 C.2   181  GLU181      0.3649
     95  OE1        0.7880   45.7740  -42.5620 O.co2 181  GLU181     -0.2457
     96  OE2       -0.3920   44.1200  -43.4160 O.co2 181  GLU181     -0.2457
     97  N         -4.2970   47.6890  -49.0300 N.3   184  LYS184     -0.1231
     98  CA        -4.6570   46.2820  -49.1580 C.3   184  LYS184      0.1693
     99  C         -5.9240   45.9660  -48.3540 C.2   184  LYS184      0.2591
    100  O         -6.8740   45.3910  -48.8930 O.2   184  LYS184     -0.2718
    101  CB        -3.4840   45.4100  -48.7020 C.3   184  LYS184      0.0285
    102  CG        -3.6380   43.9110  -48.8530 C.3   184  LYS184      0.0035
    103  CD        -2.4220   43.2170  -48.1960 C.3   184  LYS184      0.0206
    104  CE        -2.4910   41.6870  -48.2950 C.3   184  LYS184      0.1093
    105  NZ        -1.3830   40.9870  -47.5680 N.3   184  LYS184     -0.1314
    106  N         -5.9590   46.4060  -47.0920 N.am  185  LEU185     -0.1980
    107  CA        -7.0070   45.9930  -46.1670 C.3   185  LEU185      0.1596
    108  C         -8.2810   46.8450  -46.2270 C.2   185  LEU185      0.2287
    109  O         -9.3900   46.3340  -46.0820 O.2   185  LEU185     -0.2864
    110  CB        -6.4560   46.0090  -44.7480 C.3   185  LEU185      0.0297
    111  CG        -5.3150   45.0390  -44.4120 C.3   185  LEU185      0.0022
    112  CD1       -4.6790   45.3620  -43.0360 C.3   185  LEU185      0.0001
    113  CD2       -5.7640   43.5940  -44.5280 C.3   185  LEU185      0.0001
    114  N          4.6550   42.0880  -35.1520 N.3   217  GLN217     -0.1245
    115  CA         3.8290   42.9870  -35.9520 C.3   217  GLN217      0.1566
    116  C          4.2830   44.4360  -35.8710 C.2   217  GLN217      0.2260
    117  O          4.5960   44.9300  -34.8040 O.2   217  GLN217     -0.2867
    118  CB         2.3630   42.8770  -35.5210 C.3   217  GLN217      0.0367
    119  CG         1.7670   41.4840  -35.6790 C.3   217  GLN217      0.0905
    120  CD         1.8770   40.9570  -37.1060 C.2   217  GLN217      0.2608
    121  OE1        2.2950   39.8160  -37.3300 O.2   217  GLN217     -0.2717
    122  NE2        1.4830   41.7810  -38.0800 N.am  217  GLN217     -0.0878
    123  N          2.3380   46.9420  -37.2820 N.3   219  GLY219     -0.1225
    124  CA         1.1360   47.7260  -37.0950 C.3   219  GLY219      0.1811
    125  C          0.7950   47.8840  -35.6190 C.2   219  GLY219      0.2280
    126  O          1.4570   47.3210  -34.7340 O.2   219  GLY219     -0.2866
@<TRIPOS>BOND
     1    98    97    1
     2    98   101    1
     3    98    99    1
     4   100    99    2
     5   102   101    1
     6   102   103    1
     7    99   106   am
     8   104   103    1
     9   104   105    1
    10   106   107    1
    11    88    89    1
    12    89    90    1
    13    89    92    1
    14   108   107    1
    15   108   109    2
    16   107   110    1
    17    90    91    2
    18    19    18    1
    19    19    20    1
    20    22    21    1
    21    92    93    1
    22    18    17    1
    23    20    21    2
    24   110   111    1
    25    21    23    1
    26    62    63    2
    27    62    61    1
    28   113   111    1
    29    13    14    1
    30   111   112    1
    31    93    94    1
    32    17    14    1
    33    14    15    1
    34    64    61    1
    35    64    65    1
    36    96    94   ar
    37    61    60    1
    38    94    95   ar
    39    80    81    1
    40    80    77    1
    41    15    16    2
    42    84    85    2
    43    84    83    1
    44    86    83    1
    45    86    87    1
    46    82    83    1
    47    82    78   am
    48    78    77    1
    49    78    79    2
    50    77    76    1
    51    74    72   ar
    52    74    75   ar
    53    72    71   ar
    54    24    25    1
    55    25    26    1
    56    54    55   ar
    57    54    52   ar
    58    49    48    2
    59    75    73   ar
    60    57    55   ar
    61    57    59   ar
    62    55    53   ar
    63    52    51   ar
    64    69    68    2
    65    48    47    1
    66    59    58   ar
    67    28    26   am
    68    28    29    1
    69    71    73   ar
    70    71    70    1
    71    31    30    2
    72   122   120   am
    73    26    27    2
    74    53    51   ar
    75    53    56   ar
    76    51    50    1
    77    58    56   ar
    78    70    67    1
    79    68    67    1
    80    32    29    1
    81   121   120    2
    82   123   124    1
    83    30    29    1
    84    30    33   am
    85   120   119    1
    86   124   125    1
    87    50    47    1
    88    47    46    1
    89    12    11    1
    90    67    66    1
    91    33    34    1
    92    34    37    1
    93    34    35    1
    94    44    45    1
    95    44    41    1
    96   115   116    1
    97   115   118    1
    98   115   114    1
    99    40    35   am
   100    40    41    1
   101   116   117    2
   102   119   118    1
   103    11    10   ar
   104    11     9   ar
   105   125   126    2
   106    10     8   ar
   107    37    38    1
   108    37    39    1
   109    35    36    2
   110    41    42    1
   111     9     7   ar
   112     8     6   ar
   113    42    43    2
   114     7     6   ar
   115     6     5    1
   116     5     2    1
   117     2     3    1
   118     2     1    1
   119     3     4    2
