@<TRIPOS>MOLECULE
tmp/5tgcD00.pdb
 195 180 0 0 0
SMALL
GASTEIGER

@<TRIPOS>ATOM
      1  N        -78.4320   46.9680  -55.5680 N.3     9  HIS9       -0.1241
      2  CA       -79.5460   46.3800  -56.3040 C.3     9  HIS9        0.1621
      3  C        -79.8050   47.1280  -57.6020 C.2     9  HIS9        0.2264
      4  O        -80.1350   48.3090  -57.5780 O.2     9  HIS9       -0.2867
      5  CB       -80.8140   46.3810  -55.4480 C.3     9  HIS9        0.0745
      6  CG       -82.0670   46.1190  -56.2260 C.ar    9  HIS9        0.0817
      7  ND1      -82.4030   44.8690  -56.7000 N.ar    9  HIS9       -0.2268
      8  CD2      -83.0620   46.9500  -56.6180 C.ar    9  HIS9        0.1154
      9  CE1      -83.5520   44.9410  -57.3490 C.ar    9  HIS9        0.1986
     10  NE2      -83.9730   46.1930  -57.3140 N.ar    9  HIS9       -0.2212
     11  N        -82.3040   47.3350  -60.5410 N.3    11  GLY11      -0.1210
     12  CA       -83.6200   46.9820  -61.0400 C.3    11  GLY11       0.1956
     13  C        -83.8750   47.6260  -62.3870 C.2    11  GLY11       0.2613
     14  O        -83.0150   48.3270  -62.9200 O.2    11  GLY11      -0.2717
     15  N        -85.0590   47.3900  -62.9420 N.am   12  SER12      -0.1938
     16  CA       -85.4350   47.9780  -64.2220 C.3    12  SER12       0.2055
     17  C        -85.4950   49.5010  -64.1460 C.2    12  SER12       0.2643
     18  O        -85.1330   50.1910  -65.0990 O.2    12  SER12      -0.2714
     19  CB       -86.7870   47.4250  -64.6820 C.3    12  SER12       0.2130
     20  OG       -87.2010   48.0300  -65.8950 O.3    12  SER12      -0.2179
     21  N        -85.9460   50.0140  -63.0040 N.am   13  HIS13      -0.1959
     22  CA       -86.1570   51.4470  -62.8180 C.3    13  HIS13       0.1787
     23  C        -85.1620   52.0340  -61.8140 C.2    13  HIS13       0.2620
     24  O        -84.3300   52.8720  -62.1670 O.2    13  HIS13      -0.2715
     25  CB       -87.5950   51.7050  -62.3620 C.3    13  HIS13       0.0785
     26  CG       -88.1040   53.0680  -62.7090 C.ar   13  HIS13       0.0821
     27  ND1      -88.3800   54.0260  -61.7580 N.ar   13  HIS13      -0.2267
     28  CD2      -88.3840   53.6350  -63.9070 C.ar   13  HIS13       0.1154
     29  CE1      -88.8110   55.1240  -62.3530 C.ar   13  HIS13       0.1986
     30  NE2      -88.8230   54.9130  -63.6570 N.ar   13  HIS13      -0.2212
     31  N        -85.2570   51.5880  -60.5640 N.am   14  ARG14      -0.1977
     32  CA       -84.4170   52.1000  -59.4850 C.3    14  ARG14       0.1597
     33  C        -83.1540   51.2680  -59.2710 C.2    14  ARG14       0.2287
     34  O        -83.1730   50.0450  -59.4030 O.2    14  ARG14      -0.2864
     35  CB       -85.2090   52.1530  -58.1740 C.3    14  ARG14       0.0334
     36  CG       -86.0780   53.3900  -58.0060 C.3    14  ARG14       0.0492
     37  CD       -86.7380   53.4090  -56.6350 C.3    14  ARG14       0.2205
     38  NE       -87.1750   54.7490  -56.2500 N.pl3  14  ARG14      -0.0865
     39  CZ       -87.4610   55.1180  -55.0030 C.cat  14  ARG14       0.5346
     40  NH1      -87.3640   54.2480  -54.0050 N.pl3  14  ARG14       0.1354
     41  NH2      -87.8490   56.3620  -54.7510 N.pl3  14  ARG14       0.1354
     42  N        -84.7980   41.9220  -65.9510 N.3    73  GLY73      -0.1225
     43  CA       -84.2080   42.4650  -64.7420 C.3    73  GLY73       0.1811
     44  C        -82.7060   42.2590  -64.7090 C.2    73  GLY73       0.2280
     45  O        -82.0510   42.5810  -63.7160 O.2    73  GLY73      -0.2866
     46  N        -83.7690   37.7280  -55.7470 N.3   139  GLU139     -0.1245
     47  CA       -84.5580   38.8000  -55.1370 C.3   139  GLU139      0.1567
     48  C        -85.8030   38.3120  -54.3900 C.2   139  GLU139      0.2260
     49  O        -85.9990   38.6810  -53.2320 O.2   139  GLU139     -0.2867
     50  CB       -84.9580   39.8260  -56.2030 C.3   139  GLU139      0.0388
     51  CG       -85.4270   41.1520  -55.6420 C.3   139  GLU139      0.1160
     52  CD       -85.8380   42.1210  -56.7310 C.2   139  GLU139      0.3649
     53  OE1      -85.5830   41.8190  -57.9160 O.co2 139  GLU139     -0.2457
     54  OE2      -86.4170   43.1800  -56.4050 O.co2 139  GLU139     -0.2457
     55  N        -94.3470   40.0930  -57.5220 N.3   156  ASP156     -0.1239
     56  CA       -93.5740   41.3230  -57.6490 C.3   156  ASP156      0.1674
     57  C        -94.0430   42.1110  -58.8610 C.2   156  ASP156      0.2266
     58  O        -93.9340   41.6430  -59.9920 O.2   156  ASP156     -0.2867
     59  CB       -92.0800   41.0100  -57.7640 C.3   156  ASP156      0.1410
     60  CG       -91.2040   42.2200  -57.4970 C.2   156  ASP156      0.3668
     61  OD1      -91.6060   43.3480  -57.8520 O.co2 156  ASP156     -0.2456
     62  OD2      -90.1030   42.0410  -56.9340 O.co2 156  ASP156     -0.2456
     63  N        -93.6770   45.6390  -60.9850 N.3   158  GLY158     -0.1210
     64  CA       -92.6930   46.6810  -61.2040 C.3   158  GLY158      0.1956
     65  C        -92.7010   47.1460  -62.6440 C.2   158  GLY158      0.2612
     66  O        -93.5900   46.7870  -63.4130 O.2   158  GLY158     -0.2717
     67  N        -91.7120   47.9600  -62.9990 N.am  159  ALA159     -0.1965
     68  CA       -91.6270   48.5490  -64.3280 C.3   159  ALA159      0.1728
     69  C        -91.7410   47.5050  -65.4360 C.2   159  ALA159      0.2616
     70  O        -92.5480   47.6540  -66.3510 O.2   159  ALA159     -0.2715
     71  CB       -90.3200   49.3160  -64.4690 C.3   159  ALA159      0.0334
     72  N        -90.9520   46.4390  -65.3360 N.am  160  SER160     -0.1950
     73  CA       -90.9270   45.4060  -66.3680 C.3   160  SER160      0.1924
     74  C        -92.2770   44.7070  -66.5120 C.2   160  SER160      0.2314
     75  O        -92.7900   44.5560  -67.6200 O.2   160  SER160     -0.2863
     76  CB       -89.8400   44.3750  -66.0600 C.3   160  SER160      0.2116
     77  OG       -89.9930   43.8440  -64.7570 O.3   160  SER160     -0.2180
     78  N        -93.9230   39.8110  -61.8400 N.3   163  ASN163     -0.1240
     79  CA       -93.0050   38.6930  -61.6850 C.3   163  ASN163      0.1653
     80  C        -93.4410   37.7840  -60.5450 C.2   163  ASN163      0.2266
     81  O        -93.3480   38.1470  -59.3710 O.2   163  ASN163     -0.2867
     82  CB       -91.5860   39.2060  -61.4470 C.3   163  ASN163      0.1155
     83  CG       -91.1130   40.1370  -62.5480 C.2   163  ASN163      0.2627
     84  OD1      -91.3410   39.8850  -63.7310 O.2   163  ASN163     -0.2716
     85  ND2      -90.4560   41.2230  -62.1620 N.am  163  ASN163     -0.0877
     86  N        -93.2600   35.5890  -65.7380 N.3   179  ARG179     -0.1245
     87  CA       -93.1300   37.0390  -65.8700 C.3   179  ARG179      0.1563
     88  C        -94.1410   37.6220  -66.8550 C.2   179  ARG179      0.2260
     89  O        -94.1290   37.2820  -68.0400 O.2   179  ARG179     -0.2867
     90  CB       -91.7190   37.4180  -66.3230 C.3   179  ARG179      0.0307
     91  CG       -90.6090   36.9360  -65.4160 C.3   179  ARG179      0.0489
     92  CD       -89.2540   37.3640  -65.9540 C.3   179  ARG179      0.2205
     93  NE       -89.0200   38.7950  -65.7740 N.pl3 179  ARG179     -0.0865
     94  CZ       -88.4680   39.3430  -64.6940 C.cat 179  ARG179      0.5346
     95  NH1      -88.2980   40.6570  -64.6350 N.pl3 179  ARG179      0.1354
     96  NH2      -88.0920   38.5880  -63.6690 N.pl3 179  ARG179      0.1354
     97  N        -95.3600   48.5360  -64.3790 N.3   184  GLY184     -0.1210
     98  CA       -95.1180   49.9630  -64.2410 C.3   184  GLY184      0.1956
     99  C        -94.8030   50.6840  -65.5410 C.2   184  GLY184      0.2611
    100  O        -95.2920   51.7920  -65.7620 O.2   184  GLY184     -0.2717
    101  N        -94.0020   50.0680  -66.4060 N.am  185  ASP185     -0.1973
    102  CA       -93.6920   50.6680  -67.7030 C.3   185  ASP185      0.1709
    103  C        -94.9190   50.6520  -68.6090 C.2   185  ASP185      0.2293
    104  O        -95.1320   51.5810  -69.3880 O.2   185  ASP185     -0.2864
    105  CB       -92.5230   49.9510  -68.3910 C.3   185  ASP185      0.1436
    106  CG       -91.1720   50.3090  -67.7840 C.2   185  ASP185      0.3671
    107  OD1      -91.0770   51.3520  -67.1000 O.co2 185  ASP185     -0.2456
    108  OD2      -90.2050   49.5450  -67.9920 O.co2 185  ASP185     -0.2456
    109  N        -97.2100   53.4990  -67.8360 N.3   188  ASP188     -0.1239
    110  CA       -96.7160   54.7700  -68.3590 C.3   188  ASP188      0.1674
    111  C        -97.3350   55.0530  -69.7250 C.2   188  ASP188      0.2266
    112  O        -97.7490   56.1780  -70.0060 O.2   188  ASP188     -0.2867
    113  CB       -95.1880   54.7680  -68.4730 C.3   188  ASP188      0.1410
    114  CG       -94.4960   54.9410  -67.1350 C.2   188  ASP188      0.3668
    115  OD1      -95.1090   55.5050  -66.2040 O.co2 188  ASP188     -0.2456
    116  OD2      -93.3260   54.5180  -67.0180 O.co2 188  ASP188     -0.2456
    117  N        -92.0100   60.6450  -67.7600 N.3   212  ALA212     -0.1245
    118  CA       -92.2930   59.4250  -67.0130 C.3   212  ALA212      0.1562
    119  C        -91.8200   59.5510  -65.5710 C.2   212  ALA212      0.2260
    120  O        -92.4160   58.9730  -64.6600 O.2   212  ALA212     -0.2867
    121  CB       -91.6360   58.2290  -67.6780 C.3   212  ALA212      0.0290
    122  N        -95.5370   59.7010  -62.9890 N.3   217  GLN217     -0.1245
    123  CA       -95.3870   58.9660  -61.7380 C.3   217  GLN217      0.1566
    124  C        -96.2690   59.5340  -60.6320 C.2   217  GLN217      0.2260
    125  O        -96.7620   58.7880  -59.7860 O.2   217  GLN217     -0.2867
    126  CB       -93.9330   58.9660  -61.2730 C.3   217  GLN217      0.0367
    127  CG       -93.7390   58.2560  -59.9370 C.3   217  GLN217      0.0905
    128  CD       -92.2840   58.1290  -59.5480 C.2   217  GLN217      0.2608
    129  OE1      -91.6930   59.0570  -58.9880 O.2   217  GLN217     -0.2717
    130  NE2      -91.6930   56.9760  -59.8460 N.am  217  GLN217     -0.0878
    131  N        -99.7570   58.1100  -61.3200 N.3   220  LYS220     -0.1231
    132  CA       -99.9440   56.7040  -60.9810 C.3   220  LYS220      0.1693
    133  C       -100.0490   56.4940  -59.4770 C.2   220  LYS220      0.2592
    134  O       -100.8040   55.6410  -59.0160 O.2   220  LYS220     -0.2718
    135  CB       -98.7980   55.8560  -61.5320 C.3   220  LYS220      0.0285
    136  CG       -98.5090   56.0670  -63.0020 C.3   220  LYS220      0.0035
    137  CD       -97.8640   54.8360  -63.6100 C.3   220  LYS220      0.0206
    138  CE       -96.6160   54.4340  -62.8510 C.3   220  LYS220      0.1093
    139  NZ       -95.6180   53.7770  -63.7390 N.3   220  LYS220     -0.1314
    140  N        -99.2890   57.2700  -58.7150 N.am  221  SER221     -0.1952
    141  CA       -99.2480   57.1060  -57.2670 C.3   221  SER221      0.1924
    142  C       -100.4860   57.6830  -56.5840 C.2   221  SER221      0.2314
    143  O       -100.7980   57.3190  -55.4510 O.2   221  SER221     -0.2863
    144  CB       -97.9930   57.7720  -56.6970 C.3   221  SER221      0.2116
    145  OG       -97.9370   59.1430  -57.0510 O.3   221  SER221     -0.2180
    146  N        -92.9950   45.1860  -54.6410 N.3   357  GLY357     -0.1210
    147  CA       -92.7720   46.0160  -55.8080 C.3   357  GLY357      0.1956
    148  C        -93.5760   47.2910  -55.6540 C.2   357  GLY357      0.2613
    149  O        -94.6200   47.2910  -55.0060 O.2   357  GLY357     -0.2717
    150  N        -93.0950   48.3790  -56.2460 N.am  358  SER358     -0.1938
    151  CA       -93.7230   49.6840  -56.0660 C.3   358  SER358      0.2055
    152  C        -95.0900   49.7890  -56.7400 C.2   358  SER358      0.2643
    153  O        -95.9860   50.4500  -56.2240 O.2   358  SER358     -0.2714
    154  CB       -92.8000   50.7860  -56.5890 C.3   358  SER358      0.2130
    155  OG       -92.2140   50.4180  -57.8220 O.3   358  SER358     -0.2179
    156  N        -95.2510   49.1490  -57.8920 N.am  359  THR359     -0.1950
    157  CA       -96.5020   49.2510  -58.6390 C.3   359  THR359      0.1897
    158  C        -97.6370   48.5620  -57.8790 C.2   359  THR359      0.2313
    159  O        -98.8120   48.7840  -58.1670 O.2   359  THR359     -0.2863
    160  CB       -96.3520   48.6540  -60.0630 C.3   359  THR359      0.1794
    161  OG1      -95.4250   49.4420  -60.8200 O.3   359  THR359     -0.2208
    162  CG2      -97.6860   48.6130  -60.8110 C.3   359  THR359      0.0378
    163  N        -98.2270   49.2580  -54.9230 N.3   361  LEU361     -0.1231
    164  CA       -98.6340   50.2550  -53.9370 C.3   361  LEU361      0.1693
    165  C        -99.9150   50.9590  -54.3660 C.2   361  LEU361      0.2591
    166  O       -100.5020   51.7070  -53.5850 O.2   361  LEU361     -0.2718
    167  CB       -97.5330   51.2940  -53.7280 C.3   361  LEU361      0.0284
    168  CG       -96.2560   50.8120  -53.0430 C.3   361  LEU361      0.0019
    169  CD1      -95.1300   51.8090  -53.2740 C.3   361  LEU361      0.0001
    170  CD2      -96.4950   50.5990  -51.5570 C.3   361  LEU361      0.0001
    171  N       -100.3470   50.7190  -55.6010 N.am  362  ILE362     -0.1980
    172  CA      -101.5940   51.2950  -56.0900 C.3   362  ILE362      0.1595
    173  C       -102.7430   50.7830  -55.2420 C.2   362  ILE362      0.2287
    174  O       -102.8210   49.5910  -54.9430 O.2   362  ILE362     -0.2864
    175  CB      -101.8480   50.9620  -57.5730 C.3   362  ILE362      0.0276
    176  CG1     -100.6920   51.4940  -58.4260 C.3   362  ILE362      0.0022
    177  CG2     -103.1750   51.5700  -58.0310 C.3   362  ILE362      0.0022
    178  CD1     -100.8870   51.3640  -59.9290 C.3   362  ILE362      0.0001
    179  N        -94.4290   52.1850  -47.2840 N.3   390  MET390     -0.1245
    180  CA       -94.3850   52.3970  -48.7260 C.3   390  MET390      0.1570
    181  C        -92.9720   52.3030  -49.2840 C.2   390  MET390      0.2261
    182  O        -92.7470   51.6420  -50.2960 O.2   390  MET390     -0.2867
    183  CB       -94.9760   53.7600  -49.0760 C.3   390  MET390      0.0387
    184  CG       -96.4440   53.9000  -48.7370 C.3   390  MET390      0.0595
    185  SD       -97.3440   54.8700  -49.9580 S.3   390  MET390     -0.1393
    186  CE       -98.9770   54.8870  -49.2160 C.3   390  MET390      0.0692
    187  N        -90.9580   49.2630  -51.8030 N.3   394  LYS394     -0.1245
    188  CA       -90.3140   49.5960  -53.0700 C.3   394  LYS394      0.1561
    189  C        -88.9390   48.9530  -53.1850 C.2   394  LYS394      0.2260
    190  O        -88.6140   48.3180  -54.1900 O.2   394  LYS394     -0.2867
    191  CB       -90.1480   51.1130  -53.2100 C.3   394  LYS394      0.0271
    192  CG       -91.4240   51.9310  -53.2440 C.3   394  LYS394      0.0035
    193  CD       -91.2530   53.1190  -54.1760 C.3   394  LYS394      0.0206
    194  CE       -92.4540   54.0360  -54.1590 C.3   394  LYS394      0.1093
    195  NZ       -92.1420   55.3390  -54.8090 N.3   394  LYS394     -0.1314
@<TRIPOS>BOND
     1   112   111    2
     2   111   110    1
     3   104   103    2
     4   103   102    1
     5   113   110    1
     6   113   114    1
     7   105   106    1
     8   105   102    1
     9   110   109    1
    10    89    88    2
    11   108   106   ar
    12   106   107   ar
    13   117   118    1
    14   102   101    1
    15   121   118    1
    16    75    74    2
    17   114   116   ar
    18   114   115   ar
    19   118   119    1
    20    88    87    1
    21    74    73    1
    22   101    99   am
    23    73    76    1
    24    73    72    1
    25    70    69    2
    26    90    87    1
    27    90    91    1
    28    76    77    1
    29    92    93    1
    30    92    91    1
    31    42    43    1
    32    20    19    1
    33    87    86    1
    34    93    94    2
    35   100    99    2
    36   119   120    2
    37    99    98    1
    38    69    72   am
    39    69    68    1
    40    18    17    2
    41    43    44    1
    42    44    45    2
    43    94    95    1
    44    94    96    1
    45    19    16    1
    46    71    68    1
    47    97    98    1
    48    68    67    1
    49    16    17    1
    50    16    15    1
    51    17    21   am
    52    28    30   ar
    53    28    26   ar
    54   139   138    1
    55    84    83    2
    56    30    29   ar
    57   137   136    1
    58   137   138    1
    59    66    65    2
    60    21    22    1
    61   136   135    1
    62    67    65   am
    63   122   123    1
    64    15    13   am
    65    14    13    2
    66    22    25    1
    67    22    23    1
    68    26    25    1
    69    26    27   ar
    70    65    64    1
    71    83    85   am
    72    83    82    1
    73    13    12    1
    74    29    27   ar
    75    24    23    2
    76    78    79    1
    77    23    31   am
    78   123   126    1
    79   123   124    1
    80    79    82    1
    81    79    80    1
    82   135   132    1
    83   131   132    1
    84   126   127    1
    85    64    63    1
    86    12    11    1
    87   132   133    1
    88   161   160    1
    89   162   160    1
    90   124   125    2
    91    31    32    1
    92    80    81    2
    93   160   157    1
    94    58    57    2
    95   127   128    1
    96   178   176    1
    97   130   128   am
    98   128   129    2
    99    32    33    1
   100    32    35    1
   101   133   134    2
   102   133   140   am
   103    34    33    2
   104    57    56    1
   105   140   141    1
   106   157   156    1
   107   157   158    1
   108   176   175    1
   109    35    36    1
   110   159   158    2
   111   177   175    1
   112    36    37    1
   113    53    52   ar
   114   156   152   am
   115    61    60   ar
   116   155   154    1
   117    59    56    1
   118    59    60    1
   119    56    55    1
   120     3     4    2
   121     3     2    1
   122   175   172    1
   123    60    62   ar
   124     9    10   ar
   125     9     7   ar
   126    10     8   ar
   127   141   144    1
   128   141   142    1
   129   145   144    1
   130   152   153    2
   131   152   151    1
   132    52    54   ar
   133    52    51    1
   134     7     6   ar
   135    37    38    1
   136     8     6   ar
   137   154   151    1
   138   142   143    2
   139     2     1    1
   140     2     5    1
   141    38    39    2
   142   150   151    1
   143   150   148   am
   144     6     5    1
   145    50    51    1
   146    50    47    1
   147   172   171    1
   148   172   173    1
   149   147   148    1
   150   147   146    1
   151    46    47    1
   152   148   149    2
   153   171   165   am
   154   173   174    2
   155    47    48    1
   156    39    41    1
   157    39    40    1
   158   163   164    1
   159   195   194    1
   160    48    49    2
   161   165   164    1
   162   165   166    2
   163   190   189    2
   164   193   194    1
   165   193   192    1
   166   164   167    1
   167   167   168    1
   168   169   168    1
   169   192   191    1
   170   191   188    1
   171   189   188    1
   172   188   187    1
   173   168   170    1
   174   182   181    2
   175   185   186    1
   176   185   184    1
   177   181   180    1
   178   183   184    1
   179   183   180    1
   180   180   179    1
