@<TRIPOS>MOLECULE
tmp/5tgtA00.pdb
 115 109 0 0 0
SMALL
GASTEIGER

@<TRIPOS>ATOM
      1  N         61.0080   38.5730   37.0220 N.3   302  PHE302     -0.1227
      2  CA        60.3560   38.5360   35.7100 C.3   302  PHE302      0.1736
      3  C         59.1270   37.6350   35.7820 C.2   302  PHE302      0.2595
      4  O         58.0440   38.0240   35.3500 O.2   302  PHE302     -0.2718
      5  CB        61.3380   38.0430   34.6370 C.3   302  PHE302      0.0547
      6  CG        60.7050   37.6890   33.3020 C.ar  302  PHE302     -0.0202
      7  CD1       60.0820   38.6580   32.5200 C.ar  302  PHE302     -0.0042
      8  CD2       60.7910   36.3960   32.8010 C.ar  302  PHE302     -0.0042
      9  CE1       59.5310   38.3410   31.2720 C.ar  302  PHE302     -0.0003
     10  CE2       60.2480   36.0660   31.5630 C.ar  302  PHE302     -0.0003
     11  CZ        59.6070   37.0400   30.7910 C.ar  302  PHE302     -0.0000
     12  N         59.3020   36.4430   36.3530 N.am  303  ALA303     -0.1980
     13  CA        58.2200   35.4640   36.4130 C.3   303  ALA303      0.1597
     14  C         57.0330   36.0140   37.1950 C.2   303  ALA303      0.2287
     15  O         55.9000   35.9020   36.7430 O.2   303  ALA303     -0.2864
     16  CB        58.7050   34.1530   37.0260 C.3   303  ALA303      0.0319
     17  N         55.0130   38.5410   35.2360 N.3   306  VAL306     -0.1231
     18  CA        54.2330   37.9350   34.1720 C.3   306  VAL306      0.1692
     19  C         53.0000   37.2590   34.7940 C.2   306  VAL306      0.2591
     20  O         51.9100   37.2790   34.2250 O.2   306  VAL306     -0.2718
     21  CB        55.0970   36.9400   33.3430 C.3   306  VAL306      0.0266
     22  CG1       54.2600   36.2070   32.3070 C.3   306  VAL306      0.0020
     23  CG2       56.2750   37.6720   32.6760 C.3   306  VAL306      0.0020
     24  N         53.1740   36.6620   35.9690 N.am  307  GLN307     -0.1979
     25  CA        52.0410   36.0790   36.6660 C.3   307  GLN307      0.1601
     26  C         51.0000   37.1370   36.9850 C.2   307  GLN307      0.2287
     27  O         49.8140   36.9280   36.7300 O.2   307  GLN307     -0.2864
     28  CB        52.4770   35.3900   37.9470 C.3   307  GLN307      0.0394
     29  CG        53.1580   34.0660   37.7190 C.3   307  GLN307      0.0908
     30  CD        53.6520   33.4570   39.0190 C.2   307  GLN307      0.2608
     31  OE1       54.8230   33.5940   39.3730 O.2   307  GLN307     -0.2717
     32  NE2       52.7580   32.7860   39.7380 N.am  307  GLN307     -0.0878
     33  N         49.3420   35.6080   33.6660 N.3   311  LEU311     -0.1231
     34  CA        49.4240   34.1720   33.9540 C.3   311  LEU311      0.1693
     35  C         49.0400   33.8790   35.3990 C.2   311  LEU311      0.2592
     36  O         49.8980   33.5370   36.2120 O.2   311  LEU311     -0.2718
     37  CB        50.8360   33.6280   33.6800 C.3   311  LEU311      0.0284
     38  CG        51.1490   33.3270   32.2350 C.3   311  LEU311      0.0019
     39  CD1       52.3600   32.4290   32.1670 C.3   311  LEU311      0.0001
     40  CD2       49.9400   32.6850   31.5620 C.3   311  LEU311      0.0001
     41  N         47.7550   34.0340   35.7170 N.am  312  ASN312     -0.1961
     42  CA        47.2630   33.8610   37.0790 C.3   312  ASN312      0.1804
     43  C         45.9040   33.1750   36.9980 C.2   312  ASN312      0.2463
     44  O         45.2440   33.2300   35.9560 O.2   312  ASN312     -0.2730
     45  CB        47.1860   35.2000   37.8240 C.3   312  ASN312      0.1195
     46  CG        46.2680   36.2220   37.1360 C.2   312  ASN312      0.2630
     47  OD1       45.0230   36.0800   37.1230 O.2   312  ASN312     -0.2716
     48  ND2       46.8780   37.2770   36.5880 N.am  312  ASN312     -0.0877
     49  N         45.5110   32.4780   38.0790 N.am  313  PRO313     -0.2727
     50  CA        44.2620   31.7040   38.1140 C.3   313  PRO313      0.1402
     51  C         43.0370   32.5270   37.7410 C.2   313  PRO313      0.2269
     52  O         42.1540   32.0300   37.0460 O.2   313  PRO313     -0.2865
     53  CB        44.1650   31.2460   39.5840 C.3   313  PRO313      0.0296
     54  CG        45.5700   31.2030   40.0630 C.3   313  PRO313      0.0237
     55  CD        46.3360   32.2630   39.2890 C.3   313  PRO313      0.0939
     56  N         43.1800   33.1850   33.8560 N.3   316  LEU316     -0.1231
     57  CA        43.1690   31.9170   33.1050 C.3   316  LEU316      0.1693
     58  C         41.8740   31.1150   33.3210 C.2   316  LEU316      0.2591
     59  O         41.4430   30.3840   32.4270 O.2   316  LEU316     -0.2718
     60  CB        44.3860   31.0600   33.4770 C.3   316  LEU316      0.0284
     61  CG        45.7650   31.6140   33.0800 C.3   316  LEU316      0.0019
     62  CD1       46.9090   30.8470   33.7450 C.3   316  LEU316      0.0001
     63  CD2       45.9430   31.5830   31.5890 C.3   316  LEU316      0.0001
     64  N         41.2500   31.2450   34.4930 N.am  317  MET317     -0.1979
     65  CA        39.9630   30.5790   34.7350 C.3   317  MET317      0.1605
     66  C         38.7780   31.3130   34.0950 C.2   317  MET317      0.2287
     67  O         37.7400   30.7060   33.8800 O.2   317  MET317     -0.2864
     68  CB        39.7000   30.3890   36.2420 C.3   317  MET317      0.0413
     69  CG        40.5880   29.3180   36.8820 C.3   317  MET317      0.0598
     70  SD        40.4040   27.6800   36.1170 S.3   317  MET317     -0.1393
     71  CE        38.7670   27.2680   36.7020 C.3   317  MET317      0.0692
     72  N         39.0850   32.2890   31.0600 N.3   319  ILE319     -0.1231
     73  CA        39.2780   31.7840   29.6960 C.3   319  ILE319      0.1692
     74  C         38.8690   30.3100   29.6010 C.2   319  ILE319      0.2591
     75  O         38.1990   29.9150   28.6600 O.2   319  ILE319     -0.2718
     76  CB        40.7500   31.9750   29.2420 C.3   319  ILE319      0.0266
     77  CG1       41.1270   33.4580   29.2610 C.3   319  ILE319      0.0019
     78  CG2       41.0110   31.3350   27.8600 C.3   319  ILE319      0.0020
     79  CD1       42.5920   33.7010   28.9390 C.3   319  ILE319      0.0001
     80  N         39.2470   29.5240   30.6090 N.am  320  ALA320     -0.1980
     81  CA        39.0380   28.0710   30.6320 C.3   320  ALA320      0.1597
     82  C         37.6770   27.5530   30.1310 C.2   320  ALA320      0.2287
     83  O         37.6550   26.6240   29.3220 O.2   320  ALA320     -0.2864
     84  CB        39.2740   27.5430   32.0430 C.3   320  ALA320      0.0319
     85  N         37.2900   27.6440   26.3900 N.3   323  VAL323     -0.1245
     86  CA        38.2600   26.9170   25.5880 C.3   323  VAL323      0.1561
     87  C         37.9270   25.4270   25.6360 C.2   323  VAL323      0.2260
     88  O         38.1180   24.6920   24.6520 O.2   323  VAL323     -0.2867
     89  CB        39.6910   27.2310   26.0880 C.3   323  VAL323      0.0252
     90  CG1       40.5490   26.0060   26.0740 C.3   323  VAL323      0.0019
     91  CG2       40.2980   28.3410   25.2510 C.3   323  VAL323      0.0019
     92  N         44.9110   24.4270   22.4090 N.3   333  ILE333     -0.1245
     93  CA        44.5280   25.5830   23.2210 C.3   333  ILE333      0.1561
     94  C         45.2590   26.8550   22.8050 C.2   333  ILE333      0.2260
     95  O         44.6310   27.9100   22.6600 O.2   333  ILE333     -0.2867
     96  CB        44.7400   25.2990   24.7250 C.3   333  ILE333      0.0252
     97  CG1       43.8310   24.1350   25.1440 C.3   333  ILE333      0.0019
     98  CG2       44.4260   26.5340   25.5730 C.3   333  ILE333      0.0019
     99  CD1       43.9010   23.7510   26.5570 C.3   333  ILE333      0.0001
    100  N         43.5160   30.3160   21.8830 N.3   337  ALA337     -0.1245
    101  CA        43.3890   31.2620   22.9700 C.3   337  ALA337      0.1562
    102  C         44.5230   32.2670   23.0130 C.2   337  ALA337      0.2260
    103  O         44.5330   33.1340   23.8860 O.2   337  ALA337     -0.2867
    104  CB        43.3020   30.5330   24.2700 C.3   337  ALA337      0.0290
    105  N         46.5640   36.9270   25.0400 N.3   341  PHE341     -0.1241
    106  CA        47.8660   37.2730   25.6020 C.3   341  PHE341      0.1605
    107  C         48.7120   38.1470   24.6800 C.2   341  PHE341      0.2264
    108  O         49.8130   38.5450   25.0440 O.2   341  PHE341     -0.2867
    109  CB        48.6200   35.9840   25.9520 C.3   341  PHE341      0.0534
    110  CG        47.8860   35.1180   26.9500 C.ar  341  PHE341     -0.0203
    111  CD1       47.9960   35.3630   28.3110 C.ar  341  PHE341     -0.0042
    112  CD2       47.0740   34.0600   26.5240 C.ar  341  PHE341     -0.0042
    113  CE1       47.3000   34.5700   29.2460 C.ar  341  PHE341     -0.0003
    114  CE2       46.3860   33.2620   27.4520 C.ar  341  PHE341     -0.0003
    115  CZ        46.5060   33.5220   28.8170 C.ar  341  PHE341     -0.0000
@<TRIPOS>BOND
     1   100   101    1
     2    92    93    1
     3    95    94    2
     4    94    93    1
     5   101   102    1
     6   101   104    1
     7   102   103    2
     8    93    96    1
     9    88    87    2
    10   107   108    2
    11   107   106    1
    12    96    97    1
    13    96    98    1
    14   105   106    1
    15    97    99    1
    16    91    89    1
    17    86    87    1
    18    86    89    1
    19    86    85    1
    20   106   109    1
    21   109   110    1
    22    90    89    1
    23   112   110   ar
    24   112   114   ar
    25   110   111   ar
    26   114   115   ar
    27    78    76    1
    28   111   113   ar
    29    75    74    2
    30   115   113   ar
    31    79    77    1
    32    76    77    1
    33    76    73    1
    34    83    82    2
    35    74    73    1
    36    74    80   am
    37    73    72    1
    38    82    81    1
    39    80    81    1
    40    81    84    1
    41    11     9   ar
    42    11    10   ar
    43     9     7   ar
    44    40    38    1
    45    10     8   ar
    46    63    61    1
    47    39    38    1
    48    38    37    1
    49    22    21    1
    50    59    58    2
    51     7     6   ar
    52    23    21    1
    53     8     6   ar
    54    61    60    1
    55    61    62    1
    56    57    58    1
    57    57    60    1
    58    57    56    1
    59     6     5    1
    60    58    64   am
    61    21    18    1
    62    33    34    1
    63    37    34    1
    64    67    66    2
    65    34    35    1
    66    66    65    1
    67    18    19    1
    68    18    17    1
    69    20    19    2
    70    64    65    1
    71     5     2    1
    72    65    68    1
    73    19    24   am
    74     4     3    2
    75    35    41   am
    76    35    36    2
    77     2     3    1
    78     2     1    1
    79    41    42    1
    80     3    12   am
    81    44    43    2
    82    24    25    1
    83    70    71    1
    84    70    69    1
    85    68    69    1
    86    12    13    1
    87    13    16    1
    88    13    14    1
    89    48    46   am
    90    25    26    1
    91    25    28    1
    92    27    26    2
    93    15    14    2
    94    43    42    1
    95    43    49   am
    96    52    51    2
    97    42    45    1
    98    47    46    2
    99    46    45    1
   100    29    28    1
   101    29    30    1
   102    51    50    1
   103    49    50    1
   104    49    55    1
   105    50    53    1
   106    30    31    2
   107    30    32   am
   108    55    54    1
   109    53    54    1
