@<TRIPOS>MOLECULE
tmp/5tgvE01.pdb
 111 105 0 0 0
SMALL
GASTEIGER

@<TRIPOS>ATOM
      1  N        116.7510   59.3200  151.3970 N.3    88  TYR88      -0.1241
      2  CA       116.0680   60.5880  151.1660 C.3    88  TYR88       0.1605
      3  C        114.5780   60.3180  151.0360 C.2    88  TYR88       0.2264
      4  O        114.1780   59.3970  150.3340 O.2    88  TYR88      -0.2867
      5  CB       116.6070   61.2590  149.9050 C.3    88  TYR88       0.0534
      6  CG       116.4540   62.7410  149.8780 C.ar   88  TYR88      -0.0201
      7  CD1      117.4370   63.5590  150.4090 C.ar   88  TYR88      -0.0009
      8  CD2      115.3590   63.3320  149.2880 C.ar   88  TYR88      -0.0009
      9  CE1      117.3250   64.9310  150.3850 C.ar   88  TYR88       0.0417
     10  CE2      115.2300   64.7150  149.2590 C.ar   88  TYR88       0.0417
     11  CZ       116.2230   65.5030  149.8120 C.ar   88  TYR88       0.1957
     12  OH       116.1330   66.8640  149.8000 O.3    88  TYR88      -0.2866
     13  N        126.0370   71.1140  137.7950 N.3   122  ASN122     -0.1240
     14  CA       126.6900   70.3700  138.8560 C.3   122  ASN122      0.1653
     15  C        126.0450   69.0020  138.8580 C.2   122  ASN122      0.2266
     16  O        124.8490   68.9050  139.1050 O.2   122  ASN122     -0.2867
     17  CB       126.5060   71.0710  140.2090 C.3   122  ASN122      0.1155
     18  CG       127.0200   70.2520  141.3800 C.2   122  ASN122      0.2627
     19  OD1      127.7310   69.2600  141.2090 O.2   122  ASN122     -0.2716
     20  ND2      126.6840   70.6900  142.5870 N.am  122  ASN122     -0.0877
     21  N        125.8530   66.7200  143.0110 N.3   125  GLY125     -0.1210
     22  CA       124.9940   67.0250  144.1430 C.3   125  GLY125      0.1956
     23  C        124.9060   65.9160  145.1800 C.2   125  GLY125      0.2613
     24  O        124.8160   64.7320  144.8340 O.2   125  GLY125     -0.2717
     25  N        124.9330   66.3060  146.4530 N.am  126  THR126     -0.1938
     26  CA       124.9140   65.3630  147.5680 C.3   126  THR126      0.2028
     27  C        123.9790   65.8960  148.6340 C.2   126  THR126      0.2643
     28  O        123.5520   67.0370  148.5490 O.2   126  THR126     -0.2714
     29  CB       126.3360   65.1350  148.1570 C.3   126  THR126      0.1808
     30  OG1      126.8910   66.3700  148.6380 O.3   126  THR126     -0.2208
     31  CG2      127.2640   64.5630  147.0950 C.3   126  THR126      0.0379
     32  N        123.6480   65.0740  149.6280 N.am  127  THR127     -0.1936
     33  CA       122.8370   65.5350  150.7640 C.3   127  THR127      0.2028
     34  C        123.2110   64.9530  152.1240 C.2   127  THR127      0.2642
     35  O        123.7100   63.8410  152.1870 O.2   127  THR127     -0.2714
     36  CB       121.3730   65.2260  150.4800 C.3   127  THR127      0.1808
     37  OG1      120.5740   65.8320  151.4990 O.3   127  THR127     -0.2208
     38  CG2      121.1390   63.7480  150.5360 C.3   127  THR127      0.0379
     39  N        122.9700   65.6920  153.2120 N.am  128  ARG128     -0.1977
     40  CA       123.2250   65.1450  154.5580 C.3   128  ARG128      0.1597
     41  C        122.3050   63.9410  154.8520 C.2   128  ARG128      0.2287
     42  O        122.6330   63.0720  155.6630 O.2   128  ARG128     -0.2864
     43  CB       123.1040   66.2270  155.6610 C.3   128  ARG128      0.0334
     44  CG       121.7150   66.4450  156.2680 C.3   128  ARG128      0.0492
     45  CD       121.6680   67.6880  157.1740 C.3   128  ARG128      0.2205
     46  NE       122.9420   67.9690  157.8430 N.pl3 128  ARG128     -0.0865
     47  CZ       123.3390   69.1890  158.2190 C.cat 128  ARG128      0.5346
     48  NH1      122.5630   70.2500  157.9840 N.pl3 128  ARG128      0.1354
     49  NH2      124.5190   69.3550  158.8150 N.pl3 128  ARG128      0.1354
     50  N        128.3880   63.8500  153.8080 N.3   136  ASN136     -0.1240
     51  CA       127.2540   64.0910  152.9020 C.3   136  ASN136      0.1653
     52  C        127.4410   63.3080  151.6250 C.2   136  ASN136      0.2266
     53  O        128.5240   63.2980  151.0850 O.2   136  ASN136     -0.2867
     54  CB       127.1190   65.5670  152.5710 C.3   136  ASN136      0.1155
     55  CG       126.6620   66.3810  153.7500 C.2   136  ASN136      0.2627
     56  OD1      126.7450   65.9430  154.8950 O.2   136  ASN136     -0.2716
     57  ND2      126.1470   67.5730  153.4770 N.am  136  ASN136     -0.0877
     58  N        122.3360   63.5410  141.2450 N.3   144  TRP144     -0.1241
     59  CA       121.4380   64.6370  141.4880 C.3   144  TRP144      0.1605
     60  C        121.8970   65.9160  140.7780 C.2   144  TRP144      0.2264
     61  O        122.6120   66.7330  141.3660 O.2   144  TRP144     -0.2867
     62  CB       121.3390   64.8640  142.9810 C.3   144  TRP144      0.0550
     63  CG       120.2640   65.8190  143.3820 C.ar  144  TRP144      0.0003
     64  CD1      119.5120   66.6070  142.5700 C.ar  144  TRP144      0.0946
     65  CD2      119.8450   66.0990  144.7090 C.ar  144  TRP144      0.0152
     66  NE1      118.6400   67.3490  143.3110 N.ar  144  TRP144     -0.2442
     67  CE2      118.8310   67.0590  144.6320 C.ar  144  TRP144      0.0810
     68  CE3      120.2350   65.6280  145.9580 C.ar  144  TRP144      0.0012
     69  CZ2      118.1850   67.5470  145.7510 C.ar  144  TRP144      0.0191
     70  CZ3      119.6110   66.1150  147.0650 C.ar  144  TRP144      0.0001
     71  CH2      118.5860   67.0670  146.9610 C.ar  144  TRP144      0.0015
     72  N        121.9780   69.6010  139.2950 N.3   146  VAL146     -0.1245
     73  CA       121.5170   70.9720  139.5600 C.3   146  VAL146      0.1561
     74  C        122.3120   72.0170  138.7730 C.2   146  VAL146      0.2260
     75  O        123.3520   71.7220  138.2040 O.2   146  VAL146     -0.2867
     76  CB       121.6250   71.3430  141.0250 C.3   146  VAL146      0.0252
     77  CG1      120.7190   70.4550  141.8560 C.3   146  VAL146      0.0019
     78  CG2      123.0650   71.2300  141.4750 C.3   146  VAL146      0.0019
     79  N        112.8830   64.9890  141.3330 N.3   176  HIS176     -0.1241
     80  CA       112.9870   65.6960  142.6010 C.3   176  HIS176      0.1621
     81  C        111.8530   66.6500  142.7800 C.2   176  HIS176      0.2264
     82  O        111.6060   67.4750  141.9310 O.2   176  HIS176     -0.2867
     83  CB       114.2890   66.4640  142.7330 C.3   176  HIS176      0.0745
     84  CG       114.3930   67.2530  144.0050 C.ar  176  HIS176      0.0817
     85  ND1      114.7640   68.5830  144.0330 N.ar  176  HIS176     -0.2268
     86  CD2      114.1700   66.8980  145.2930 C.ar  176  HIS176      0.1154
     87  CE1      114.7720   69.0090  145.2820 C.ar  176  HIS176      0.1986
     88  NE2      114.4210   68.0060  146.0670 N.ar  176  HIS176     -0.2212
     89  N        113.3230   77.4880  146.8210 N.3   183  GLU183     -0.1245
     90  CA       114.2640   76.4330  146.5200 C.3   183  GLU183      0.1567
     91  C        114.2850   75.9780  145.0430 C.2   183  GLU183      0.2260
     92  O        115.3720   75.8160  144.4840 O.2   183  GLU183     -0.2867
     93  CB       113.9530   75.2630  147.3870 C.3   183  GLU183      0.0388
     94  CG       114.4150   74.0070  146.7880 C.3   183  GLU183      0.1160
     95  CD       114.1030   72.8860  147.6940 C.2   183  GLU183      0.3649
     96  OE1      113.8930   71.7390  147.2150 O.co2 183  GLU183     -0.2457
     97  OE2      114.1440   73.1250  148.9260 O.co2 183  GLU183     -0.2457
     98  N        118.0740   75.7520  142.7370 N.3   187  LEU187     -0.1245
     99  CA       118.6780   74.6130  142.0600 C.3   187  LEU187      0.1561
    100  C        118.4700   74.6200  140.5390 C.2   187  LEU187      0.2260
    101  O        119.3170   74.1460  139.7930 O.2   187  LEU187     -0.2867
    102  CB       118.1140   73.2950  142.6210 C.3   187  LEU187      0.0270
    103  CG       118.1730   73.0390  144.1310 C.3   187  LEU187      0.0019
    104  CD1      117.6370   71.6750  144.5140 C.3   187  LEU187      0.0001
    105  CD2      119.5900   73.2320  144.6700 C.3   187  LEU187      0.0001
    106  N        110.6640   68.5150  150.4020 N.3   221  SER221     -0.1217
    107  CA       111.5910   67.9190  149.4770 C.3   221  SER221      0.1889
    108  C        111.5320   66.4180  149.6390 C.2   221  SER221      0.2288
    109  O        111.8040   65.9010  150.7210 O.2   221  SER221     -0.2866
    110  CB       112.9960   68.4770  149.7510 C.3   221  SER221      0.2089
    111  OG       113.9890   67.9080  148.9350 O.3   221  SER221     -0.2183
@<TRIPOS>BOND
     1    13    14    1
     2    75    74    2
     3    74    73    1
     4    14    15    1
     5    14    17    1
     6    15    16    2
     7    72    73    1
     8    73    76    1
     9   101   100    2
    10    17    18    1
    11   100    99    1
    12    60    61    2
    13    60    59    1
    14    76    78    1
    15    76    77    1
    16    19    18    2
    17    58    59    1
    18    79    80    1
    19    18    20   am
    20    59    62    1
    21    82    81    2
    22    99   102    1
    23    99    98    1
    24    64    66   ar
    25    64    63   ar
    26    80    83    1
    27    80    81    1
    28   102   103    1
    29    83    84    1
    30    62    63    1
    31    21    22    1
    32    66    67   ar
    33    63    65   ar
    34    84    85   ar
    35    84    86   ar
    36    85    87   ar
    37   103   104    1
    38   103   105    1
    39    22    23    1
    40    92    91    2
    41    67    65   ar
    42    67    69   ar
    43    65    68   ar
    44    24    23    2
    45    91    90    1
    46    23    25   am
    47    87    88   ar
    48    86    88   ar
    49    69    71   ar
    50    68    70   ar
    51    25    26    1
    52    90    89    1
    53    90    93    1
    54    94    93    1
    55    94    95    1
    56    71    70   ar
    57    31    29    1
    58    96    95   ar
    59    26    29    1
    60    26    27    1
    61    95    97   ar
    62    29    30    1
    63    28    27    2
    64    27    32   am
    65   111   110    1
    66    10     8   ar
    67    10    11   ar
    68     8     6   ar
    69   107   108    1
    70   107   110    1
    71   107   106    1
    72    32    33    1
    73   108   109    2
    74    12    11    1
    75    11     9   ar
    76     6     5    1
    77     6     7   ar
    78     5     2    1
    79     4     3    2
    80     9     7   ar
    81    36    38    1
    82    36    33    1
    83    36    37    1
    84    33    34    1
    85     3     2    1
    86    53    52    2
    87     2     1    1
    88    52    51    1
    89    34    35    2
    90    34    39   am
    91    54    51    1
    92    54    55    1
    93    51    50    1
    94    39    40    1
    95    57    55   am
    96    55    56    2
    97    40    41    1
    98    40    43    1
    99    41    42    2
   100    43    44    1
   101    44    45    1
   102    45    46    1
   103    46    47    2
   104    48    47    1
   105    47    49    1
