@<TRIPOS>MOLECULE
tmp/5tgyA00.pdb
 199 190 0 0 0
SMALL
GASTEIGER

@<TRIPOS>ATOM
      1  N         -0.3870   -7.9570   -8.5390 N.3     3  PHE3       -0.1241
      2  CA        -1.1860   -8.9580   -9.2290 C.3     3  PHE3        0.1605
      3  C         -2.6640   -8.6740   -9.0470 C.2     3  PHE3        0.2264
      4  O         -3.4760   -8.9820   -9.9130 O.2     3  PHE3       -0.2867
      5  CB        -0.8460  -10.3640   -8.7300 C.3     3  PHE3        0.0534
      6  CG         0.6070  -10.7180   -8.8770 C.ar    3  PHE3       -0.0203
      7  CD1        1.3820  -10.9950   -7.7640 C.ar    3  PHE3       -0.0042
      8  CD2        1.1990  -10.7650  -10.1300 C.ar    3  PHE3       -0.0042
      9  CE1        2.7200  -11.3140   -7.8960 C.ar    3  PHE3       -0.0003
     10  CE2        2.5350  -11.0830  -10.2670 C.ar    3  PHE3       -0.0003
     11  CZ         3.2970  -11.3580   -9.1490 C.ar    3  PHE3       -0.0000
     12  N         -3.2970   -5.5780  -11.4160 N.3     6  LEU6       -0.1231
     13  CA        -3.3970   -6.1190  -12.7710 C.3     6  LEU6        0.1693
     14  C         -4.7570   -6.7600  -13.0230 C.2     6  LEU6        0.2591
     15  O         -5.3160   -6.6090  -14.1040 O.2     6  LEU6       -0.2718
     16  CB        -2.2920   -7.1560  -13.0160 C.3     6  LEU6        0.0284
     17  CG        -0.8540   -6.6310  -12.9960 C.3     6  LEU6        0.0019
     18  CD1        0.1330   -7.7840  -13.0940 C.3     6  LEU6        0.0001
     19  CD2       -0.6270   -5.6470  -14.1310 C.3     6  LEU6        0.0001
     20  N         -5.2950   -7.4450  -12.0190 N.am    7  ARG7       -0.1980
     21  CA        -6.5940   -8.0970  -12.1550 C.3     7  ARG7        0.1597
     22  C         -7.7220   -7.0740  -12.2240 C.2     7  ARG7        0.2287
     23  O         -8.5960   -7.1670  -13.0800 O.2     7  ARG7       -0.2864
     24  CB        -6.8340   -9.0930  -11.0130 C.3     7  ARG7        0.0334
     25  CG        -5.9280  -10.3170  -11.0650 C.3     7  ARG7        0.0492
     26  CD        -6.1670  -11.2400   -9.8860 C.3     7  ARG7        0.2205
     27  NE        -5.3130  -12.4340   -9.9330 N.pl3   7  ARG7       -0.0865
     28  CZ        -5.6340  -13.6100   -9.3810 C.cat   7  ARG7        0.5346
     29  NH1       -6.7750  -13.7430   -8.7140 N.pl3   7  ARG7        0.1354
     30  NH2       -4.8080  -14.6470   -9.4890 N.pl3   7  ARG7        0.1354
     31  N         -7.4390   -5.3750  -15.3990 N.3    10  GLY10      -0.1210
     32  CA        -7.6370   -6.2910  -16.4860 C.3    10  GLY10       0.1956
     33  C         -9.0980   -6.5330  -16.6930 C.2    10  GLY10       0.2611
     34  O         -9.5780   -6.5530  -17.8180 O.2    10  GLY10      -0.2717
     35  N         -9.8080   -6.7030  -15.5890 N.am   11  ASP11      -0.1973
     36  CA       -11.2500   -6.8930  -15.6050 C.3    11  ASP11       0.1709
     37  C        -11.9390   -5.7430  -16.3080 C.2    11  ASP11       0.2293
     38  O        -12.7850   -5.9520  -17.1760 O.2    11  ASP11      -0.2864
     39  CB       -11.7870   -7.0180  -14.1800 C.3    11  ASP11       0.1436
     40  CG       -11.5850   -8.3930  -13.5970 C.2    11  ASP11       0.3671
     41  OD1      -11.7400   -9.3880  -14.3390 O.co2  11  ASP11      -0.2456
     42  OD2      -11.2970   -8.4890  -12.3890 O.co2  11  ASP11      -0.2456
     43  N        -10.5760   -3.5950  -18.3820 N.3    13  LEU13      -0.1231
     44  CA       -10.1380   -3.6290  -19.7760 C.3    13  LEU13       0.1693
     45  C        -10.9630   -4.6510  -20.5620 C.2    13  LEU13       0.2591
     46  O        -11.4520   -4.3580  -21.6510 O.2    13  LEU13      -0.2718
     47  CB        -8.6220   -3.9700  -19.8310 C.3    13  LEU13       0.0284
     48  CG        -7.9280   -3.9770  -21.2160 C.3    13  LEU13       0.0019
     49  CD1       -8.2380   -5.2480  -21.9960 C.3    13  LEU13       0.0001
     50  CD2       -8.3160   -2.7490  -22.0210 C.3    13  LEU13       0.0001
     51  N        -11.1300   -5.8340  -19.9930 N.am   14  VAL14      -0.1980
     52  CA       -11.9060   -6.8890  -20.6320 C.3    14  VAL14       0.1595
     53  C        -13.3620   -6.4630  -20.7810 C.2    14  VAL14       0.2287
     54  O        -13.9730   -6.6670  -21.8230 O.2    14  VAL14      -0.2864
     55  CB       -11.8190   -8.2080  -19.8330 C.3    14  VAL14       0.0276
     56  CG1      -12.7480   -9.2630  -20.4180 C.3    14  VAL14       0.0022
     57  CG2      -10.3840   -8.7110  -19.8160 C.3    14  VAL14       0.0022
     58  N         -5.4800    0.0100  -21.3780 N.3    43  ILE43      -0.1245
     59  CA        -4.3210   -0.7990  -21.7280 C.3    43  ILE43       0.1561
     60  C         -3.0780   -0.1870  -21.1110 C.2    43  ILE43       0.2260
     61  O         -2.2730   -0.8810  -20.4940 O.2    43  ILE43      -0.2867
     62  CB        -4.1260   -0.9040  -23.2670 C.3    43  ILE43       0.0252
     63  CG1       -5.3140   -1.6240  -23.9120 C.3    43  ILE43       0.0019
     64  CG2       -2.8200   -1.6260  -23.5980 C.3    43  ILE43       0.0019
     65  CD1       -5.2360   -1.6980  -25.4240 C.3    43  ILE43       0.0001
     66  N         -3.1100   -0.6190  -17.3370 N.3    46  HIS46      -0.1226
     67  CA        -2.8050   -1.9830  -16.9270 C.3    46  HIS46       0.1752
     68  C         -1.3370   -2.3190  -17.2210 C.2    46  HIS46       0.2595
     69  O         -0.6500   -2.9130  -16.3950 O.2    46  HIS46      -0.2718
     70  CB        -3.7690   -2.9460  -17.6500 C.3    46  HIS46       0.0759
     71  CG        -3.5160   -4.4220  -17.4630 C.ar   46  HIS46       0.0818
     72  ND1       -3.8440   -5.1250  -16.3160 N.ar   46  HIS46      -0.2268
     73  CD2       -3.0380   -5.3380  -18.3310 C.ar   46  HIS46       0.1154
     74  CE1       -3.5780   -6.4060  -16.5020 C.ar   46  HIS46       0.1986
     75  NE2       -3.0880   -6.5640  -17.7180 N.ar   46  HIS46      -0.2212
     76  N         -0.8740   -1.9320  -18.4080 N.am   47  ARG47      -0.1980
     77  CA         0.5070   -2.1790  -18.8360 C.3    47  ARG47       0.1597
     78  C          1.5110   -1.4170  -17.9750 C.2    47  ARG47       0.2287
     79  O          2.5730   -1.9360  -17.6540 O.2    47  ARG47      -0.2864
     80  CB         0.6730   -1.7870  -20.3100 C.3    47  ARG47       0.0334
     81  CG         2.0100   -2.1740  -20.9240 C.3    47  ARG47       0.0492
     82  CD         2.0030   -1.9480  -22.4270 C.3    47  ARG47       0.2205
     83  NE         3.0440   -2.7210  -23.1110 N.pl3  47  ARG47      -0.0865
     84  CZ         4.1290   -2.1970  -23.6790 C.cat  47  ARG47       0.5346
     85  NH1        4.3530   -0.8910  -23.6290 N.pl3  47  ARG47       0.1354
     86  NH2        4.9890   -2.9890  -24.3030 N.pl3  47  ARG47       0.1354
     87  N          2.8100   -3.1920  -15.0800 N.3    50  PHE50      -0.1241
     88  CA         3.7950   -4.2050  -15.4190 C.3    50  PHE50       0.1605
     89  C          5.1260   -3.5510  -15.7720 C.2    50  PHE50       0.2264
     90  O          6.1900   -4.1020  -15.5020 O.2    50  PHE50      -0.2867
     91  CB         3.2970   -5.0810  -16.5790 C.3    50  PHE50       0.0534
     92  CG         4.3010   -6.1020  -17.0440 C.ar   50  PHE50      -0.0203
     93  CD1        4.7370   -7.1050  -16.1920 C.ar   50  PHE50      -0.0042
     94  CD2        4.8110   -6.0550  -18.3320 C.ar   50  PHE50      -0.0042
     95  CE1        5.6610   -8.0400  -16.6170 C.ar   50  PHE50      -0.0003
     96  CE2        5.7340   -6.9880  -18.7610 C.ar   50  PHE50      -0.0003
     97  CZ         6.1600   -7.9810  -17.9020 C.ar   50  PHE50      -0.0000
     98  N          5.1130  -10.2880  -12.9670 N.3    56  ALA56      -0.1231
     99  CA         4.2420  -11.1710  -13.7570 C.3    56  ALA56       0.1694
    100  C          3.9950  -12.5160  -13.0760 C.2    56  ALA56       0.2592
    101  O          4.6530  -12.8700  -12.1000 O.2    56  ALA56      -0.2718
    102  CB         4.8080  -11.3820  -15.1610 C.3    56  ALA56       0.0304
    103  N          3.0240  -13.2520  -13.5930 N.am   57  ALA57      -0.1966
    104  CA         2.7010  -14.5700  -13.0710 C.3    57  ALA57       0.1728
    105  C          3.4060  -15.6420  -13.8900 C.2    57  ALA57       0.2616
    106  O          3.4330  -16.8140  -13.5090 O.2    57  ALA57      -0.2715
    107  CB         1.1950  -14.7900  -13.0870 C.3    57  ALA57       0.0334
    108  N          4.0100  -15.2040  -14.9980 N.am   58  ASP58      -0.1971
    109  CA         4.7160  -16.0800  -15.9360 C.3    58  ASP58       0.1709
    110  C          5.1600  -15.2810  -17.1540 C.2    58  ASP58       0.2293
    111  O          4.5990  -14.2190  -17.4450 O.2    58  ASP58      -0.2864
    112  CB         3.8440  -17.2610  -16.3870 C.3    58  ASP58       0.1436
    113  CG         4.6260  -18.2500  -17.2230 C.2    58  ASP58       0.3671
    114  OD1        5.4380  -18.9970  -16.6550 O.co2  58  ASP58      -0.2456
    115  OD2        4.4510  -18.2680  -18.4530 O.co2  58  ASP58      -0.2456
    116  N          2.5040  -15.3010  -20.2980 N.3    61  ALA61      -0.1231
    117  CA         1.4140  -14.3550  -20.1300 C.3    61  ALA61       0.1694
    118  C          1.8300  -12.9670  -20.5980 C.2    61  ALA61       0.2591
    119  O          1.0760  -12.2850  -21.2820 O.2    61  ALA61      -0.2718
    120  CB         0.9650  -14.3170  -18.6750 C.3    61  ALA61       0.0304
    121  N          3.0410  -12.5590  -20.2330 N.am   62  ALA62      -0.1980
    122  CA         3.5640  -11.2630  -20.6390 C.3    62  ALA62       0.1597
    123  C          3.7310  -11.1850  -22.1570 C.2    62  ALA62       0.2287
    124  O          3.4170  -10.1660  -22.7710 O.2    62  ALA62      -0.2864
    125  CB         4.8870  -10.9870  -19.9410 C.3    62  ALA62       0.0319
    126  N          0.4230  -10.9430  -23.6450 N.3    65  GLY65      -0.1210
    127  CA        -0.1210   -9.6550  -23.2660 C.3    65  GLY65       0.1956
    128  C          0.3330   -8.5650  -24.2140 C.2    65  GLY65       0.2611
    129  O         -0.4820   -7.7980  -24.7270 O.2    65  GLY65      -0.2717
    130  N          1.6370   -8.5120  -24.4700 N.am   66  ASP66      -0.1973
    131  CA         2.1900   -7.5450  -25.4210 C.3    66  ASP66       0.1709
    132  C          1.6840   -7.8230  -26.8250 C.2    66  ASP66       0.2293
    133  O          1.4100   -6.9000  -27.5920 O.2    66  ASP66      -0.2864
    134  CB         3.7280   -7.5490  -25.4070 C.3    66  ASP66       0.1436
    135  CG         4.3270   -6.6340  -24.3470 C.2    66  ASP66       0.3671
    136  OD1        3.9610   -5.4410  -24.3010 O.co2  66  ASP66      -0.2456
    137  OD2        5.1990   -7.0950  -23.5830 O.co2  66  ASP66      -0.2456
    138  N         -1.1680   -9.1180  -27.6340 N.3    68  TRP68      -0.1227
    139  CA        -2.5530   -8.6660  -27.6810 C.3    68  TRP68       0.1737
    140  C         -2.6080   -7.1690  -27.9680 C.2    68  TRP68       0.2595
    141  O         -3.4650   -6.6980  -28.7150 O.2    68  TRP68      -0.2718
    142  CB        -3.2770   -8.9810  -26.3660 C.3    68  TRP68       0.0564
    143  CG        -4.7570   -8.7370  -26.4300 C.ar   68  TRP68       0.0003
    144  CD1       -5.7080   -9.6190  -26.8490 C.ar   68  TRP68       0.0946
    145  CD2       -5.4570   -7.5370  -26.0690 C.ar   68  TRP68       0.0152
    146  NE1       -6.9510   -9.0470  -26.7760 N.ar   68  TRP68      -0.2442
    147  CE2       -6.8260   -7.7690  -26.3000 C.ar   68  TRP68       0.0810
    148  CE3       -5.0590   -6.2910  -25.5750 C.ar   68  TRP68       0.0012
    149  CZ2       -7.7970   -6.8040  -26.0550 C.ar   68  TRP68       0.0191
    150  CZ3       -6.0250   -5.3340  -25.3320 C.ar   68  TRP68       0.0001
    151  CH2       -7.3800   -5.5950  -25.5720 C.ar   68  TRP68       0.0015
    152  N         -1.6660   -6.4330  -27.3880 N.am   69  VAL69      -0.1980
    153  CA        -1.6060   -4.9890  -27.5670 C.3    69  VAL69       0.1595
    154  C         -1.2960   -4.6710  -29.0240 C.2    69  VAL69       0.2287
    155  O         -1.8550   -3.7410  -29.6080 O.2    69  VAL69      -0.2864
    156  CB        -0.5270   -4.3430  -26.6600 C.3    69  VAL69       0.0276
    157  CG1       -0.4850   -2.8330  -26.8530 C.3    69  VAL69       0.0022
    158  CG2       -0.7800   -4.6810  -25.2030 C.3    69  VAL69       0.0022
    159  N         -7.1630  -12.9670  -25.4550 N.3    98  LEU98      -0.1245
    160  CA        -7.6520  -12.3970  -24.2110 C.3    98  LEU98       0.1561
    161  C         -8.1020  -13.4980  -23.2520 C.2    98  LEU98       0.2260
    162  O         -7.7490  -13.4900  -22.0640 O.2    98  LEU98      -0.2867
    163  CB        -8.8030  -11.4080  -24.5070 C.3    98  LEU98       0.0270
    164  CG        -9.4660  -10.7250  -23.2980 C.3    98  LEU98       0.0019
    165  CD1       -9.9500   -9.3400  -23.6830 C.3    98  LEU98       0.0001
    166  CD2      -10.6390  -11.5550  -22.7840 C.3    98  LEU98       0.0001
    167  N         -4.9980  -15.3400  -21.8650 N.3   101  ILE101     -0.1231
    168  CA        -4.2520  -14.5550  -20.8910 C.3   101  ILE101      0.1692
    169  C         -4.9470  -14.5720  -19.5320 C.2   101  ILE101      0.2591
    170  O         -4.3030  -14.7910  -18.5090 O.2   101  ILE101     -0.2718
    171  CB        -4.0580  -13.0920  -21.3600 C.3   101  ILE101      0.0266
    172  CG1       -3.2530  -13.0590  -22.6600 C.3   101  ILE101      0.0019
    173  CG2       -3.3540  -12.2720  -20.2800 C.3   101  ILE101      0.0020
    174  CD1       -3.1660  -11.6880  -23.2880 C.3   101  ILE101      0.0001
    175  N         -6.2660  -14.3580  -19.5230 N.am  102  ARG102     -0.1980
    176  CA        -7.0300  -14.3830  -18.2740 C.3   102  ARG102      0.1597
    177  C         -6.9040  -15.7240  -17.5710 C.2   102  ARG102      0.2287
    178  O         -6.7280  -15.7790  -16.3560 O.2   102  ARG102     -0.2864
    179  CB        -8.5090  -14.0900  -18.5220 C.3   102  ARG102      0.0334
    180  CG        -8.8170  -12.6480  -18.8700 C.3   102  ARG102      0.0492
    181  CD       -10.3080  -12.3750  -18.7490 C.3   102  ARG102      0.2205
    182  NE       -10.8100  -12.7440  -17.4250 N.pl3 102  ARG102     -0.0865
    183  CZ       -11.1610  -11.8820  -16.4600 C.cat 102  ARG102      0.5346
    184  NH1      -11.1040  -10.5720  -16.6630 N.pl3 102  ARG102      0.1354
    185  NH2      -11.5740  -12.3420  -15.2890 N.pl3 102  ARG102      0.1354
    186  N         -3.4500  -15.9530  -16.1370 N.3   105  ALA105     -0.1231
    187  CA        -3.2630  -14.9610  -15.0830 C.3   105  ALA105      0.1694
    188  C         -3.9430  -15.3490  -13.7750 C.2   105  ALA105      0.2591
    189  O         -3.5030  -14.9440  -12.7020 O.2   105  ALA105     -0.2718
    190  CB        -3.7610  -13.6090  -15.5490 C.3   105  ALA105      0.0304
    191  N         -5.0120  -16.1200  -13.8590 N.am  106  GLU106     -0.1979
    192  CA        -5.7360  -16.5340  -12.6610 C.3   106  GLU106      0.1602
    193  C         -5.0120  -17.6450  -11.9020 C.2   106  GLU106      0.2287
    194  O         -5.3720  -17.9640  -10.7670 O.2   106  GLU106     -0.2864
    195  CB        -7.1550  -16.9770  -13.0020 C.3   106  GLU106      0.0415
    196  CG        -8.0930  -15.8370  -13.3450 C.3   106  GLU106      0.1163
    197  CD        -9.5390  -16.2670  -13.3230 C.2   106  GLU106      0.3649
    198  OE1      -10.0410  -16.7400  -14.3580 O.co2 106  GLU106     -0.2457
    199  OE2      -10.1800  -16.1450  -12.2590 O.co2 106  GLU106     -0.2457
@<TRIPOS>BOND
     1   155   154    2
     2   154   153    1
     3   141   140    2
     4   140   139    1
     5   140   152   am
     6   139   138    1
     7   139   142    1
     8   133   132    2
     9   153   152    1
    10   153   156    1
    11   157   156    1
    12   144   146   ar
    13   144   143   ar
    14   132   131    1
    15   146   147   ar
    16   156   158    1
    17   143   142    1
    18   143   145   ar
    19   147   145   ar
    20   147   149   ar
    21   145   148   ar
    22   149   151   ar
    23   148   150   ar
    24   151   150   ar
    25   159   160    1
    26    65    63    1
    27   131   134    1
    28   131   130    1
    29   134   135    1
    30   129   128    2
    31   163   160    1
    32   163   164    1
    33   130   128   am
    34   135   136   ar
    35   135   137   ar
    36    86    84    1
    37   128   127    1
    38   160   161    1
    39    63    62    1
    40   165   164    1
    41    84    85    1
    42    84    83    2
    43   126   127    1
    44    64    62    1
    45   164   166    1
    46   174   172    1
    47    62    59    1
    48   161   162    2
    49    83    82    1
    50   124   123    2
    51   172   171    1
    52    82    81    1
    53   123   122    1
    54    50    48    1
    55    49    48    1
    56   167   168    1
    57    54    53    2
    58    59    58    1
    59    59    60    1
    60    46    45    2
    61   171   168    1
    62   171   173    1
    63   119   118    2
    64    48    47    1
    65    60    61    2
    66    81    80    1
    67   168   169    1
    68    53    52    1
    69   122   121    1
    70   122   125    1
    71    52    51    1
    72    52    55    1
    73   118   121   am
    74   118   117    1
    75    45    51   am
    76    45    44    1
    77    56    55    1
    78    80    77    1
    79   116   117    1
    80   117   120    1
    81    55    57    1
    82    47    44    1
    83    44    43    1
    84   169   175   am
    85   169   170    2
    86   175   176    1
    87   180   181    1
    88   180   179    1
    89    77    76    1
    90    77    78    1
    91    96    94   ar
    92    96    97   ar
    93   181   182    1
    94   179   176    1
    95   115   113   ar
    96    76    68   am
    97    94    92   ar
    98    73    75   ar
    99    73    71   ar
   100   176   177    1
   101    78    79    2
   102    97    95   ar
   103    34    33    2
   104    75    74   ar
   105    70    71    1
   106    70    67    1
   107   177   178    2
   108    71    72   ar
   109   111   110    2
   110   182   183    2
   111    66    67    1
   112   113   114   ar
   113   113   112    1
   114    68    67    1
   115    68    69    2
   116    38    37    2
   117   110   109    1
   118    92    91    1
   119    92    93   ar
   120    33    32    1
   121    33    35   am
   122   184   183    1
   123    95    93   ar
   124    91    88    1
   125    74    72   ar
   126    32    31    1
   127   183   185    1
   128   112   109    1
   129    37    36    1
   130   186   187    1
   131   109   108    1
   132    89    90    2
   133    89    88    1
   134    36    35    1
   135    36    39    1
   136   190   187    1
   137    88    87    1
   138   102    99    1
   139   187   188    1
   140   108   105   am
   141   198   197   ar
   142    41    40   ar
   143    39    40    1
   144    19    17    1
   145    15    14    2
   146   105   106    2
   147   105   104    1
   148   191   188   am
   149   191   192    1
   150   188   189    2
   151    99   100    1
   152    99    98    1
   153    40    42   ar
   154   103   100   am
   155   103   104    1
   156   196   197    1
   157   196   195    1
   158   197   199   ar
   159    18    17    1
   160   107   104    1
   161    23    22    2
   162   100   101    2
   163    14    13    1
   164    14    20   am
   165    16    17    1
   166    16    13    1
   167   195   192    1
   168    13    12    1
   169   192   193    1
   170    22    21    1
   171    21    20    1
   172    21    24    1
   173   193   194    2
   174    25    24    1
   175    25    26    1
   176    10     8   ar
   177    10    11   ar
   178     8     6   ar
   179    27    26    1
   180    27    28    2
   181     4     3    2
   182    30    28    1
   183    28    29    1
   184     2     3    1
   185     2     5    1
   186     2     1    1
   187    11     9   ar
   188     6     5    1
   189     6     7   ar
   190     9     7   ar
