@<TRIPOS>MOLECULE
tmp/5tgzA01.pdb
 153 151 0 0 0
SMALL
GASTEIGER

@<TRIPOS>ATOM
      1  N         31.2020   -3.0960  275.9020 N.3   220  SER220     -0.1202
      2  CA        32.4940   -3.7000  275.6020 C.3   220  SER220      0.2020
      3  C         32.5680   -5.0820  276.2330 C.2   220  SER220      0.2619
      4  O         32.2050   -5.2470  277.4010 O.2   220  SER220     -0.2717
      5  CB        33.6370   -2.8170  276.1230 C.3   220  SER220      0.2103
      6  OG        34.8980   -3.2440  275.6350 O.3   220  SER220     -0.2182
      7  N         33.0370   -6.0690  275.4660 N.am  221  THR221     -0.1938
      8  CA        33.2700   -7.4080  275.9970 C.3   221  THR221      0.2028
      9  C         34.7250   -7.6160  276.3950 C.2   221  THR221      0.2642
     10  O         35.0060   -8.0370  277.5200 O.2   221  THR221     -0.2714
     11  CB        32.8720   -8.4970  274.9830 C.3   221  THR221      0.1808
     12  OG1       33.9530   -8.7450  274.0770 O.3   221  THR221     -0.2208
     13  CG2       31.6400   -8.1180  274.1960 C.3   221  THR221      0.0379
     14  N         35.6580   -7.3340  275.4830 N.am  222  THR222     -0.1950
     15  CA        37.0750   -7.5100  275.7750 C.3   222  THR222      0.1897
     16  C         37.6260   -6.3670  276.6180 C.2   222  THR222      0.2313
     17  O         38.5570   -6.5740  277.4050 O.2   222  THR222     -0.2863
     18  CB        37.8660   -7.6270  274.4700 C.3   222  THR222      0.1794
     19  OG1       37.3660   -8.7300  273.7080 O.3   222  THR222     -0.2208
     20  CG2       39.3580   -7.8320  274.7410 C.3   222  THR222      0.0378
     21  N         38.1700   -3.1000  275.0070 N.3   224  ASN224     -0.1225
     22  CA        38.7630   -2.0780  274.1550 C.3   224  ASN224      0.1785
     23  C         37.9300   -0.8040  274.1790 C.2   224  ASN224      0.2597
     24  O         38.4690    0.3050  274.2850 O.2   224  ASN224     -0.2718
     25  CB        38.9230   -2.6210  272.7360 C.3   224  ASN224      0.1169
     26  CG        40.0110   -3.6760  272.6480 C.2   224  ASN224      0.2627
     27  OD1       40.8480   -3.7940  273.5460 O.2   224  ASN224     -0.2716
     28  ND2       40.0080   -4.4480  271.5740 N.am  224  ASN224     -0.0877
     29  N         36.6070   -0.9400  274.1100 N.am  225  THR225     -0.1953
     30  CA        35.7580    0.2410  274.1830 C.3   225  THR225      0.1897
     31  C         35.6570    0.7760  275.6080 C.2   225  THR225      0.2313
     32  O         35.4130    1.9720  275.7920 O.2   225  THR225     -0.2863
     33  CB        34.3730   -0.0780  273.6150 C.3   225  THR225      0.1794
     34  OG1       34.5180   -0.6240  272.2970 O.3   225  THR225     -0.2208
     35  CG2       33.5020    1.1770  273.5460 C.3   225  THR225      0.0378
     36  N         31.1380   -1.4250  270.5300 N.3   268  SER268     -0.1202
     37  CA        31.9260   -2.2240  269.6070 C.3   268  SER268      0.2020
     38  C         31.0050   -3.0160  268.6840 C.2   268  SER268      0.2619
     39  O         29.8420   -3.2750  269.0000 O.2   268  SER268     -0.2717
     40  CB        32.8460   -3.1720  270.3770 C.3   268  SER268      0.2103
     41  OG        32.1340   -3.8660  271.3870 O.3   268  SER268     -0.2182
     42  N         31.5430   -3.4050  267.5320 N.am  269  THR269     -0.1938
     43  CA        30.7760   -4.1000  266.5050 C.3   269  THR269      0.2028
     44  C         31.1090   -5.5890  266.5160 C.2   269  THR269      0.2642
     45  O         32.2780   -5.9730  266.6170 O.2   269  THR269     -0.2714
     46  CB        31.0620   -3.5140  265.1200 C.3   269  THR269      0.1808
     47  OG1       30.9310   -2.0880  265.1580 O.3   269  THR269     -0.2208
     48  CG2       30.0860   -4.0500  264.1070 C.3   269  THR269      0.0379
     49  N         30.0750   -6.4210  266.3900 N.am  270  TRP270     -0.1959
     50  CA        30.2150   -7.8710  266.5100 C.3   270  TRP270      0.1771
     51  C         29.4360   -8.5710  265.4030 C.2   270  TRP270      0.2620
     52  O         28.7130   -9.5410  265.6340 O.2   270  TRP270     -0.2715
     53  CB        29.7660   -8.3330  267.8950 C.3   270  TRP270      0.0590
     54  CG        30.6600   -7.7950  268.9470 C.ar  270  TRP270      0.0006
     55  CD1       30.5750   -6.5750  269.5480 C.ar  270  TRP270      0.0946
     56  CD2       31.8090   -8.4410  269.5040 C.ar  270  TRP270      0.0152
     57  NE1       31.5980   -6.4240  270.4550 N.ar  270  TRP270     -0.2442
     58  CE2       32.3690   -7.5580  270.4480 C.ar  270  TRP270      0.0810
     59  CE3       32.4150   -9.6820  269.3000 C.ar  270  TRP270      0.0012
     60  CZ2       33.5050   -7.8790  271.1890 C.ar  270  TRP270      0.0191
     61  CZ3       33.5390  -10.0000  270.0360 C.ar  270  TRP270      0.0001
     62  CH2       34.0740   -9.1030  270.9680 C.ar  270  TRP270      0.0015
     63  N         29.5970   -8.0980  264.1700 N.am  271  GLY271     -0.1940
     64  CA        28.9430   -8.7370  263.0470 C.3   271  GLY271      0.2014
     65  C         29.6470  -10.0110  262.6230 C.2   271  GLY271      0.2638
     66  O         30.5900   -9.9600  261.8280 O.2   271  GLY271     -0.2714
     67  N         29.2100  -11.1570  263.1540 N.am  272  ASP272     -0.1971
     68  CA        29.7930  -12.4390  262.7670 C.3   272  ASP272      0.1709
     69  C         29.7400  -12.6280  261.2550 C.2   272  ASP272      0.2293
     70  O         30.7710  -12.7790  260.5880 O.2   272  ASP272     -0.2864
     71  CB        29.0580  -13.5760  263.4780 C.3   272  ASP272      0.1436
     72  CG        29.6420  -14.9360  263.1580 C.2   272  ASP272      0.3671
     73  OD1       29.3960  -15.4470  262.0450 O.co2 272  ASP272     -0.2456
     74  OD2       30.3500  -15.4920  264.0270 O.co2 272  ASP272     -0.2456
     75  N         26.7800  -10.7310  259.8530 N.3   274  SER274     -0.1202
     76  CA        25.9780   -9.5340  259.6530 C.3   274  SER274      0.2020
     77  C         26.6320   -8.3300  260.3190 C.2   274  SER274      0.2618
     78  O         27.8580   -8.1860  260.2930 O.2   274  SER274     -0.2717
     79  CB        24.5800   -9.7730  260.2230 C.3   274  SER274      0.2103
     80  OG        24.6760  -10.0930  261.6010 O.3   274  SER274     -0.2182
     81  N         25.8180   -7.4650  260.9150 N.am  275  ILE275     -0.1979
     82  CA        26.2730   -6.3010  261.6600 C.3   275  ILE275      0.1595
     83  C         25.4990   -6.2830  262.9690 C.2   275  ILE275      0.2287
     84  O         24.2640   -6.3050  262.9610 O.2   275  ILE275     -0.2864
     85  CB        26.0420   -5.0090  260.8560 C.3   275  ILE275      0.0276
     86  CG1       26.3440   -3.7720  261.6960 C.3   275  ILE275      0.0022
     87  CG2       24.6070   -4.9650  260.3430 C.3   275  ILE275      0.0022
     88  CD1       26.4930   -2.5160  260.8450 C.3   275  ILE275      0.0001
     89  N         35.0410    0.5650  269.0290 N.3   303  CYS303     -0.1221
     90  CA        36.1990   -0.2030  268.6030 C.3   303  CYS303      0.1808
     91  C         35.7670   -1.2580  267.5960 C.2   303  CYS303      0.2602
     92  O         34.7390   -1.9180  267.7730 O.2   303  CYS303     -0.2717
     93  CB        36.8860   -0.8670  269.8010 C.3   303  CYS303      0.0970
     94  SG        37.6820    0.2800  270.9690 S.3   303  CYS303     -0.0800
     95  N         36.5530   -1.4040  266.5340 N.am  304  GLY304     -0.1942
     96  CA        36.2550   -2.3710  265.4990 C.3   304  GLY304      0.2014
     97  C         37.5180   -2.9180  264.8760 C.2   304  GLY304      0.2638
     98  O         38.5900   -2.8750  265.4890 O.2   304  GLY304     -0.2714
     99  N         37.4050   -3.4330  263.6550 N.am  305  ASP305     -0.1971
    100  CA        38.5680   -3.9360  262.9380 C.3   305  ASP305      0.1709
    101  C         38.2420   -3.9100  261.4540 C.2   305  ASP305      0.2293
    102  O         37.1740   -4.3740  261.0440 O.2   305  ASP305     -0.2864
    103  CB        38.9290   -5.3460  263.4040 C.3   305  ASP305      0.1436
    104  CG        40.3900   -5.6710  263.2020 C.2   305  ASP305      0.3671
    105  OD1       40.7600   -6.0280  262.0650 O.co2 305  ASP305     -0.2456
    106  OD2       41.1670   -5.5760  264.1790 O.co2 305  ASP305     -0.2456
    107  N         36.7450   -6.5990  258.6790 N.3   308  TRP308     -0.1241
    108  CA        35.3360   -6.9270  258.5450 C.3   308  TRP308      0.1605
    109  C         34.6900   -5.9840  257.5410 C.2   308  TRP308      0.2264
    110  O         35.1810   -4.8820  257.2840 O.2   308  TRP308     -0.2867
    111  CB        34.6210   -6.8390  259.8920 C.3   308  TRP308      0.0550
    112  CG        34.6700   -8.1080  260.6690 C.ar  308  TRP308      0.0003
    113  CD1       33.8060   -9.1560  260.5750 C.ar  308  TRP308      0.0946
    114  CD2       35.6330   -8.4680  261.6620 C.ar  308  TRP308      0.0152
    115  NE1       34.1690  -10.1490  261.4510 N.ar  308  TRP308     -0.2442
    116  CE2       35.2900   -9.7500  262.1290 C.ar  308  TRP308      0.0810
    117  CE3       36.7500   -7.8320  262.2000 C.ar  308  TRP308      0.0012
    118  CZ2       36.0250  -10.4060  263.1100 C.ar  308  TRP308      0.0191
    119  CZ3       37.4790   -8.4840  263.1720 C.ar  308  TRP308      0.0001
    120  CH2       37.1150   -9.7570  263.6180 C.ar  308  TRP308      0.0015
    121  N         31.9540   -4.2050  257.5110 N.3   310  TYR310     -0.1227
    122  CA        31.4030   -2.9540  258.0180 C.3   310  TYR310      0.1736
    123  C         32.2330   -2.5250  259.2250 C.2   310  TYR310      0.2595
    124  O         31.9080   -2.8420  260.3690 O.2   310  TYR310     -0.2718
    125  CB        29.9320   -3.1320  258.3580 C.3   310  TYR310      0.0548
    126  CG        29.1410   -3.6930  257.1970 C.ar  310  TYR310     -0.0200
    127  CD1       28.8860   -2.9220  256.0700 C.ar  310  TYR310     -0.0009
    128  CD2       28.6660   -4.9980  257.2190 C.ar  310  TYR310     -0.0009
    129  CE1       28.1690   -3.4300  255.0000 C.ar  310  TYR310      0.0417
    130  CE2       27.9480   -5.5170  256.1550 C.ar  310  TYR310      0.0417
    131  CZ        27.7020   -4.7300  255.0470 C.ar  310  TYR310      0.1957
    132  OH        26.9880   -5.2460  253.9870 O.3   310  TYR310     -0.2866
    133  N         33.3130   -1.7990  258.9540 N.am  311  PHE311     -0.1962
    134  CA        34.1950   -1.3310  260.0140 C.3   311  PHE311      0.1771
    135  C         33.4400   -0.4020  260.9550 C.2   311  PHE311      0.2619
    136  O         32.9200    0.6360  260.5370 O.2   311  PHE311     -0.2715
    137  CB        35.4060   -0.6280  259.4010 C.3   311  PHE311      0.0574
    138  CG        36.2580    0.1040  260.3940 C.ar  311  PHE311     -0.0200
    139  CD1       36.8410   -0.5650  261.4560 C.ar  311  PHE311     -0.0042
    140  CD2       36.4950    1.4590  260.2520 C.ar  311  PHE311     -0.0042
    141  CE1       37.6310    0.1080  262.3640 C.ar  311  PHE311     -0.0003
    142  CE2       37.2830    2.1340  261.1540 C.ar  311  PHE311     -0.0003
    143  CZ        37.8530    1.4610  262.2120 C.ar  311  PHE311     -0.0000
    144  N         33.3770   -0.7860  262.2290 N.am  312  CYS312     -0.1968
    145  CA        32.6400   -0.0340  263.2430 C.3   312  CYS312      0.1712
    146  C         31.2230    0.2920  262.7740 C.2   312  CYS312      0.2296
    147  O         30.7370    1.4130  262.9200 O.2   312  CYS312     -0.2864
    148  CB        33.3890    1.2420  263.6320 C.3   312  CYS312      0.0983
    149  SG        34.7880    0.9740  264.7370 S.3   312  CYS312     -0.0798
    150  N         41.6840   -1.9180  265.3720 N.3   338  GLY338     -0.1225
    151  CA        42.6540   -2.6990  266.1110 C.3   338  GLY338      0.1811
    152  C         42.7160   -2.2750  267.5700 C.2   338  GLY338      0.2280
    153  O         41.7160   -1.8780  268.1770 O.2   338  GLY338     -0.2866
@<TRIPOS>BOND
     1   132   131    1
     2   129   131   ar
     3   129   127   ar
     4   131   130   ar
     5   127   126   ar
     6   130   128   ar
     7   126   128   ar
     8   126   125    1
     9   110   109    2
    10   121   122    1
    11   109   108    1
    12   122   125    1
    13   122   123    1
    14   108   107    1
    15   108   111    1
    16   133   123   am
    17   133   134    1
    18   123   124    2
    19   137   134    1
    20   137   138    1
    21    76    75    1
    22    76    79    1
    23    76    77    1
    24   111   112    1
    25   134   135    1
    26    79    80    1
    27   140   138   ar
    28   140   142   ar
    29    78    77    2
    30    77    81   am
    31    87    85    1
    32   138   139   ar
    33   136   135    2
    34   113   112   ar
    35   113   115   ar
    36    70    69    2
    37   112   114   ar
    38    88    86    1
    39    85    82    1
    40    85    86    1
    41    81    82    1
    42   135   144   am
    43   102   101    2
    44   142   143   ar
    45    69    68    1
    46   115   116   ar
    47   101   100    1
    48   139   141   ar
    49    82    83    1
    50   114   116   ar
    51   114   117   ar
    52    66    65    2
    53    73    72   ar
    54   105   104   ar
    55   116   118   ar
    56   117   119   ar
    57   143   141   ar
    58   144   145    1
    59    65    64    1
    60    65    67   am
    61    68    67    1
    62    68    71    1
    63   146   147    2
    64   146   145    1
    65   100   103    1
    66   100    99    1
    67    84    83    2
    68    64    63    1
    69   118   120   ar
    70    72    71    1
    71    72    74   ar
    72   119   120   ar
    73   104   103    1
    74   104   106   ar
    75   145   148    1
    76   148   149    1
    77    99    97   am
    78    48    46    1
    79    63    51   am
    80    97    98    2
    81    97    96    1
    82    46    47    1
    83    46    43    1
    84   150   151    1
    85    51    52    2
    86    51    50    1
    87    96    95    1
    88   151   152    1
    89    49    50    1
    90    49    44   am
    91    43    44    1
    92    43    42    1
    93    50    53    1
    94    44    45    2
    95    95    91   am
    96    42    38   am
    97   152   153    2
    98    91    92    2
    99    91    90    1
   100    53    54    1
   101    90    89    1
   102    90    93    1
   103    38    39    2
   104    38    37    1
   105    54    56   ar
   106    54    55   ar
   107    59    56   ar
   108    59    61   ar
   109    56    58   ar
   110    55    57   ar
   111    37    40    1
   112    37    36    1
   113    93    94    1
   114    61    62   ar
   115    40    41    1
   116    58    57   ar
   117    58    60   ar
   118    62    60   ar
   119    28    26   am
   120    34    33    1
   121    26    25    1
   122    26    27    2
   123    25    22    1
   124    35    33    1
   125    33    30    1
   126    19    18    1
   127    12    11    1
   128    29    23   am
   129    29    30    1
   130    22    23    1
   131    22    21    1
   132    23    24    2
   133    30    31    1
   134    13    11    1
   135    18    20    1
   136    18    15    1
   137    11     8    1
   138     7     8    1
   139     7     3   am
   140    14    15    1
   141    14     9   am
   142     2     1    1
   143     2     5    1
   144     2     3    1
   145    31    32    2
   146     6     5    1
   147    15    16    1
   148     8     9    1
   149     3     4    2
   150     9    10    2
   151    16    17    2
