@<TRIPOS>MOLECULE
tmp/5tgzA05.pdb
 118 108 0 0 0
SMALL
GASTEIGER

@<TRIPOS>ATOM
      1  N         39.4030   36.4630  309.7590 N.3   106  THR106     -0.1218
      2  CA        38.7530   37.6500  309.2160 C.3   106  THR106      0.1862
      3  C         39.0630   37.7990  307.7340 C.2   106  THR106      0.2287
      4  O         38.1560   37.9580  306.9090 O.2   106  THR106     -0.2866
      5  CB        39.2040   38.8950  309.9800 C.3   106  THR106      0.1770
      6  OG1       39.3910   38.5740  311.3620 O.3   106  THR106     -0.2211
      7  CG2       38.1630   40.0040  309.8580 C.3   106  THR106      0.0375
      8  N         37.1990   35.1800  305.6580 N.3   109  VAL109     -0.1231
      9  CA        35.8280   35.5830  305.3580 C.3   109  VAL109      0.1692
     10  C         35.8280   36.7810  304.4190 C.2   109  VAL109      0.2592
     11  O         35.0160   36.8580  303.4890 O.2   109  VAL109     -0.2718
     12  CB        35.0580   35.8790  306.6600 C.3   109  VAL109      0.0266
     13  CG1       33.6330   36.3300  306.3570 C.3   109  VAL109      0.0020
     14  CG2       35.0400   34.6470  307.5640 C.3   109  VAL109      0.0020
     15  N         36.7380   37.7330  304.6390 N.am  110  GLY110     -0.1957
     16  CA        36.8310   38.8770  303.7490 C.3   110  GLY110      0.1869
     17  C         37.1670   38.4890  302.3220 C.2   110  GLY110      0.2309
     18  O         36.7240   39.1440  301.3740 O.2   110  GLY110     -0.2863
     19  N         34.1240   37.1070  300.6970 N.3   113  PHE113     -0.1227
     20  CA        33.2310   38.2140  300.3770 C.3   113  PHE113      0.1736
     21  C         33.6010   38.8420  299.0390 C.2   113  PHE113      0.2595
     22  O         32.7330   39.0800  298.1910 O.2   113  PHE113     -0.2718
     23  CB        33.2760   39.2530  301.4940 C.3   113  PHE113      0.0547
     24  CG        32.3440   40.4090  301.2820 C.ar  113  PHE113     -0.0202
     25  CD1       30.9770   40.2520  301.4470 C.ar  113  PHE113     -0.0042
     26  CD2       32.8340   41.6530  300.9270 C.ar  113  PHE113     -0.0042
     27  CE1       30.1150   41.3170  301.2550 C.ar  113  PHE113     -0.0003
     28  CE2       31.9810   42.7240  300.7360 C.ar  113  PHE113     -0.0003
     29  CZ        30.6160   42.5560  300.9010 C.ar  113  PHE113     -0.0000
     30  N         34.8910   39.1210  298.8320 N.am  114  LEU114     -0.1980
     31  CA        35.3310   39.6890  297.5630 C.3   114  LEU114      0.1596
     32  C         35.0710   38.7360  296.4070 C.2   114  LEU114      0.2287
     33  O         34.7560   39.1780  295.2940 O.2   114  LEU114     -0.2864
     34  CB        36.8180   40.0400  297.6300 C.3   114  LEU114      0.0297
     35  CG        37.2160   41.1930  298.5500 C.3   114  LEU114      0.0022
     36  CD1       38.7250   41.3890  298.4980 C.3   114  LEU114      0.0001
     37  CD2       36.4920   42.4860  298.1760 C.3   114  LEU114      0.0001
     38  N         31.5780   39.1330  295.2170 N.3   117  ILE117     -0.1245
     39  CA        31.4250   40.3300  294.3960 C.3   117  ILE117      0.1561
     40  C         31.8870   40.0570  292.9730 C.2   117  ILE117      0.2260
     41  O         31.2210   40.4430  292.0040 O.2   117  ILE117     -0.2867
     42  CB        32.1880   41.5100  295.0300 C.3   117  ILE117      0.0252
     43  CG1       31.4840   41.9420  296.3190 C.3   117  ILE117      0.0019
     44  CG2       32.2830   42.6930  294.0710 C.3   117  ILE117      0.0019
     45  CD1       32.2150   43.0120  297.1200 C.3   117  ILE117      0.0001
     46  N         42.5290   46.3980  289.9640 N.3   137  LYS137     -0.1245
     47  CA        41.3160   46.4690  290.7700 C.3   137  LYS137      0.1561
     48  C         41.3340   45.4260  291.8790 C.2   137  LYS137      0.2260
     49  O         40.9710   45.7200  293.0240 O.2   137  LYS137     -0.2867
     50  CB        40.0890   46.2740  289.8840 C.3   137  LYS137      0.0271
     51  CG        39.8300   47.4030  288.9090 C.3   137  LYS137      0.0035
     52  CD        39.1670   48.5940  289.5840 C.3   137  LYS137      0.0206
     53  CE        38.5030   49.5140  288.5670 C.3   137  LYS137      0.1093
     54  NZ        37.4340   48.8320  287.7850 N.3   137  LYS137     -0.1314
     55  N         43.7380   46.2680  294.8570 N.3   140  VAL140     -0.1231
     56  CA        43.2230   47.3080  295.7440 C.3   140  VAL140      0.1692
     57  C         42.1510   46.7360  296.6610 C.2   140  VAL140      0.2591
     58  O         42.1310   47.0150  297.8660 O.2   140  VAL140     -0.2718
     59  CB        42.6970   48.5010  294.9220 C.3   140  VAL140      0.0266
     60  CG1       42.0180   49.5320  295.8260 C.3   140  VAL140      0.0020
     61  CG2       43.8350   49.1540  294.1490 C.3   140  VAL140      0.0020
     62  N         41.2490   45.9200  296.1130 N.am  141  ALA141     -0.1980
     63  CA        40.1750   45.3610  296.9280 C.3   141  ALA141      0.1597
     64  C         40.7260   44.4730  298.0350 C.2   141  ALA141      0.2287
     65  O         40.2430   44.5140  299.1720 O.2   141  ALA141     -0.2864
     66  CB        39.2030   44.5720  296.0530 C.3   141  ALA141      0.0319
     67  N         42.7640   46.6060  300.7220 N.3   144  LEU144     -0.1231
     68  CA        41.8040   47.2390  301.6200 C.3   144  LEU144      0.1693
     69  C         41.2290   46.2260  302.5940 C.2   144  LEU144      0.2591
     70  O         41.1400   46.4780  303.8010 O.2   144  LEU144     -0.2718
     71  CB        40.6660   47.8700  300.8250 C.3   144  LEU144      0.0284
     72  CG        40.9380   49.0760  299.9260 C.3   144  LEU144      0.0019
     73  CD1       39.6090   49.7750  299.6780 C.3   144  LEU144      0.0001
     74  CD2       41.9830   50.0330  300.5110 C.3   144  LEU144      0.0001
     75  N         40.8220   45.0690  302.0750 N.am  145  MET145     -0.1979
     76  CA        40.1290   44.0890  302.8990 C.3   145  MET145      0.1605
     77  C         41.0220   43.6010  304.0310 C.2   145  MET145      0.2287
     78  O         40.5530   43.3830  305.1540 O.2   145  MET145     -0.2864
     79  CB        39.6640   42.9210  302.0280 C.3   145  MET145      0.0413
     80  CG        38.9050   41.8250  302.7760 C.3   145  MET145      0.0598
     81  SD        39.9840   40.6270  303.5860 S.3   145  MET145     -0.1393
     82  CE        40.7700   39.8680  302.1640 C.3   145  MET145      0.0692
     83  N         41.2910   46.2140  306.7820 N.3   148  ILE148     -0.1231
     84  CA        40.0910   46.1370  307.6070 C.3   148  ILE148      0.1692
     85  C         40.1440   44.8980  308.4900 C.2   148  ILE148      0.2591
     86  O         39.7540   44.9370  309.6610 O.2   148  ILE148     -0.2718
     87  CB        38.8280   46.1540  306.7280 C.3   148  ILE148      0.0266
     88  CG1       38.7600   47.4550  305.9230 C.3   148  ILE148      0.0019
     89  CG2       37.5750   46.0030  307.5970 C.3   148  ILE148      0.0020
     90  CD1       37.6580   47.4760  304.8520 C.3   148  ILE148      0.0001
     91  N         40.6270   43.7800  307.9450 N.am  149  ALA149     -0.1980
     92  CA        40.7460   42.5620  308.7380 C.3   149  ALA149      0.1597
     93  C         41.7820   42.7200  309.8440 C.2   149  ALA149      0.2287
     94  O         41.5400   42.3250  310.9920 O.2   149  ALA149     -0.2864
     95  CB        41.1010   41.3850  307.8310 C.3   149  ALA149      0.0319
     96  N         40.7260   44.8670  313.0180 N.3   152  ILE152     -0.1245
     97  CA        39.8750   44.2780  314.0460 C.3   152  ILE152      0.1561
     98  C         40.7160   43.5100  315.0530 C.2   152  ILE152      0.2260
     99  O         40.4580   43.5550  316.2600 O.2   152  ILE152     -0.2867
    100  CB        38.7990   43.3760  313.4220 C.3   152  ILE152      0.0252
    101  CG1       38.1950   44.0170  312.1700 C.3   152  ILE152      0.0019
    102  CG2       37.7170   43.1250  314.4310 C.3   152  ILE152      0.0019
    103  CD1       37.8810   45.5170  312.2710 C.3   152  ILE152      0.0001
    104  N         29.8790   40.7810  313.0540 N.3   187  VAL187     -0.1245
    105  CA        30.4330   41.1820  311.7630 C.3   187  VAL187      0.1561
    106  C         30.6450   39.9650  310.8700 C.2   187  VAL187      0.2260
    107  O         30.2590   39.9630  309.6950 O.2   187  VAL187     -0.2867
    108  CB        31.7380   41.9740  311.9670 C.3   187  VAL187      0.0252
    109  CG1       32.5510   42.0540  310.6680 C.3   187  VAL187      0.0019
    110  CG2       31.4220   43.3760  312.4740 C.3   187  VAL187      0.0019
    111  N         28.4650   38.6830  307.4850 N.3   191  LEU191     -0.1245
    112  CA        29.1920   38.4230  306.2490 C.3   191  LEU191      0.1561
    113  C         28.9930   36.9870  305.7840 C.2   191  LEU191      0.2260
    114  O         28.7500   36.7410  304.5970 O.2   191  LEU191     -0.2867
    115  CB        30.6770   38.7260  306.4440 C.3   191  LEU191      0.0270
    116  CG        31.0700   40.2030  306.3890 C.3   191  LEU191      0.0019
    117  CD1       32.4810   40.3910  306.9180 C.3   191  LEU191      0.0001
    118  CD2       30.9610   40.7300  304.9690 C.3   191  LEU191      0.0001
@<TRIPOS>BOND
     1    54    53    1
     2    53    52    1
     3    51    52    1
     4    51    50    1
     5    50    47    1
     6    46    47    1
     7    47    48    1
     8    48    49    2
     9    41    40    2
    10    40    39    1
    11    44    42    1
    12    61    59    1
    13    39    42    1
    14    39    38    1
    15    55    56    1
    16    59    56    1
    17    59    60    1
    18    42    43    1
    19    33    32    2
    20    56    57    1
    21    66    63    1
    22    62    57   am
    23    62    63    1
    24    43    45    1
    25    32    31    1
    26    57    58    2
    27    63    64    1
    28    31    34    1
    29    31    30    1
    30    34    35    1
    31    64    65    2
    32    37    35    1
    33    22    21    2
    34    36    35    1
    35    30    21   am
    36    21    20    1
    37    73    72    1
    38    72    74    1
    39    72    71    1
    40    20    19    1
    41    20    23    1
    42    67    68    1
    43    28    29   ar
    44    28    26   ar
    45    71    68    1
    46    29    27   ar
    47    26    24   ar
    48    27    25   ar
    49    24    25   ar
    50    24    23    1
    51    18    17    2
    52    68    69    1
    53    79    80    1
    54    79    76    1
    55    75    69   am
    56    75    76    1
    57    82    81    1
    58    17    16    1
    59    69    70    2
    60    80    81    1
    61    76    77    1
    62    11    10    2
    63    16    15    1
    64    77    78    2
    65    10    15   am
    66    10     9    1
    67   114   113    2
    68    90    88    1
    69   118   116    1
    70     9     8    1
    71     9    12    1
    72   113   112    1
    73    88    87    1
    74   112   115    1
    75   112   111    1
    76    13    12    1
    77   116   115    1
    78   116   117    1
    79    12    14    1
    80    87    89    1
    81    87    84    1
    82    83    84    1
    83     4     3    2
    84    84    85    1
    85     3     2    1
    86    95    92    1
    87    91    85   am
    88    91    92    1
    89    85    86    2
    90    92    93    1
    91     2     1    1
    92     2     5    1
    93   107   106    2
    94    93    94    2
    95     7     5    1
    96     5     6    1
    97   109   108    1
    98   106   105    1
    99   105   108    1
   100   105   104    1
   101   108   110    1
   102   101   103    1
   103   101   100    1
   104    96    97    1
   105   100    97    1
   106   100   102    1
   107    97    98    1
   108    98    99    2
