@<TRIPOS>MOLECULE
tmp/5tgzA03.pdb
 192 185 0 0 0
SMALL
GASTEIGER

@<TRIPOS>ATOM
      1  N         46.3340   36.8910  287.0950 N.3    55  ARG55      -0.1231
      2  CA        44.9340   36.4980  287.1550 C.3    55  ARG55       0.1679
      3  C         44.2840   37.0770  288.4130 C.2    55  ARG55       0.2434
      4  O         44.8800   37.0310  289.4920 O.2    55  ARG55      -0.2733
      5  CB        44.8110   34.9760  287.1720 C.3    55  ARG55       0.0321
      6  CG        45.4590   34.2750  285.9860 C.3    55  ARG55       0.0489
      7  CD        44.4340   33.8990  284.9280 C.3    55  ARG55       0.2205
      8  NE        43.4900   32.8930  285.4070 N.pl3  55  ARG55      -0.0865
      9  CZ        43.6740   31.5790  285.3180 C.cat  55  ARG55       0.5346
     10  NH1       44.7750   31.0880  284.7650 N.pl3  55  ARG55       0.1354
     11  NH2       42.7520   30.7490  285.7840 N.pl3  55  ARG55       0.1354
     12  N         43.0680   37.6290  288.3170 N.am   56  PRO56      -0.2718
     13  CA        42.3790   38.0690  289.5420 C.3    56  PRO56       0.1535
     14  C         41.8890   36.9170  290.3990 C.2    56  PRO56       0.2599
     15  O         41.6410   37.1180  291.5940 O.2    56  PRO56      -0.2715
     16  CB        41.2030   38.9080  289.0120 C.3    56  PRO56       0.0310
     17  CG        41.4680   39.1040  287.5380 C.3    56  PRO56       0.0237
     18  CD        42.2660   37.9190  287.1170 C.3    56  PRO56       0.0939
     19  N         41.7460   35.7180  289.8290 N.am   57  SER57      -0.1936
     20  CA        41.2690   34.5750  290.6000 C.3    57  SER57       0.2055
     21  C         42.3360   34.0490  291.5510 C.2    57  SER57       0.2643
     22  O         42.0030   33.4550  292.5830 O.2    57  SER57      -0.2714
     23  CB        40.8120   33.4670  289.6520 C.3    57  SER57       0.2130
     24  OG        41.8520   33.1160  288.7630 O.3    57  SER57      -0.2179
     25  N         43.6130   34.2520  291.2300 N.am   58  TYR58      -0.1973
     26  CA        44.6960   33.8150  292.1010 C.3    58  TYR58       0.1639
     27  C         45.1080   34.8730  293.1150 C.2    58  TYR58       0.2290
     28  O         45.8710   34.5610  294.0360 O.2    58  TYR58      -0.2864
     29  CB        45.9050   33.3870  291.2640 C.3    58  TYR58       0.0560
     30  CG        45.6360   32.1010  290.5250 C.ar   58  TYR58      -0.0198
     31  CD1       45.0460   32.1120  289.2730 C.ar   58  TYR58      -0.0009
     32  CD2       45.9350   30.8730  291.0980 C.ar   58  TYR58      -0.0009
     33  CE1       44.7770   30.9390  288.5990 C.ar   58  TYR58       0.0417
     34  CE2       45.6720   29.6900  290.4330 C.ar   58  TYR58       0.0417
     35  CZ        45.0890   29.7300  289.1830 C.ar   58  TYR58       0.1957
     36  OH        44.8200   28.5630  288.5040 O.3    58  TYR58      -0.2866
     37  N         42.7670   35.7150  294.8830 N.3    60  PHE60      -0.1227
     38  CA        41.8440   35.1660  295.8650 C.3    60  PHE60       0.1736
     39  C         42.4340   33.9530  296.5750 C.2    60  PHE60       0.2595
     40  O         42.3350   33.8460  297.8020 O.2    60  PHE60      -0.2718
     41  CB        40.5220   34.7960  295.1850 C.3    60  PHE60       0.0547
     42  CG        39.6190   33.9550  296.0370 C.ar   60  PHE60      -0.0202
     43  CD1       38.8870   34.5200  297.0660 C.ar   60  PHE60      -0.0042
     44  CD2       39.5070   32.5950  295.8100 C.ar   60  PHE60      -0.0042
     45  CE1       38.0570   33.7390  297.8560 C.ar   60  PHE60      -0.0003
     46  CE2       38.6850   31.8070  296.5890 C.ar   60  PHE60      -0.0003
     47  CZ        37.9570   32.3770  297.6150 C.ar   60  PHE60      -0.0000
     48  N         43.0640   33.0420  295.8300 N.am   61  ILE61      -0.1980
     49  CA        43.7130   31.8910  296.4530 C.3    61  ILE61       0.1595
     50  C         44.9040   32.3460  297.2870 C.2    61  ILE61       0.2287
     51  O         45.0550   31.9540  298.4500 O.2    61  ILE61      -0.2864
     52  CB        44.1330   30.8600  295.3850 C.3    61  ILE61       0.0276
     53  CG1       42.9740   29.9150  295.0590 C.3    61  ILE61       0.0022
     54  CG2       45.3310   30.0300  295.8430 C.3    61  ILE61       0.0022
     55  CD1       41.9390   30.5210  294.1720 C.3    61  ILE61       0.0001
     56  N         34.8910   39.1210  298.8320 N.3   114  LEU114     -0.1231
     57  CA        35.3310   39.6890  297.5630 C.3   114  LEU114      0.1693
     58  C         35.0710   38.7360  296.4070 C.2   114  LEU114      0.2591
     59  O         34.7560   39.1780  295.2940 O.2   114  LEU114     -0.2718
     60  CB        36.8180   40.0400  297.6300 C.3   114  LEU114      0.0284
     61  CG        37.2160   41.1930  298.5500 C.3   114  LEU114      0.0019
     62  CD1       38.7250   41.3890  298.4980 C.3   114  LEU114      0.0001
     63  CD2       36.4920   42.4860  298.1760 C.3   114  LEU114      0.0001
     64  N         35.1950   37.4310  296.6450 N.am  115  ALA115     -0.1980
     65  CA        34.8980   36.4690  295.5910 C.3   115  ALA115      0.1597
     66  C         33.4330   36.5430  295.1870 C.2   115  ALA115      0.2287
     67  O         33.1080   36.4960  293.9950 O.2   115  ALA115     -0.2864
     68  CB        35.2620   35.0590  296.0490 C.3   115  ALA115      0.0319
     69  N         31.5780   39.1330  295.2170 N.3   117  ILE117     -0.1231
     70  CA        31.4250   40.3300  294.3960 C.3   117  ILE117      0.1692
     71  C         31.8870   40.0570  292.9730 C.2   117  ILE117      0.2592
     72  O         31.2210   40.4430  292.0040 O.2   117  ILE117     -0.2718
     73  CB        32.1880   41.5100  295.0300 C.3   117  ILE117      0.0266
     74  CG1       31.4840   41.9420  296.3190 C.3   117  ILE117      0.0019
     75  CG2       32.2830   42.6930  294.0710 C.3   117  ILE117      0.0020
     76  CD1       32.2150   43.0120  297.1200 C.3   117  ILE117      0.0001
     77  N         33.0340   39.3910  292.8220 N.am  118  ASP118     -0.1960
     78  CA        33.5240   39.0590  291.4890 C.3   118  ASP118      0.1840
     79  C         32.5040   38.2350  290.7200 C.2   118  ASP118      0.2621
     80  O         32.2680   38.4730  289.5290 O.2   118  ASP118     -0.2715
     81  CB        34.8450   38.3030  291.5880 C.3   118  ASP118      0.1450
     82  CG        35.2370   37.6500  290.2840 C.2   118  ASP118      0.3671
     83  OD1       35.8440   38.3560  289.4520 O.co2 118  ASP118     -0.2456
     84  OD2       34.9380   36.4530  290.0710 O.co2 118  ASP118     -0.2456
     85  N         31.8920   37.2550  291.3860 N.am  119  ARG119     -0.1977
     86  CA        30.8850   36.4330  290.7270 C.3   119  ARG119      0.1597
     87  C         29.6250   37.2300  290.4290 C.2   119  ARG119      0.2287
     88  O         28.9720   36.9920  289.4070 O.2   119  ARG119     -0.2864
     89  CB        30.5600   35.2140  291.5910 C.3   119  ARG119      0.0334
     90  CG        31.6770   34.1840  291.6500 C.3   119  ARG119      0.0492
     91  CD        31.9120   33.5500  290.2840 C.3   119  ARG119      0.2205
     92  NE        32.8860   34.2860  289.4830 N.pl3 119  ARG119     -0.0865
     93  CZ        33.1440   34.0340  288.2030 C.cat 119  ARG119      0.5346
     94  NH1       32.4960   33.0660  287.5680 N.pl3 119  ARG119      0.1354
     95  NH2       34.0510   34.7520  287.5550 N.pl3 119  ARG119      0.1354
     96  N         29.5930   40.3510  289.5710 N.3   121  ILE121     -0.1245
     97  CA        29.9100   41.1070  288.3620 C.3   121  ILE121      0.1561
     98  C         29.8820   40.1950  287.1410 C.2   121  ILE121      0.2260
     99  O         29.4130   40.5890  286.0670 O.2   121  ILE121     -0.2867
    100  CB        31.2730   41.8080  288.5130 C.3   121  ILE121      0.0252
    101  CG1       31.2210   42.8070  289.6720 C.3   121  ILE121      0.0019
    102  CG2       31.6610   42.5140  287.2130 C.3   121  ILE121      0.0019
    103  CD1       32.5460   43.4990  289.9790 C.3   121  ILE121      0.0001
    104  N         32.8280   41.8890  281.9230 N.3   129  TYR129     -0.1241
    105  CA        33.4260   41.4280  283.1740 C.3   129  TYR129      0.1605
    106  C         34.9490   41.5020  283.1300 C.2   129  TYR129      0.2264
    107  O         35.5840   41.9380  284.0970 O.2   129  TYR129     -0.2867
    108  CB        32.9740   39.9970  283.4730 C.3   129  TYR129      0.0534
    109  CG        33.8320   39.2970  284.4970 C.ar  129  TYR129     -0.0201
    110  CD1       33.6610   39.5300  285.8550 C.ar  129  TYR129     -0.0009
    111  CD2       34.8170   38.4010  284.1060 C.ar  129  TYR129     -0.0009
    112  CE1       34.4500   38.8900  286.7910 C.ar  129  TYR129      0.0417
    113  CE2       35.6060   37.7600  285.0330 C.ar  129  TYR129      0.0417
    114  CZ        35.4210   38.0070  286.3680 C.ar  129  TYR129      0.1957
    115  OH        36.2180   37.3550  287.2710 O.3   129  TYR129     -0.2866
    116  N         36.8330   43.7070  286.3340 N.3   133  VAL133     -0.1245
    117  CA        37.6390   43.0790  287.3750 C.3   133  VAL133      0.1561
    118  C         39.0200   42.8320  286.7770 C.2   133  VAL133      0.2260
    119  O         39.2290   41.8650  286.0440 O.2   133  VAL133     -0.2867
    120  CB        37.0020   41.7850  287.8810 C.3   133  VAL133      0.0252
    121  CG1       37.8400   41.1770  288.9960 C.3   133  VAL133      0.0019
    122  CG2       35.5820   42.0420  288.3510 C.3   133  VAL133      0.0019
    123  N         42.5290   46.3980  289.9640 N.3   137  LYS137     -0.1231
    124  CA        41.3160   46.4690  290.7700 C.3   137  LYS137      0.1693
    125  C         41.3340   45.4260  291.8790 C.2   137  LYS137      0.2591
    126  O         40.9710   45.7200  293.0240 O.2   137  LYS137     -0.2718
    127  CB        40.0890   46.2740  289.8840 C.3   137  LYS137      0.0285
    128  CG        39.8300   47.4030  288.9090 C.3   137  LYS137      0.0035
    129  CD        39.1670   48.5940  289.5840 C.3   137  LYS137      0.0206
    130  CE        38.5030   49.5140  288.5670 C.3   137  LYS137      0.1093
    131  NZ        37.4340   48.8320  287.7850 N.3   137  LYS137     -0.1314
    132  N         41.7550   44.2020  291.5590 N.am  138  ALA138     -0.1980
    133  CA        41.7190   43.1260  292.5420 C.3   138  ALA138      0.1597
    134  C         42.7160   43.3710  293.6670 C.2   138  ALA138      0.2287
    135  O         42.4250   43.0850  294.8350 O.2   138  ALA138     -0.2864
    136  CB        41.9920   41.7870  291.8560 C.3   138  ALA138      0.0319
    137  N         41.2490   45.9200  296.1130 N.3   141  ALA141     -0.1231
    138  CA        40.1750   45.3610  296.9280 C.3   141  ALA141      0.1694
    139  C         40.7260   44.4730  298.0350 C.2   141  ALA141      0.2592
    140  O         40.2430   44.5140  299.1720 O.2   141  ALA141     -0.2718
    141  CB        39.2030   44.5720  296.0530 C.3   141  ALA141      0.0304
    142  N         41.7340   43.6590  297.7220 N.am  142  PHE142     -0.1976
    143  CA        42.2790   42.7490  298.7230 C.3   142  PHE142      0.1639
    144  C         43.1500   43.4850  299.7350 C.2   142  PHE142      0.2290
    145  O         43.1230   43.1670  300.9300 O.2   142  PHE142     -0.2864
    146  CB        43.0620   41.6360  298.0360 C.3   142  PHE142      0.0560
    147  CG        42.2030   40.4950  297.5940 C.ar  142  PHE142     -0.0200
    148  CD1       41.8010   39.5320  298.5030 C.ar  142  PHE142     -0.0042
    149  CD2       41.7830   40.3910  296.2810 C.ar  142  PHE142     -0.0042
    150  CE1       41.0040   38.4770  298.1110 C.ar  142  PHE142     -0.0003
    151  CE2       40.9850   39.3370  295.8780 C.ar  142  PHE142     -0.0003
    152  CZ        40.5930   38.3770  296.7970 C.ar  142  PHE142     -0.0000
    153  N         34.3040   27.2860  288.8980 N.3   368  LEU368     -0.1245
    154  CA        34.5380   28.3720  289.8430 C.3   368  LEU368      0.1561
    155  C         33.4390   28.4210  290.8940 C.2   368  LEU368      0.2260
    156  O         33.7180   28.5810  292.0870 O.2   368  LEU368     -0.2867
    157  CB        34.6310   29.7090  289.1070 C.3   368  LEU368      0.0270
    158  CG        35.9360   30.0620  288.3880 C.3   368  LEU368      0.0019
    159  CD1       35.8370   31.4660  287.8120 C.3   368  LEU368      0.0001
    160  CD2       37.1250   29.9600  289.3210 C.3   368  LEU368      0.0001
    161  N         33.8770   25.2920  293.0840 N.3   371  THR371     -0.1203
    162  CA        35.0320   25.4030  293.9680 C.3   371  THR371      0.1994
    163  C         34.7300   26.3010  295.1610 C.2   371  THR371      0.2617
    164  O         35.1120   25.9890  296.2940 O.2   371  THR371     -0.2717
    165  CB        36.2390   25.9370  293.1950 C.3   371  THR371      0.1784
    166  OG1       36.5060   25.0900  292.0710 O.3   371  THR371     -0.2211
    167  CG2       37.4760   25.9890  294.0800 C.3   371  THR371      0.0376
    168  N         34.0420   27.4220  294.9310 N.am  372  LEU372     -0.1979
    169  CA        33.7840   28.3530  296.0240 C.3   372  LEU372      0.1596
    170  C         32.8950   27.7260  297.0900 C.2   372  LEU372      0.2287
    171  O         33.1410   27.8910  298.2910 O.2   372  LEU372     -0.2864
    172  CB        33.1530   29.6370  295.4860 C.3   372  LEU372      0.0297
    173  CG        34.0670   30.5660  294.6840 C.3   372  LEU372      0.0022
    174  CD1       33.2920   31.7910  294.2000 C.3   372  LEU372      0.0001
    175  CD2       35.2940   31.0080  295.4960 C.3   372  LEU372      0.0001
    176  N         41.3650   21.0770  292.2730 N.3   427  ARG427     -0.1231
    177  CA        40.4140   21.7550  291.4030 C.3   427  ARG427      0.1694
    178  C         41.0530   22.7590  290.4610 C.2   427  ARG427      0.2592
    179  O         40.5450   22.9560  289.3570 O.2   427  ARG427     -0.2718
    180  CB        39.3580   22.4750  292.2460 C.3   427  ARG427      0.0321
    181  CG        38.7020   21.5760  293.2890 C.3   427  ARG427      0.0489
    182  CD        37.2070   21.8300  293.4110 C.3   427  ARG427      0.2205
    183  NE        36.5480   21.7940  292.1050 N.pl3 427  ARG427     -0.0865
    184  CZ        36.2090   20.6810  291.4590 C.cat 427  ARG427      0.5346
    185  NH1       36.4610   19.4920  291.9950 N.pl3 427  ARG427      0.1354
    186  NH2       35.6180   20.7580  290.2690 N.pl3 427  ARG427      0.1354
    187  N         42.1410   23.4030  290.8670 N.am  428  SER428     -0.1952
    188  CA        42.8300   24.3650  290.0140 C.3   428  SER428      0.1924
    189  C         43.7930   23.6050  289.1120 C.2   428  SER428      0.2314
    190  O         44.9210   23.2970  289.5040 O.2   428  SER428     -0.2863
    191  CB        43.5560   25.4040  290.8550 C.3   428  SER428      0.2116
    192  OG        44.3200   26.2580  290.0300 O.3   428  SER428     -0.2180
@<TRIPOS>BOND
     1   104   105    1
     2   106   105    1
     3   106   107    2
     4   105   108    1
     5   108   109    1
     6   111   109   ar
     7   111   113   ar
     8   109   110   ar
     9    10     9    1
    10     7     8    1
    11     7     6    1
    12   113   114   ar
    13     9     8    2
    14     9    11    1
    15   110   112   ar
    16     6     5    1
    17   119   118    2
    18    99    98    2
    19   116   117    1
    20   114   112   ar
    21   114   115    1
    22   118   117    1
    23     1     2    1
    24    18    17    1
    25    18    12    1
    26    98    97    1
    27     2     5    1
    28     2     3    1
    29   102   100    1
    30   117   120    1
    31    17    16    1
    32    95    93    1
    33    94    93    1
    34   131   130    1
    35   159   158    1
    36   120   122    1
    37   120   121    1
    38    93    92    2
    39    12     3   am
    40    12    13    1
    41    97   100    1
    42    97    96    1
    43   158   157    1
    44   158   160    1
    45     3     4    2
    46    36    35    1
    47   100   101    1
    48   130   129    1
    49    33    35   ar
    50    33    31   ar
    51    24    23    1
    52   153   154    1
    53   128   129    1
    54   128   127    1
    55    16    13    1
    56   157   154    1
    57   189   190    2
    58   189   188    1
    59    35    34   ar
    60    31    30   ar
    61   179   178    2
    62    88    87    2
    63    83    82   ar
    64    92    91    1
    65    80    79    2
    66    13    14    1
    67    23    20    1
    68   101   103    1
    69    19    14   am
    70    19    20    1
    71   154   155    1
    72   127   124    1
    73   123   124    1
    74   188   191    1
    75   188   187    1
    76   192   191    1
    77    84    82   ar
    78   186   184    1
    79    91    90    1
    80    82    81    1
    81    14    15    2
    82    87    86    1
    83    34    32   ar
    84   178   187   am
    85   178   177    1
    86    30    32   ar
    87    30    29    1
    88    20    21    1
    89    79    85   am
    90    79    78    1
    91    86    85    1
    92    86    89    1
    93   124   125    1
    94   155   156    2
    95    25    21   am
    96    25    26    1
    97    29    26    1
    98   177   180    1
    99   177   176    1
   100   184   185    1
   101   184   183    2
   102    78    81    1
   103    78    77    1
   104    21    22    2
   105   132   125   am
   106   132   133    1
   107    89    90    1
   108   136   133    1
   109   125   126    2
   110    72    71    2
   111   166   165    1
   112    26    27    1
   113   183   182    1
   114   180   181    1
   115   133   134    1
   116    77    71   am
   117    71    70    1
   118   161   162    1
   119    27    28    2
   120   165   162    1
   121   165   167    1
   122   181   182    1
   123   134   135    2
   124   162   163    1
   125    67    66    2
   126    75    73    1
   127    55    53    1
   128   174   173    1
   129    70    73    1
   130    70    69    1
   131   173   172    1
   132   173   175    1
   133    37    38    1
   134   168   163   am
   135   168   169    1
   136    73    74    1
   137    53    52    1
   138   163   164    2
   139    41    38    1
   140    41    42    1
   141    66    65    1
   142    59    58    2
   143    52    54    1
   144    52    49    1
   145   172   169    1
   146    65    68    1
   147    65    64    1
   148    44    42   ar
   149    44    46   ar
   150    48    49    1
   151    48    39   am
   152    38    39    1
   153   151   149   ar
   154   151   152   ar
   155   169   170    1
   156    42    43   ar
   157   141   138    1
   158   137   138    1
   159   149   147   ar
   160    74    76    1
   161    58    64   am
   162    58    57    1
   163    49    50    1
   164    39    40    2
   165    46    47   ar
   166   152   150   ar
   167   138   139    1
   168    43    45   ar
   169   170   171    2
   170    50    51    2
   171    57    60    1
   172    57    56    1
   173   147   146    1
   174   147   148   ar
   175    47    45   ar
   176    60    61    1
   177   142   139   am
   178   142   143    1
   179   139   140    2
   180   146   143    1
   181   150   148   ar
   182    63    61    1
   183    62    61    1
   184   143   144    1
   185   144   145    2
