@<TRIPOS>MOLECULE
tmp/5th4A00.pdb
 114 110 0 0 0
SMALL
GASTEIGER

@<TRIPOS>ATOM
      1  N         -0.7170   -2.0900    6.2240 N.3    61  HIS61      -0.1241
      2  CA        -0.8190   -2.8360    7.5320 C.3    61  HIS61       0.1621
      3  C         -2.1890   -3.3870    7.7380 C.2    61  HIS61       0.2264
      4  O         -2.3400   -4.4830    8.3610 O.2    61  HIS61      -0.2867
      5  CB        -0.3630   -2.1900    8.8780 C.3    61  HIS61       0.0745
      6  CG        -0.7870   -0.7870    9.1370 C.ar   61  HIS61       0.0817
      7  ND1       -0.0360    0.2800    8.6670 N.ar   61  HIS61      -0.2268
      8  CD2       -1.7490   -0.2540    9.9680 C.ar   61  HIS61       0.1154
      9  CE1       -0.5620    1.4060    9.1400 C.ar   61  HIS61       0.1986
     10  NE2       -1.5810    1.1130    9.9430 N.ar   61  HIS61      -0.2212
     11  N        -12.6040    6.3370   11.2530 N.3    89  GLN89      -0.1245
     12  CA       -12.3000    5.2130   10.4310 C.3    89  GLN89       0.1566
     13  C        -12.5770    3.9350   11.1370 C.2    89  GLN89       0.2260
     14  O        -12.6120    3.9480   12.3610 O.2    89  GLN89      -0.2867
     15  CB       -10.8380    5.2000    9.8690 C.3    89  GLN89       0.0367
     16  CG        -9.7740    5.2860   10.9960 C.3    89  GLN89       0.0905
     17  CD        -9.0450    3.9650   11.2410 C.2    89  GLN89       0.2608
     18  OE1       -9.6710    2.8890   11.2570 O.2    89  GLN89      -0.2717
     19  NE2       -7.7510    4.0700   11.5490 N.am   89  GLN89      -0.0878
     20  N        -11.1590   -0.3430   10.9720 N.3    91  HIS91      -0.1241
     21  CA       -10.2690   -1.3300   10.3670 C.3    91  HIS91       0.1621
     22  C        -10.4150   -2.6090   11.1710 C.2    91  HIS91       0.2264
     23  O        -11.0140   -2.6300   12.2310 O.2    91  HIS91      -0.2867
     24  CB        -8.7960   -0.8270   10.3560 C.3    91  HIS91       0.0745
     25  CG        -8.3250   -0.5490   11.7260 C.ar   91  HIS91       0.0817
     26  ND1       -8.5080    0.6600   12.3450 N.ar   91  HIS91      -0.2268
     27  CD2       -7.6930   -1.3490   12.5870 C.ar   91  HIS91       0.1154
     28  CE1       -8.0210    0.5820   13.5860 C.ar   91  HIS91       0.1986
     29  NE2       -7.5150   -0.6470   13.7670 N.ar   91  HIS91      -0.2212
     30  N         -8.0440   -6.2950   12.5110 N.3    93  HIS93      -0.1241
     31  CA        -6.8430   -7.0830   12.6450 C.3    93  HIS93       0.1621
     32  C         -7.2630   -8.5570   12.5360 C.2    93  HIS93       0.2264
     33  O         -8.3510   -8.8920   13.0670 O.2    93  HIS93      -0.2867
     34  CB        -6.2420   -6.8600   14.0660 C.3    93  HIS93       0.0745
     35  CG        -5.9570   -5.4120   14.3960 C.ar   93  HIS93       0.0817
     36  ND1       -4.7100   -4.8580   14.1610 N.ar   93  HIS93      -0.2268
     37  CD2       -6.7470   -4.3920   14.7730 C.ar   93  HIS93       0.1154
     38  CE1       -4.7110   -3.5880   14.5240 C.ar   93  HIS93       0.1986
     39  NE2       -5.9580   -3.2410   14.8730 N.ar   93  HIS93      -0.2212
     40  N        -12.0180   -2.5620   14.8500 N.3   116  HIS116     -0.1241
     41  CA       -11.7620   -1.3320   15.6410 C.3   116  HIS116      0.1621
     42  C        -12.4090   -0.1780   14.9630 C.2   116  HIS116      0.2264
     43  O        -12.0010    0.1920   13.8370 O.2   116  HIS116     -0.2867
     44  CB       -10.2590   -1.0580   15.6850 C.3   116  HIS116      0.0745
     45  CG        -9.5950   -2.0490   16.5990 C.ar  116  HIS116      0.0817
     46  ND1       -8.2090   -2.3030   16.5680 N.ar  116  HIS116     -0.2268
     47  CD2      -10.1430   -2.9000   17.5100 C.ar  116  HIS116      0.1154
     48  CE1       -7.9250   -3.1570   17.5310 C.ar  116  HIS116      0.1986
     49  NE2       -9.0750   -3.6080   18.0840 N.ar  116  HIS116     -0.2212
     50  N        -12.7210    3.6140   15.2110 N.3   118  VAL118     -0.1245
     51  CA       -11.9220    4.7040   15.8610 C.3   118  VAL118      0.1561
     52  C        -12.6440    6.0200   15.8640 C.2   118  VAL118      0.2260
     53  O        -13.0690    6.4540   14.7960 O.2   118  VAL118     -0.2867
     54  CB       -10.5810    4.7980   15.1060 C.3   118  VAL118      0.0252
     55  CG1       -9.6950    5.8980   15.7820 C.3   118  VAL118      0.0019
     56  CG2       -9.8560    3.4430   14.9610 C.3   118  VAL118      0.0019
     57  N         -8.4730   15.0450   14.7480 N.3   127  PHE127     -0.1241
     58  CA        -7.8790   13.7490   15.1630 C.3   127  PHE127      0.1605
     59  C         -6.4370   13.9380   15.5490 C.2   127  PHE127      0.2264
     60  O         -5.9610   13.3720   16.5680 O.2   127  PHE127     -0.2867
     61  CB        -7.9580   12.7940   13.9770 C.3   127  PHE127      0.0534
     62  CG        -7.2850   11.4700   14.2120 C.ar  127  PHE127     -0.0203
     63  CD1       -7.9500   10.4440   14.8990 C.ar  127  PHE127     -0.0042
     64  CD2       -5.9770   11.2420   13.7770 C.ar  127  PHE127     -0.0042
     65  CE1       -7.3290    9.2340   15.1160 C.ar  127  PHE127     -0.0003
     66  CE2       -5.3590   10.0190   13.9800 C.ar  127  PHE127     -0.0003
     67  CZ        -6.0480    9.0080   14.6730 C.ar  127  PHE127     -0.0000
     68  N         -9.0920    9.5820   22.1870 N.3   137  LEU137     -0.1245
     69  CA        -9.7390    8.6260   21.2960 C.3   137  LEU137      0.1561
     70  C        -10.6090    7.6850   22.0660 C.2   137  LEU137      0.2260
     71  O        -10.3350    7.4220   23.2460 O.2   137  LEU137     -0.2867
     72  CB        -8.6690    7.7690   20.6050 C.3   137  LEU137      0.0270
     73  CG        -7.7970    8.4410   19.5300 C.3   137  LEU137      0.0019
     74  CD1       -7.2010    7.3370   18.6480 C.3   137  LEU137      0.0001
     75  CD2       -8.3970    9.4060   18.5330 C.3   137  LEU137      0.0001
     76  N        -12.0310    3.8250   21.0800 N.3   139  VAL139     -0.1245
     77  CA       -12.0200    2.7770   20.0880 C.3   139  VAL139      0.1561
     78  C        -13.0480    1.7350   20.5610 C.2   139  VAL139      0.2260
     79  O        -12.8980    1.1870   21.6690 O.2   139  VAL139     -0.2867
     80  CB       -10.6580    2.1440   19.8120 C.3   139  VAL139      0.0252
     81  CG1      -10.8070    1.1520   18.6170 C.3   139  VAL139      0.0019
     82  CG2       -9.7420    3.2580   19.3600 C.3   139  VAL139      0.0019
     83  N         -3.2830    3.0820   21.1270 N.3   194  GLY194     -0.1210
     84  CA        -3.4270    2.4950   19.7310 C.3   194  GLY194      0.1956
     85  C         -2.5360    1.2490   19.7660 C.2   194  GLY194      0.2613
     86  O         -1.5590    1.1190   20.5330 O.2   194  GLY194     -0.2717
     87  N         -2.8900    0.2790   18.9180 N.am  195  THR195     -0.1938
     88  CA        -2.1460   -0.9800   18.8780 C.3   195  THR195      0.2028
     89  C         -1.1900   -1.0850   17.7330 C.2   195  THR195      0.2642
     90  O         -0.5610   -2.1210   17.5830 O.2   195  THR195     -0.2714
     91  CB        -3.1470   -2.1610   18.8260 C.3   195  THR195      0.1808
     92  OG1       -3.8330   -2.1300   17.5740 O.3   195  THR195     -0.2208
     93  CG2       -4.1320   -2.1650   19.9920 C.3   195  THR195      0.0379
     94  N         -1.1000    0.0030   16.9320 N.am  196  THR196     -0.1950
     95  CA         0.0210    0.1210   15.9770 C.3   196  THR196      0.1897
     96  C          0.8230    1.3610   16.3030 C.2   196  THR196      0.2313
     97  O          0.3090    2.3520   16.8270 O.2   196  THR196     -0.2863
     98  CB        -0.5090    0.2710   14.5320 C.3   196  THR196      0.1794
     99  OG1       -1.5190    1.3180   14.4950 O.3   196  THR196     -0.2208
    100  CG2       -1.1940   -1.0080   14.1230 C.3   196  THR196      0.0378
    101  N        -10.6020    2.3720   25.6630 N.3   205  TRP205     -0.1241
    102  CA       -11.0930    1.1740   24.9580 C.3   205  TRP205      0.1605
    103  C        -12.4650    0.7540   25.4240 C.2   205  TRP205      0.2264
    104  O        -12.6710    0.6800   26.6100 O.2   205  TRP205     -0.2867
    105  CB       -10.1370   -0.0530   25.1840 C.3   205  TRP205      0.0550
    106  CG        -8.9660    0.0410   24.2470 C.ar  205  TRP205      0.0003
    107  CD1       -7.7350    0.6300   24.4550 C.ar  205  TRP205      0.0946
    108  CD2       -9.0050   -0.3710   22.8570 C.ar  205  TRP205      0.0152
    109  NE1       -7.0190    0.6190   23.2810 N.ar  205  TRP205     -0.2442
    110  CE2       -7.7650   -0.0340   22.2990 C.ar  205  TRP205      0.0810
    111  CE3       -9.9940   -0.9940   22.0570 C.ar  205  TRP205      0.0012
    112  CZ2       -7.4970   -0.2710   20.9470 C.ar  205  TRP205      0.0191
    113  CZ3       -9.7300   -1.2640   20.7730 C.ar  205  TRP205      0.0001
    114  CH2       -8.4890   -0.9330   20.1990 C.ar  205  TRP205      0.0015
@<TRIPOS>BOND
     1     1     2    1
     2     2     3    1
     3     2     5    1
     4     3     4    2
     5     7     6   ar
     6     7     9   ar
     7     5     6    1
     8     6     8   ar
     9     9    10   ar
    10    15    12    1
    11    15    16    1
    12    10     8   ar
    13    24    21    1
    14    24    25    1
    15    21    20    1
    16    21    22    1
    17    12    13    1
    18    12    11    1
    19    16    17    1
    20    13    14    2
    21    22    23    2
    22    17    18    2
    23    17    19   am
    24    25    26   ar
    25    25    27   ar
    26    26    28   ar
    27    30    31    1
    28    32    31    1
    29    32    33    2
    30    27    29   ar
    31    31    34    1
    32    28    29   ar
    33    64    66   ar
    34    64    62   ar
    35    43    42    2
    36    61    62    1
    37    61    58    1
    38    66    67   ar
    39    34    35    1
    40   100    98    1
    41    36    35   ar
    42    36    38   ar
    43    62    63   ar
    44    35    37   ar
    45    99    98    1
    46    38    39   ar
    47    98    95    1
    48    67    65   ar
    49    57    58    1
    50    37    39   ar
    51    53    52    2
    52    40    41    1
    53    63    65   ar
    54    56    54    1
    55    42    41    1
    56    54    55    1
    57    54    51    1
    58    58    59    1
    59    50    51    1
    60    59    60    2
    61    41    44    1
    62    44    45    1
    63    51    52    1
    64    95    96    1
    65    95    94    1
    66    96    97    2
    67    46    45   ar
    68    46    48   ar
    69    45    47   ar
    70    94    89   am
    71    47    49   ar
    72    48    49   ar
    73    92    91    1
    74    90    89    2
    75    89    88    1
    76    75    73    1
    77    81    80    1
    78    74    73    1
    79    91    88    1
    80    91    93    1
    81    88    87    1
    82    87    85   am
    83    82    80    1
    84    73    72    1
    85    84    85    1
    86    84    83    1
    87    85    86    2
    88    80    77    1
    89    77    78    1
    90    77    76    1
    91   114   113   ar
    92   114   112   ar
    93    78    79    2
    94    72    69    1
    95   113   111   ar
    96   112   110   ar
    97    69    70    1
    98    69    68    1
    99   111   108   ar
   100    70    71    2
   101   110   108   ar
   102   110   109   ar
   103   108   106   ar
   104   109   107   ar
   105   106   107   ar
   106   106   105    1
   107   102   105    1
   108   102   103    1
   109   102   101    1
   110   103   104    2
