@<TRIPOS>MOLECULE
tmp/5th5A01.pdb
 99 92 0 0 0
SMALL
GASTEIGER

@<TRIPOS>ATOM
      1  N          5.9660   -5.2360    2.1760 N.3    28  ARG28      -0.1245
      2  CA         4.5960   -4.8350    1.8850 C.3    28  ARG28       0.1563
      3  C          3.8810   -5.9010    1.0630 C.2    28  ARG28       0.2260
      4  O          4.3040   -6.2340   -0.0430 O.2    28  ARG28      -0.2867
      5  CB         4.5690   -3.4910    1.1520 C.3    28  ARG28       0.0307
      6  CG         3.1830   -2.8780    1.0550 C.3    28  ARG28       0.0489
      7  CD         3.2120   -1.4800    0.4640 C.3    28  ARG28       0.2205
      8  NE         4.0950   -0.5810    1.2030 N.pl3  28  ARG28      -0.0865
      9  CZ         3.7190    0.1440    2.2520 C.cat  28  ARG28       0.5346
     10  NH1        2.4720    0.0770    2.6940 N.pl3  28  ARG28       0.1354
     11  NH2        4.5930    0.9340    2.8600 N.pl3  28  ARG28       0.1354
     12  N         -6.2770   -5.9620   -0.0160 N.3    32  CYS32      -0.1235
     13  CA        -6.9360   -5.2290    1.0600 C.3    32  CYS32       0.1677
     14  C         -8.4400   -5.4670    1.0590 C.2    32  CYS32       0.2270
     15  O         -9.0700   -5.5150    0.0030 O.2    32  CYS32      -0.2867
     16  CB        -6.6590   -3.7280    0.9530 C.3    32  CYS32       0.0956
     17  SG        -6.9180   -2.8550    2.5360 S.3    32  CYS32      -0.0801
     18  N         -5.9100    6.1350    0.5990 N.3    39  CYS39      -0.1221
     19  CA        -4.8780    5.1040    0.7050 C.3    39  CYS39       0.1808
     20  C         -3.6050    5.5430   -0.0120 C.2    39  CYS39       0.2601
     21  O         -3.5980    5.7070   -1.2310 O.2    39  CYS39      -0.2717
     22  CB        -5.3860    3.7750    0.1280 C.3    39  CYS39       0.0970
     23  SG        -4.2220    2.3780    0.1920 S.3    39  CYS39      -0.0800
     24  N         -2.5310    5.7410    0.7490 N.am   40  ASP40      -0.1959
     25  CA        -1.2670    6.1940    0.1750 C.3    40  ASP40       0.1840
     26  C         -0.4950    5.0470   -0.4740 C.2    40  ASP40       0.2622
     27  O          0.5930    5.2460   -1.0120 O.2    40  ASP40      -0.2715
     28  CB        -0.4000    6.8800    1.2380 C.3    40  ASP40       0.1450
     29  CG        -0.1600    6.0090    2.4610 C.2    40  ASP40       0.3671
     30  OD1       -0.5060    4.8090    2.4330 O.co2  40  ASP40      -0.2456
     31  OD2        0.3850    6.5320    3.4570 O.co2  40  ASP40      -0.2456
     32  N         -1.0640    3.8480   -0.4130 N.am   41  SER41      -0.1950
     33  CA        -0.4800    2.6800   -1.0610 C.3    41  SER41       0.1924
     34  C         -1.5700    1.9000   -1.7870 C.2    41  SER41       0.2314
     35  O         -1.7430    0.7010   -1.5670 O.2    41  SER41      -0.2863
     36  CB         0.2300    1.7900   -0.0390 C.3    41  SER41       0.2116
     37  OG         1.2730    2.4940    0.6150 O.3    41  SER41      -0.2180
     38  N          3.7220   -4.6870    6.2560 N.3    79  SER79      -0.1202
     39  CA         2.5910   -3.8270    5.9330 C.3    79  SER79       0.2020
     40  C          1.9300   -4.2580    4.6270 C.2    79  SER79       0.2619
     41  O          2.2260   -5.3290    4.0970 O.2    79  SER79      -0.2717
     42  CB         3.0400   -2.3660    5.8470 C.3    79  SER79       0.2103
     43  OG         1.9300   -1.4960    5.7050 O.3    79  SER79      -0.2182
     44  N          1.0340   -3.4210    4.1150 N.am   80  GLY80      -0.1942
     45  CA         0.3260   -3.7170    2.8830 C.3    80  GLY80       0.2014
     46  C         -0.3540   -2.4880    2.3080 C.2    80  GLY80       0.2639
     47  O          0.2720   -1.4340    2.1930 O.2    80  GLY80      -0.2714
     48  N         -1.6290   -2.6090    1.9410 N.am   81  GLY81      -0.1939
     49  CA        -2.3700   -3.8540    2.0480 C.3    81  GLY81       0.2014
     50  C         -2.8190   -4.1690    3.4620 C.2    81  GLY81       0.2638
     51  O         -2.5120   -3.4320    4.3980 O.2    81  GLY81      -0.2714
     52  N         -3.5450   -5.2680    3.6190 N.am   82  ASN82      -0.1972
     53  CA        -3.8890   -5.7650    4.9430 C.3    82  ASN82       0.1688
     54  C         -3.2810   -7.1440    5.1630 C.2    82  ASN82       0.2292
     55  O         -3.8610   -8.1530    4.7660 O.2    82  ASN82      -0.2864
     56  CB        -5.4050   -5.8140    5.1330 C.3    82  ASN82       0.1181
     57  CG        -5.8030   -6.1500    6.5580 C.2    82  ASN82       0.2629
     58  OD1       -4.9840   -6.0870    7.4750 O.2    82  ASN82      -0.2716
     59  ND2       -7.0680   -6.5050    6.7510 N.am   82  ASN82      -0.0877
     60  N          1.2810   -3.5100   10.5710 N.3   106  GLU106     -0.1231
     61  CA         0.3210   -2.4500   10.2970 C.3   106  GLU106      0.1699
     62  C         -0.9790   -3.0550    9.7700 C.2   106  GLU106      0.2593
     63  O         -0.9890   -3.6960    8.7200 O.2   106  GLU106     -0.2718
     64  CB         0.8910   -1.4520    9.2860 C.3   106  GLU106      0.0402
     65  CG         2.2100   -0.8120    9.6950 C.3   106  GLU106      0.1161
     66  CD         2.0300    0.3610   10.6400 C.2   106  GLU106      0.3649
     67  OE1        3.0470    0.8770   11.1490 O.co2 106  GLU106     -0.2457
     68  OE2        0.8740    0.7740   10.8690 O.co2 106  GLU106     -0.2457
     69  N         -2.0710   -2.8570   10.5010 N.am  107  THR107     -0.1939
     70  CA        -3.3660   -3.3910   10.0890 C.3   107  THR107      0.2028
     71  C         -4.5050   -2.4860   10.5530 C.2   107  THR107      0.2642
     72  O         -4.3690   -1.7650   11.5400 O.2   107  THR107     -0.2714
     73  CB        -3.5860   -4.8170   10.6340 C.3   107  THR107      0.1808
     74  OG1       -4.8600   -5.3090   10.2010 O.3   107  THR107     -0.2208
     75  CG2       -3.5300   -4.8270   12.1540 C.3   107  THR107      0.0379
     76  N         -5.6250   -2.5200    9.8370 N.am  108  GLN108     -0.1976
     77  CA        -6.7540   -1.6550   10.1640 C.3   108  GLN108      0.1601
     78  C         -7.6580   -2.2730   11.2280 C.2   108  GLN108      0.2287
     79  O         -8.5600   -1.6150   11.7440 O.2   108  GLN108     -0.2864
     80  CB        -7.5710   -1.3290    8.9090 C.3   108  GLN108      0.0394
     81  CG        -8.2060   -2.5290    8.2250 C.3   108  GLN108      0.0908
     82  CD        -7.3680   -3.0630    7.0810 C.2   108  GLN108      0.2608
     83  OE1       -6.1390   -3.0470    7.1350 O.2   108  GLN108     -0.2717
     84  NE2       -8.0320   -3.5320    6.0320 N.am  108  GLN108     -0.0878
     85  N         -5.0430    0.3360   13.1320 N.3   125  SER125     -0.1217
     86  CA        -5.4660    1.6390   12.6370 C.3   125  SER125      0.1889
     87  C         -6.8920    1.6390   12.0970 C.2   125  SER125      0.2288
     88  O         -7.1000    1.5090   10.8910 O.2   125  SER125     -0.2866
     89  CB        -4.5030    2.1230   11.5510 C.3   125  SER125      0.2089
     90  OG        -4.8490    3.4220   11.1030 O.3   125  SER125     -0.2183
     91  N        -10.2930    2.9950   10.6480 N.3   127  LYS127     -0.1245
     92  CA       -10.4350    4.0450    9.6500 C.3   127  LYS127      0.1561
     93  C        -11.5910    4.9980    9.9490 C.2   127  LYS127      0.2260
     94  O        -12.7070    4.5650   10.2340 O.2   127  LYS127     -0.2867
     95  CB       -10.6060    3.4230    8.2650 C.3   127  LYS127      0.0271
     96  CG        -9.3520    2.7240    7.7620 C.3   127  LYS127      0.0035
     97  CD        -8.2050    3.7120    7.6100 C.3   127  LYS127      0.0206
     98  CE        -6.8980    3.0100    7.2810 C.3   127  LYS127      0.1093
     99  NZ        -6.4190    2.1730    8.4130 N.3   127  LYS127     -0.1314
@<TRIPOS>BOND
     1    34    35    2
     2    34    33    1
     3    21    20    2
     4    33    32    1
     5    33    36    1
     6    27    26    2
     7    26    32   am
     8    26    25    1
     9     4     3    2
    10    36    37    1
    11    12    13    1
    12    20    19    1
    13    20    24   am
    14    15    14    2
    15    22    23    1
    16    22    19    1
    17    25    24    1
    18    25    28    1
    19     7     6    1
    20     7     8    1
    21    18    19    1
    22    16    13    1
    23    16    17    1
    24     6     5    1
    25    14    13    1
    26     3     2    1
    27     5     2    1
    28     8     9    2
    29    28    29    1
    30     2     1    1
    31    48    49    1
    32    48    46   am
    33    49    50    1
    34    47    46    2
    35     9    10    1
    36     9    11    1
    37    46    45    1
    38    30    29   ar
    39    29    31   ar
    40    45    44    1
    41    50    52   am
    42    50    51    2
    43    52    53    1
    44    41    40    2
    45    44    40   am
    46    40    39    1
    47    55    54    2
    48    53    56    1
    49    53    54    1
    50    56    57    1
    51    43    42    1
    52    42    39    1
    53    39    38    1
    54    84    82   am
    55    57    59   am
    56    57    58    2
    57    82    83    2
    58    82    81    1
    59    98    97    1
    60    98    99    1
    61    97    96    1
    62    96    95    1
    63    81    80    1
    64    95    92    1
    65    63    62    2
    66    80    77    1
    67    64    65    1
    68    64    61    1
    69    92    93    1
    70    92    91    1
    71    65    66    1
    72    62    61    1
    73    62    69   am
    74    76    77    1
    75    76    71   am
    76    93    94    2
    77    70    69    1
    78    70    71    1
    79    70    73    1
    80    77    78    1
    81    74    73    1
    82    61    60    1
    83    71    72    2
    84    73    75    1
    85    66    68   ar
    86    66    67   ar
    87    88    87    2
    88    90    89    1
    89    78    79    2
    90    89    86    1
    91    87    86    1
    92    86    85    1
