@<TRIPOS>MOLECULE
tmp/5th5A00.pdb
 243 233 0 0 0
SMALL
GASTEIGER

@<TRIPOS>ATOM
      1  N         12.0830   -3.5430    0.9390 N.3     9  PHE9       -0.1241
      2  CA        13.1180   -2.5160    0.9390 C.3     9  PHE9        0.1605
      3  C         13.6330   -2.2040    2.3380 C.2     9  PHE9        0.2264
      4  O         13.0350   -2.6010    3.3390 O.2     9  PHE9       -0.2867
      5  CB        12.6030   -1.2360    0.2710 C.3     9  PHE9        0.0534
      6  CG        11.3780   -0.6510    0.9200 C.ar    9  PHE9       -0.0203
      7  CD1       11.4940    0.2930    1.9290 C.ar    9  PHE9       -0.0042
      8  CD2       10.1110   -1.0270    0.5050 C.ar    9  PHE9       -0.0042
      9  CE1       10.3700    0.8410    2.5180 C.ar    9  PHE9       -0.0003
     10  CE2        8.9830   -0.4830    1.0920 C.ar    9  PHE9       -0.0003
     11  CZ         9.1130    0.4530    2.0980 C.ar    9  PHE9       -0.0000
     12  N         15.5410    1.2970    6.4360 N.3    12  THR12      -0.1203
     13  CA        15.0870    2.6750    6.5450 C.3    12  THR12       0.1994
     14  C         14.5980    2.9130    7.9690 C.2    12  THR12       0.2618
     15  O         14.9070    2.1340    8.8690 O.2    12  THR12      -0.2717
     16  CB        13.9700    2.9880    5.5350 C.3    12  THR12       0.1784
     17  OG1       13.5200    4.3360    5.7150 O.3    12  THR12      -0.2211
     18  CG2       12.7980    2.0340    5.7210 C.3    12  THR12       0.0376
     19  N         13.8430    3.9840    8.1800 N.am   13  ILE13      -0.1965
     20  CA        13.2780    4.2430    9.4980 C.3    13  ILE13       0.1727
     21  C         11.7590    4.1320    9.4780 C.2    13  ILE13       0.2616
     22  O         11.1130    4.4640    8.4850 O.2    13  ILE13      -0.2715
     23  CB        13.6720    5.6370   10.0280 C.3    13  ILE13       0.0290
     24  CG1       13.2350    6.7270    9.0480 C.3    13  ILE13       0.0022
     25  CG2       15.1690    5.7080   10.2800 C.3    13  ILE13       0.0023
     26  CD1       13.4380    8.1300    9.5660 C.3    13  ILE13       0.0001
     27  N         11.1980    3.6440   10.5790 N.am   14  GLN14      -0.1963
     28  CA         9.7540    3.6380   10.7570 C.3    14  GLN14       0.1733
     29  C          9.2720    5.0740   10.9150 C.2    14  GLN14       0.2617
     30  O          9.6340    5.7540   11.8740 O.2    14  GLN14      -0.2715
     31  CB         9.3580    2.8000   11.9720 C.3    14  GLN14       0.0408
     32  CG         7.8730    2.8270   12.2880 C.3    14  GLN14       0.0908
     33  CD         7.0420    2.1200   11.2390 C.2    14  GLN14       0.2608
     34  OE1        7.5040    1.1780   10.5950 O.2    14  GLN14      -0.2717
     35  NE2        5.8070    2.5730   11.0590 N.am   14  GLN14      -0.0878
     36  N          8.4630    5.5380    9.9700 N.am   15  GLY15      -0.1940
     37  CA         8.0510    6.9280    9.9530 C.3    15  GLY15       0.2014
     38  C          6.7710    7.2170   10.7100 C.2    15  GLY15       0.2638
     39  O          6.3410    8.3670   10.7840 O.2    15  GLY15      -0.2714
     40  N          6.1580    6.1810   11.2740 N.am   16  GLU16      -0.1977
     41  CA         4.8490    6.3270   11.9050 C.3    16  GLU16       0.1602
     42  C          4.6980    5.5320   13.1990 C.2    16  GLU16       0.2287
     43  O          5.3540    4.5110   13.3970 O.2    16  GLU16      -0.2864
     44  CB         3.7430    5.8940   10.9370 C.3    16  GLU16       0.0415
     45  CG         3.7120    6.6290    9.6070 C.3    16  GLU16       0.1163
     46  CD         2.6690    6.0640    8.6660 C.2    16  GLU16       0.3649
     47  OE1        1.7880    5.3180    9.1410 O.co2  16  GLU16      -0.2457
     48  OE2        2.7300    6.3590    7.4540 O.co2  16  GLU16      -0.2457
     49  N         11.2480   -3.3710    5.4050 N.3    26  PHE26      -0.1241
     50  CA         9.8300   -3.3550    5.0690 C.3    26  PHE26       0.1605
     51  C          9.4440   -4.4730    4.1130 C.2    26  PHE26       0.2264
     52  O         10.1240   -4.7250    3.1210 O.2    26  PHE26      -0.2867
     53  CB         9.4400   -2.0070    4.4630 C.3    26  PHE26       0.0534
     54  CG         8.8480   -1.0470    5.4530 C.ar   26  PHE26      -0.0203
     55  CD1        7.4790   -1.0060    5.6620 C.ar   26  PHE26      -0.0042
     56  CD2        9.6560   -0.1860    6.1740 C.ar   26  PHE26      -0.0042
     57  CE1        6.9280   -0.1230    6.5710 C.ar   26  PHE26      -0.0003
     58  CE2        9.1110    0.6990    7.0860 C.ar   26  PHE26      -0.0003
     59  CZ         7.7460    0.7290    7.2850 C.ar   26  PHE26      -0.0000
     60  N          5.9660   -5.2360    2.1760 N.3    28  ARG28      -0.1245
     61  CA         4.5960   -4.8350    1.8850 C.3    28  ARG28       0.1563
     62  C          3.8810   -5.9010    1.0630 C.2    28  ARG28       0.2260
     63  O          4.3040   -6.2340   -0.0430 O.2    28  ARG28      -0.2867
     64  CB         4.5690   -3.4910    1.1520 C.3    28  ARG28       0.0307
     65  CG         3.1830   -2.8780    1.0550 C.3    28  ARG28       0.0489
     66  CD         3.2120   -1.4800    0.4640 C.3    28  ARG28       0.2205
     67  NE         4.0950   -0.5810    1.2030 N.pl3  28  ARG28      -0.0865
     68  CZ         3.7190    0.1440    2.2520 C.cat  28  ARG28       0.5346
     69  NH1        2.4720    0.0770    2.6940 N.pl3  28  ARG28       0.1354
     70  NH2        4.5930    0.9340    2.8600 N.pl3  28  ARG28       0.1354
     71  N         -8.1550    7.7220    0.7190 N.3    38  TRP38      -0.1227
     72  CA        -6.8500    8.3730    0.7550 C.3    38  TRP38       0.1737
     73  C         -5.7040    7.3910    0.9920 C.2    38  TRP38       0.2596
     74  O         -4.6560    7.7700    1.5150 O.2    38  TRP38      -0.2718
     75  CB        -6.8290    9.4700    1.8250 C.3    38  TRP38       0.0564
     76  CG        -7.5430    9.1180    3.0970 C.ar   38  TRP38       0.0003
     77  CD1       -8.7680    9.5640    3.4970 C.ar   38  TRP38       0.0946
     78  CD2       -7.0710    8.2540    4.1380 C.ar   38  TRP38       0.0152
     79  NE1       -9.0900    9.0310    4.7220 N.ar   38  TRP38      -0.2442
     80  CE2       -8.0650    8.2230    5.1370 C.ar   38  TRP38       0.0810
     81  CE3       -5.9060    7.5050    4.3240 C.ar   38  TRP38       0.0012
     82  CZ2       -7.9280    7.4720    6.3020 C.ar   38  TRP38       0.0191
     83  CZ3       -5.7730    6.7580    5.4800 C.ar   38  TRP38       0.0001
     84  CH2       -6.7780    6.7480    6.4540 C.ar   38  TRP38       0.0015
     85  N         -5.9100    6.1350    0.5990 N.am   39  CYS39      -0.1956
     86  CA        -4.8780    5.1040    0.7050 C.3    39  CYS39       0.1843
     87  C         -3.6050    5.5430   -0.0120 C.2    39  CYS39       0.2625
     88  O         -3.5980    5.7070   -1.2310 O.2    39  CYS39      -0.2714
     89  CB        -5.3860    3.7750    0.1280 C.3    39  CYS39       0.0997
     90  SG        -4.2220    2.3780    0.1920 S.3    39  CYS39      -0.0797
     91  N         -2.5310    5.7410    0.7490 N.am   40  ASP40      -0.1957
     92  CA        -1.2670    6.1940    0.1750 C.3    40  ASP40       0.1840
     93  C         -0.4950    5.0470   -0.4740 C.2    40  ASP40       0.2622
     94  O          0.5930    5.2460   -1.0120 O.2    40  ASP40      -0.2715
     95  CB        -0.4000    6.8800    1.2380 C.3    40  ASP40       0.1450
     96  CG        -0.1600    6.0090    2.4610 C.2    40  ASP40       0.3671
     97  OD1       -0.5060    4.8090    2.4330 O.co2  40  ASP40      -0.2456
     98  OD2        0.3850    6.5320    3.4570 O.co2  40  ASP40      -0.2456
     99  N         -1.0640    3.8480   -0.4130 N.am   41  SER41      -0.1950
    100  CA        -0.4800    2.6800   -1.0610 C.3    41  SER41       0.1924
    101  C         -1.5700    1.9000   -1.7870 C.2    41  SER41       0.2314
    102  O         -1.7430    0.7010   -1.5670 O.2    41  SER41      -0.2863
    103  CB         0.2300    1.7900   -0.0390 C.3    41  SER41       0.2116
    104  OG         1.2730    2.4940    0.6150 O.3    41  SER41      -0.2180
    105  N          3.7220   -4.6870    6.2560 N.3    79  SER79      -0.1217
    106  CA         2.5910   -3.8270    5.9330 C.3    79  SER79       0.1889
    107  C          1.9300   -4.2580    4.6270 C.2    79  SER79       0.2288
    108  O          2.2260   -5.3290    4.0970 O.2    79  SER79      -0.2866
    109  CB         3.0400   -2.3660    5.8470 C.3    79  SER79       0.2089
    110  OG         1.9300   -1.4960    5.7050 O.3    79  SER79      -0.2183
    111  N          1.2810   -3.5100   10.5710 N.3   106  GLU106     -0.1231
    112  CA         0.3210   -2.4500   10.2970 C.3   106  GLU106      0.1699
    113  C         -0.9790   -3.0550    9.7700 C.2   106  GLU106      0.2592
    114  O         -0.9890   -3.6960    8.7200 O.2   106  GLU106     -0.2718
    115  CB         0.8910   -1.4520    9.2860 C.3   106  GLU106      0.0402
    116  CG         2.2100   -0.8120    9.6950 C.3   106  GLU106      0.1161
    117  CD         2.0300    0.3610   10.6400 C.2   106  GLU106      0.3649
    118  OE1        3.0470    0.8770   11.1490 O.co2 106  GLU106     -0.2457
    119  OE2        0.8740    0.7740   10.8690 O.co2 106  GLU106     -0.2457
    120  N         -2.0710   -2.8570   10.5010 N.am  107  THR107     -0.1953
    121  CA        -3.3660   -3.3910   10.0890 C.3   107  THR107      0.1897
    122  C         -4.5050   -2.4860   10.5530 C.2   107  THR107      0.2313
    123  O         -4.3690   -1.7650   11.5400 O.2   107  THR107     -0.2863
    124  CB        -3.5860   -4.8170   10.6340 C.3   107  THR107      0.1794
    125  OG1       -4.8600   -5.3090   10.2010 O.3   107  THR107     -0.2208
    126  CG2       -3.5300   -4.8270   12.1540 C.3   107  THR107      0.0378
    127  N         -5.0430    0.3360   13.1320 N.3   125  SER125     -0.1217
    128  CA        -5.4660    1.6390   12.6370 C.3   125  SER125      0.1889
    129  C         -6.8920    1.6390   12.0970 C.2   125  SER125      0.2288
    130  O         -7.1000    1.5090   10.8910 O.2   125  SER125     -0.2866
    131  CB        -4.5030    2.1230   11.5510 C.3   125  SER125      0.2089
    132  OG        -4.8490    3.4220   11.1030 O.3   125  SER125     -0.2183
    133  N        -10.2930    2.9950   10.6480 N.3   127  LYS127     -0.1245
    134  CA       -10.4350    4.0450    9.6500 C.3   127  LYS127      0.1561
    135  C        -11.5910    4.9980    9.9490 C.2   127  LYS127      0.2260
    136  O        -12.7070    4.5650   10.2340 O.2   127  LYS127     -0.2867
    137  CB       -10.6060    3.4230    8.2650 C.3   127  LYS127      0.0271
    138  CG        -9.3520    2.7240    7.7620 C.3   127  LYS127      0.0035
    139  CD        -8.2050    3.7120    7.6100 C.3   127  LYS127      0.0206
    140  CE        -6.8980    3.0100    7.2810 C.3   127  LYS127      0.1093
    141  NZ        -6.4190    2.1730    8.4130 N.3   127  LYS127     -0.1314
    142  N         -3.9090    3.6970   16.3240 N.3   159  LYS159     -0.1245
    143  CA        -3.4920    4.8680   15.5650 C.3   159  LYS159      0.1561
    144  C         -4.5680    5.2950   14.5750 C.2   159  LYS159      0.2260
    145  O         -4.8970    4.5570   13.6520 O.2   159  LYS159     -0.2867
    146  CB        -2.1820    4.5850   14.8280 C.3   159  LYS159      0.0271
    147  CG        -1.6430    5.7660   14.0410 C.3   159  LYS159      0.0035
    148  CD        -0.3590    5.4030   13.3150 C.3   159  LYS159      0.0206
    149  CE        -0.6030    4.3380   12.2590 C.3   159  LYS159      0.1093
    150  NZ         0.6520    3.9570   11.5560 N.3   159  LYS159     -0.1314
    151  N         -5.8260    8.0760   11.7490 N.3   161  VAL161     -0.1245
    152  CA        -5.4340    9.1440   10.8410 C.3   161  VAL161      0.1561
    153  C         -6.5040   10.2320   10.8120 C.2   161  VAL161      0.2260
    154  O         -7.6900    9.9380   10.6710 O.2   161  VAL161     -0.2867
    155  CB        -5.1960    8.6050    9.4180 C.3   161  VAL161      0.0252
    156  CG1       -4.7080    9.7120    8.5020 C.3   161  VAL161      0.0019
    157  CG2       -4.1990    7.4570    9.4480 C.3   161  VAL161      0.0019
    158  N         -7.9940   13.7960    9.1240 N.3   163  PHE163     -0.1241
    159  CA        -8.0310   14.7300    8.0060 C.3   163  PHE163      0.1605
    160  C         -8.8670   15.9550    8.3590 C.2   163  PHE163      0.2264
    161  O         -8.6050   17.0580    7.8810 O.2   163  PHE163     -0.2867
    162  CB        -8.5920   14.0570    6.7520 C.3   163  PHE163      0.0534
    163  CG        -7.5900   13.2230    6.0080 C.ar  163  PHE163     -0.0203
    164  CD1       -6.8710   13.7610    4.9540 C.ar  163  PHE163     -0.0042
    165  CD2       -7.3720   11.9010    6.3570 C.ar  163  PHE163     -0.0042
    166  CE1       -5.9500   12.9970    4.2630 C.ar  163  PHE163     -0.0003
    167  CE2       -6.4520   11.1330    5.6700 C.ar  163  PHE163     -0.0003
    168  CZ        -5.7410   11.6810    4.6200 C.ar  163  PHE163     -0.0000
    169  N         -2.4660   10.5470   13.7990 N.3   186  GLN186     -0.1231
    170  CA        -1.5800   10.7390   12.6600 C.3   186  GLN186      0.1698
    171  C         -2.1380   11.7530   11.6670 C.2   186  GLN186      0.2592
    172  O         -3.3260   11.7350   11.3450 O.2   186  GLN186     -0.2718
    173  CB        -1.3240    9.4030   11.9620 C.3   186  GLN186      0.0381
    174  CG        -0.3940    9.4910   10.7660 C.3   186  GLN186      0.0905
    175  CD         0.2220    8.1540   10.4140 C.2   186  GLN186      0.2608
    176  OE1        0.9250    7.5510   11.2230 O.2   186  GLN186     -0.2717
    177  NE2       -0.0430    7.6800    9.2030 N.am  186  GLN186     -0.0878
    178  N         -1.2680   12.6380   11.1910 N.am  187  VAL187     -0.1966
    179  CA        -1.6500   13.6540   10.2190 C.3   187  VAL187      0.1727
    180  C         -1.9630   13.0300    8.8640 C.2   187  VAL187      0.2617
    181  O         -1.1560   12.2810    8.3130 O.2   187  VAL187     -0.2715
    182  CB        -0.5430   14.7090   10.0410 C.3   187  VAL187      0.0290
    183  CG1       -0.9470   15.7350    8.9910 C.3   187  VAL187      0.0023
    184  CG2       -0.2410   15.3860   11.3650 C.3   187  VAL187      0.0023
    185  N         -3.1380   13.3430    8.3310 N.am  188  GLY188     -0.1940
    186  CA        -3.5450   12.8290    7.0370 C.3   188  GLY188      0.2014
    187  C         -2.8650   13.5340    5.8800 C.2   188  GLY188      0.2638
    188  O         -2.6910   14.7520    5.8980 O.2   188  GLY188     -0.2714
    189  N         -2.4800   12.7640    4.8680 N.am  189  ASN189     -0.1972
    190  CA        -1.8380   13.3170    3.6820 C.3   189  ASN189      0.1688
    191  C         -2.8470   13.5740    2.5670 C.2   189  ASN189      0.2292
    192  O         -3.4890   12.6470    2.0730 O.2   189  ASN189     -0.2864
    193  CB        -0.7340   12.3780    3.1900 C.3   189  ASN189      0.1181
    194  CG         0.0520   12.9570    2.0290 C.2   189  ASN189      0.2629
    195  OD1        0.0100   14.1590    1.7720 O.2   189  ASN189     -0.2716
    196  ND2        0.7810   12.1000    1.3230 N.am  189  ASN189     -0.0877
    197  N         -1.2460   12.3350   -2.1700 N.3   192  VAL192     -0.1245
    198  CA        -0.3370   11.1980   -2.1190 C.3   192  VAL192      0.1561
    199  C          0.2980   10.9370   -3.4820 C.2   192  VAL192      0.2260
    200  O          1.0180    9.9560   -3.6620 O.2   192  VAL192     -0.2867
    201  CB        -1.0580    9.9190   -1.6480 C.3   192  VAL192      0.0252
    202  CG1       -1.6840   10.1370   -0.2790 C.3   192  VAL192      0.0019
    203  CG2       -2.1130    9.5020   -2.6610 C.3   192  VAL192      0.0019
    204  N          3.9280   11.8490    9.3930 N.3   229  GLN229     -0.1245
    205  CA         4.6090   10.7990    8.6480 C.3   229  GLN229      0.1566
    206  C          6.0190   11.2620    8.3030 C.2   229  GLN229      0.2260
    207  O          6.2130   12.0240    7.3560 O.2   229  GLN229     -0.2867
    208  CB         3.8340   10.4400    7.3800 C.3   229  GLN229      0.0367
    209  CG         2.5000    9.7590    7.6380 C.3   229  GLN229      0.0905
    210  CD         1.7450    9.4540    6.3600 C.2   229  GLN229      0.2608
    211  OE1        1.4970   10.3410    5.5440 O.2   229  GLN229     -0.2717
    212  NE2        1.3810    8.1900    6.1750 N.am  229  GLN229     -0.0878
    213  N          8.6590    9.7800    7.0390 N.3   231  HIS231     -0.1241
    214  CA         9.1990    9.3630    5.7490 C.3   231  HIS231      0.1621
    215  C          8.6620   10.2370    4.6180 C.2   231  HIS231      0.2264
    216  O          9.3260   10.4230    3.5980 O.2   231  HIS231     -0.2867
    217  CB         8.8850    7.8870    5.4780 C.3   231  HIS231      0.0745
    218  CG         7.4280    7.5500    5.5400 C.ar  231  HIS231      0.0817
    219  ND1        6.7460    7.0070    4.4730 N.ar  231  HIS231     -0.2268
    220  CD2        6.5270    7.6600    6.5460 C.ar  231  HIS231      0.1154
    221  CE1        5.4850    6.8070    4.8150 C.ar  231  HIS231      0.1986
    222  NE2        5.3270    7.1950    6.0670 N.ar  231  HIS231     -0.2212
    223  N         11.1280   12.0590    2.1130 N.3   235  TRP235     -0.1241
    224  CA        11.2010   11.5950    0.7310 C.3   235  TRP235      0.1605
    225  C          9.9080   11.8100   -0.0540 C.2   235  TRP235      0.2264
    226  O          9.8110   11.4140   -1.2150 O.2   235  TRP235     -0.2867
    227  CB        11.5790   10.1120    0.6970 C.3   235  TRP235      0.0550
    228  CG        12.8820    9.8050    1.3700 C.ar  235  TRP235      0.0003
    229  CD1       14.1280   10.1630    0.9460 C.ar  235  TRP235      0.0946
    230  CD2       13.0680    9.0640    2.5830 C.ar  235  TRP235      0.0152
    231  NE1       15.0780    9.6970    1.8220 N.ar  235  TRP235     -0.2442
    232  CE2       14.4540    9.0190    2.8350 C.ar  235  TRP235      0.0810
    233  CE3       12.1990    8.4370    3.4810 C.ar  235  TRP235      0.0012
    234  CZ2       14.9900    8.3730    3.9470 C.ar  235  TRP235      0.0191
    235  CZ3       12.7330    7.7960    4.5840 C.ar  235  TRP235      0.0001
    236  CH2       14.1150    7.7690    4.8070 C.ar  235  TRP235      0.0015
    237  N         11.0870    3.5240    0.2380 N.3   241  VAL241     -0.1245
    238  CA        11.8280    4.2010    1.2970 C.3   241  VAL241      0.1561
    239  C         10.9950    4.3220    2.5690 C.2   241  VAL241      0.2260
    240  O         11.5320    4.3450    3.6760 O.2   241  VAL241     -0.2867
    241  CB        12.2880    5.6070    0.8620 C.3   241  VAL241      0.0252
    242  CG1       13.4120    5.5090   -0.1570 C.3   241  VAL241      0.0019
    243  CG2       11.1180    6.4050    0.3090 C.3   241  VAL241      0.0019
@<TRIPOS>BOND
     1   200   199    2
     2   199   198    1
     3   203   201    1
     4   197   198    1
     5   198   201    1
     6   101   102    2
     7   101   100    1
     8   201   202    1
     9    88    87    2
    10   226   225    2
    11   100    99    1
    12   100   103    1
    13    94    93    2
    14    93    99   am
    15    93    92    1
    16   242   241    1
    17   225   224    1
    18    63    62    2
    19   103   104    1
    20    87    86    1
    21    87    91   am
    22    89    90    1
    23    89    86    1
    24    92    91    1
    25    92    95    1
    26   237   238    1
    27     5     6    1
    28     5     2    1
    29   243   241    1
    30    66    65    1
    31    66    67    1
    32     8     6   ar
    33     8    10   ar
    34    85    86    1
    35    85    73   am
    36   227   224    1
    37   227   228    1
    38    71    72    1
    39   224   223    1
    40    72    73    1
    41    72    75    1
    42   241   238    1
    43     6     7   ar
    44     1     2    1
    45     2     3    1
    46   229   228   ar
    47   229   231   ar
    48    73    74    2
    49    65    64    1
    50    62    61    1
    51    10    11   ar
    52    64    61    1
    53    67    68    2
    54    95    96    1
    55   238   239    1
    56   196   194   am
    57   228   230   ar
    58   195   194    2
    59   231   232   ar
    60    75    76    1
    61    61    60    1
    62     7     9   ar
    63   194   193    1
    64   192   191    2
    65    11     9   ar
    66    68    69    1
    67    68    70    1
    68     3     4    2
    69    97    96   ar
    70    96    98   ar
    71   191   190    1
    72   239   240    2
    73   230   232   ar
    74   230   233   ar
    75   232   234   ar
    76    76    77   ar
    77    76    78   ar
    78    52    51    2
    79   193   190    1
    80   233   235   ar
    81    77    79   ar
    82   216   215    2
    83   190   189    1
    84   234   236   ar
    85   108   107    2
    86    51    50    1
    87    78    81   ar
    88    78    80   ar
    89   166   168   ar
    90   166   164   ar
    91    81    83   ar
    92    53    50    1
    93    53    54    1
    94   219   221   ar
    95   219   218   ar
    96   235   236   ar
    97   215   214    1
    98   168   167   ar
    99   107   106    1
   100    79    80   ar
   101   221   222   ar
   102   189   187   am
   103   164   163   ar
   104    50    49    1
   105    80    82   ar
   106    54    55   ar
   107    54    56   ar
   108   217   218    1
   109   217   214    1
   110    83    84   ar
   111    16    17    1
   112    16    18    1
   113    16    13    1
   114   218   220   ar
   115   211   210    2
   116    55    57   ar
   117   167   165   ar
   118   110   109    1
   119   214   213    1
   120   109   106    1
   121   187   188    2
   122   187   186    1
   123   106   105    1
   124   163   165   ar
   125   163   162    1
   126   222   220   ar
   127    56    58   ar
   128   212   210   am
   129    82    84   ar
   130   210   209    1
   131    12    13    1
   132    13    14    1
   133    57    59   ar
   134   162   159    1
   135   186   185    1
   136    58    59   ar
   137   140   139    1
   138   140   141    1
   139   207   206    2
   140   208   209    1
   141   208   205    1
   142    48    46   ar
   143   139   138    1
   144   138   137    1
   145   161   160    2
   146    14    19   am
   147    14    15    2
   148   159   160    1
   149   159   158    1
   150    19    20    1
   151   137   134    1
   152   206   205    1
   153   181   180    2
   154   185   180   am
   155    22    21    2
   156   156   155    1
   157   205   204    1
   158    46    47   ar
   159    46    45    1
   160   114   113    2
   161   180   179    1
   162   183   182    1
   163    24    26    1
   164    24    23    1
   165   177   175   am
   166   115   116    1
   167   115   112    1
   168   155   157    1
   169   155   152    1
   170    21    20    1
   171    21    27   am
   172    20    23    1
   173    45    44    1
   174   134   135    1
   175   134   133    1
   176   116   117    1
   177   113   112    1
   178   113   120   am
   179   135   136    2
   180    37    36    1
   181    37    38    1
   182    36    29   am
   183    23    25    1
   184   182   179    1
   185   182   184    1
   186   121   120    1
   187   121   122    1
   188   121   124    1
   189   125   124    1
   190   179   178    1
   191   112   111    1
   192   175   174    1
   193   175   176    2
   194   122   123    2
   195    27    28    1
   196    34    33    2
   197   124   126    1
   198   117   119   ar
   199   117   118   ar
   200   154   153    2
   201    38    39    2
   202    38    40   am
   203    28    29    1
   204    28    31    1
   205   174   173    1
   206   153   152    1
   207   152   151    1
   208   130   129    2
   209    29    30    2
   210    44    41    1
   211    35    33   am
   212   132   131    1
   213   178   171   am
   214    33    32    1
   215    40    41    1
   216   172   171    2
   217   131   128    1
   218   150   149    1
   219   171   170    1
   220    41    42    1
   221   173   170    1
   222    31    32    1
   223   129   128    1
   224   149   148    1
   225   128   127    1
   226   170   169    1
   227    42    43    2
   228   148   147    1
   229   145   144    2
   230   147   146    1
   231   144   143    1
   232   146   143    1
   233   143   142    1
