@<TRIPOS>MOLECULE
tmp/5th7B01.pdb
 157 155 0 0 0
SMALL
GASTEIGER

@<TRIPOS>ATOM
      1  N        -37.9170   -1.1980  127.3910 N.3    51  TYR51      -0.1241
      2  CA       -37.6040   -0.8020  128.7570 C.3    51  TYR51       0.1605
      3  C        -36.8890    0.5370  128.4910 C.2    51  TYR51       0.2264
      4  O        -35.6830    0.5900  128.1890 O.2    51  TYR51      -0.2867
      5  CB       -36.6490   -1.7940  129.4250 C.3    51  TYR51       0.0534
      6  CG       -36.3340   -1.4160  130.8530 C.ar   51  TYR51      -0.0201
      7  CD1      -37.2850   -1.5640  131.8600 C.ar   51  TYR51      -0.0009
      8  CD2      -35.0890   -0.8910  131.2010 C.ar   51  TYR51      -0.0009
      9  CE1      -36.9980   -1.2300  133.1840 C.ar   51  TYR51       0.0417
     10  CE2      -34.7930   -0.5450  132.5230 C.ar   51  TYR51       0.0417
     11  CZ       -35.7560   -0.7120  133.5120 C.ar   51  TYR51       0.1957
     12  OH       -35.4760   -0.4090  134.8250 O.3    51  TYR51      -0.2866
     13  N        -35.6750   -0.1700  148.1560 N.3    74  THR74      -0.1203
     14  CA       -36.8460    0.0700  147.2860 C.3    74  THR74       0.1994
     15  C        -36.5820   -0.3430  145.8260 C.2    74  THR74       0.2618
     16  O        -37.4500   -0.1980  144.9580 O.2    74  THR74      -0.2717
     17  CB       -37.3460    1.5170  147.4120 C.3    74  THR74       0.1784
     18  OG1      -36.3090    2.4010  146.9880 O.3    74  THR74      -0.2211
     19  CG2      -37.7690    1.8690  148.8330 C.3    74  THR74       0.0376
     20  N        -35.4110   -0.8900  145.5580 N.am   75  GLY75      -0.1942
     21  CA       -35.1760   -1.3880  144.2120 C.3    75  GLY75       0.2014
     22  C        -34.5050   -0.3990  143.3070 C.2    75  GLY75       0.2639
     23  O        -34.5000    0.8020  143.5650 O.2    75  GLY75      -0.2714
     24  N        -33.9850   -0.9020  142.2190 N.am   76  CYS76      -0.1953
     25  CA       -33.1780   -0.1030  141.3220 C.3    76  CYS76       0.1843
     26  C        -33.7210   -0.2000  139.9080 C.2    76  CYS76       0.2625
     27  O        -33.9740   -1.2980  139.4630 O.2    76  CYS76      -0.2714
     28  CB       -31.7300   -0.6020  141.3990 C.3    76  CYS76       0.0997
     29  SG       -30.5560    0.3900  140.4350 S.3    76  CYS76      -0.0797
     30  N        -33.7840    0.9370  139.1680 N.am   77  TYR77      -0.1960
     31  CA       -34.2460    0.9780  137.7820 C.3    77  TYR77       0.1771
     32  C        -33.1120    1.0410  136.7610 C.2    77  TYR77       0.2619
     33  O        -33.3790    1.1680  135.5740 O.2    77  TYR77      -0.2715
     34  CB       -35.2210    2.1510  137.5760 C.3    77  TYR77       0.0574
     35  CG       -36.5670    1.9180  138.2130 C.ar   77  TYR77      -0.0198
     36  CD1      -37.5610    1.2040  137.5450 C.ar   77  TYR77      -0.0009
     37  CD2      -36.8410    2.3750  139.5020 C.ar   77  TYR77      -0.0009
     38  CE1      -38.8110    0.9860  138.1250 C.ar   77  TYR77       0.0417
     39  CE2      -38.0880    2.1410  140.1080 C.ar   77  TYR77       0.0417
     40  CZ       -39.0670    1.4520  139.4100 C.ar   77  TYR77       0.1957
     41  OH       -40.2780    1.1920  139.9960 O.3    77  TYR77      -0.2866
     42  N        -31.8630    0.9560  137.2280 N.am   78  MET78      -0.1963
     43  CA       -30.6640    1.0400  136.3780 C.3    78  MET78       0.1736
     44  C        -30.1960   -0.3730  136.0040 C.2    78  MET78       0.2616
     45  O        -29.8600   -1.1710  136.8830 O.2    78  MET78      -0.2715
     46  CB       -29.5670    1.8300  137.0990 C.3    78  MET78       0.0427
     47  CG       -30.0120    3.2120  137.5630 C.3    78  MET78       0.0599
     48  SD       -28.7180    4.0330  138.5420 S.3    78  MET78      -0.1393
     49  CE       -27.6400    4.6030  137.2370 C.3    78  MET78       0.0692
     50  N        -30.3100   -0.6990  134.7080 N.am   79  TYR79      -0.1974
     51  CA       -29.9950   -1.9880  134.1320 C.3    79  TYR79       0.1639
     52  C        -28.7020   -1.9580  133.3260 C.2    79  TYR79       0.2290
     53  O        -28.6070   -1.2600  132.3280 O.2    79  TYR79      -0.2864
     54  CB       -31.1740   -2.4910  133.2720 C.3    79  TYR79       0.0560
     55  CG       -30.8930   -3.8170  132.6040 C.ar   79  TYR79      -0.0198
     56  CD1      -31.0790   -5.0200  133.2860 C.ar   79  TYR79      -0.0009
     57  CD2      -30.4520   -3.8760  131.2820 C.ar   79  TYR79      -0.0009
     58  CE1      -30.8550   -6.2450  132.6620 C.ar   79  TYR79       0.0417
     59  CE2      -30.2130   -5.0920  130.6530 C.ar   79  TYR79       0.0417
     60  CZ       -30.4170   -6.2770  131.3440 C.ar   79  TYR79       0.1957
     61  OH       -30.1700   -7.4740  130.7100 O.3    79  TYR79      -0.2866
     62  N        -43.0270    0.0870  130.0540 N.3   100  GLY100     -0.1210
     63  CA       -41.9980   -0.9420  130.1760 C.3   100  GLY100      0.1956
     64  C        -41.4180   -1.0850  131.5680 C.2   100  GLY100      0.2612
     65  O        -41.2610   -2.2040  132.0480 O.2   100  GLY100     -0.2717
     66  N        -41.1040    0.0430  132.2470 N.am  101  ARG101     -0.1965
     67  CA       -40.5210    0.0390  133.6120 C.3   101  ARG101      0.1729
     68  C        -41.5320   -0.3860  134.7000 C.2   101  ARG101      0.2616
     69  O        -41.1590   -0.5940  135.8490 O.2   101  ARG101     -0.2715
     70  CB       -39.9300    1.4220  133.9490 C.3   101  ARG101      0.0348
     71  CG       -40.9950    2.5350  133.9230 C.3   101  ARG101      0.0492
     72  CD       -40.4170    3.9200  134.1130 C.3   101  ARG101      0.2205
     73  NE       -39.7680    4.0620  135.4190 N.pl3 101  ARG101     -0.0865
     74  CZ       -40.4110    4.3850  136.5310 C.cat 101  ARG101      0.5346
     75  NH1      -41.7250    4.5930  136.5110 N.pl3 101  ARG101      0.1354
     76  NH2      -39.7510    4.4980  137.6750 N.pl3 101  ARG101      0.1354
     77  N        -42.8140   -0.4440  134.3450 N.am  102  LEU102     -0.1963
     78  CA       -43.8900   -0.8120  135.2770 C.3   102  LEU102      0.1728
     79  C        -44.2410   -2.3070  135.1820 C.2   102  LEU102      0.2616
     80  O        -44.9860   -2.8120  136.0170 O.2   102  LEU102     -0.2715
     81  CB       -45.1430    0.0300  135.0080 C.3   102  LEU102      0.0311
     82  CG       -45.0120    1.5390  135.0480 C.3   102  LEU102      0.0022
     83  CD1      -46.3130    2.1970  134.5460 C.3   102  LEU102      0.0001
     84  CD2      -44.7110    2.0240  136.4440 C.3   102  LEU102      0.0001
     85  N        -43.7040   -3.0070  134.1660 N.am  103  ILE103     -0.1963
     86  CA       -43.9760   -4.4490  133.9720 C.3   103  ILE103      0.1727
     87  C        -43.3140   -5.2290  135.0850 C.2   103  ILE103      0.2616
     88  O        -42.0940   -5.1330  135.2550 O.2   103  ILE103     -0.2715
     89  CB       -43.5820   -4.9580  132.5550 C.3   103  ILE103      0.0290
     90  CG1      -44.5420   -4.3400  131.4970 C.3   103  ILE103      0.0022
     91  CG2      -43.6000   -6.5120  132.4940 C.3   103  ILE103      0.0023
     92  CD1      -44.1810   -4.6910  130.0410 C.3   103  ILE103      0.0001
     93  N        -44.1220   -6.0050  135.8400 N.am  104  ASN104     -0.1958
     94  CA       -43.6110   -6.8310  136.9270 C.3   104  ASN104      0.1819
     95  C        -42.7510   -7.9770  136.4510 C.2   104  ASN104      0.2621
     96  O        -42.9050   -8.4470  135.3300 O.2   104  ASN104     -0.2715
     97  CB       -44.7350   -7.3320  137.8490 C.3   104  ASN104      0.1195
     98  CG       -45.3620   -6.2360  138.6760 C.2   104  ASN104      0.2630
     99  OD1      -44.6780   -5.3930  139.2400 O.2   104  ASN104     -0.2716
    100  ND2      -46.6810   -6.2150  138.7530 N.am  104  ASN104     -0.0877
    101  N        -41.8280   -8.4170  137.3260 N.am  105  HIS105     -0.1973
    102  CA       -40.9380   -9.5300  137.0660 C.3   105  HIS105      0.1656
    103  C        -41.6030  -10.8650  137.4390 C.2   105  HIS105      0.2291
    104  O        -42.3610  -10.9420  138.4190 O.2   105  HIS105     -0.2864
    105  CB       -39.6380   -9.3730  137.8900 C.3   105  HIS105      0.0771
    106  CG       -38.7830  -10.5970  137.8260 C.ar  105  HIS105      0.0820
    107  ND1      -38.8780  -11.5880  138.7860 N.ar  105  HIS105     -0.2267
    108  CD2      -37.9150  -11.0010  136.8650 C.ar  105  HIS105      0.1154
    109  CE1      -38.0850  -12.5640  138.3740 C.ar  105  HIS105      0.1986
    110  NE2      -37.4690  -12.2500  137.2390 N.ar  105  HIS105     -0.2212
    111  N        -36.2580  -10.4550  127.4610 N.3   113  THR113     -0.1218
    112  CA       -35.4660   -9.2940  127.0370 C.3   113  THR113      0.1862
    113  C        -34.6940   -9.5760  125.7390 C.2   113  THR113      0.2287
    114  O        -34.3710  -10.7280  125.4420 O.2   113  THR113     -0.2866
    115  CB       -34.5350   -8.8260  128.1630 C.3   113  THR113      0.1770
    116  OG1      -33.4520   -9.7440  128.2690 O.3   113  THR113     -0.2211
    117  CG2      -35.2500   -8.7060  129.5020 C.3   113  THR113      0.0375
    118  N        -33.0130   -1.8480  124.8740 N.3   124  LEU124     -0.1245
    119  CA       -33.4690   -3.0260  125.5770 C.3   124  LEU124      0.1561
    120  C        -34.9720   -3.1130  125.3570 C.2   124  LEU124      0.2260
    121  O        -35.7300   -2.2260  125.7710 O.2   124  LEU124     -0.2867
    122  CB       -33.1500   -2.8980  127.0810 C.3   124  LEU124      0.0270
    123  CG       -33.4970   -4.0900  127.9760 C.3   124  LEU124      0.0019
    124  CD1      -32.6020   -5.2990  127.6720 C.3   124  LEU124      0.0001
    125  CD2      -33.3150   -3.6930  129.4110 C.3   124  LEU124      0.0001
    126  N        -38.6740   -5.6570  125.2710 N.3   126  LEU126     -0.1245
    127  CA       -39.3780   -6.8240  125.7850 C.3   126  LEU126      0.1561
    128  C        -40.1200   -7.4880  124.6280 C.2   126  LEU126      0.2260
    129  O        -40.8380   -6.8210  123.8790 O.2   126  LEU126     -0.2867
    130  CB       -40.3170   -6.4610  126.9490 C.3   126  LEU126      0.0270
    131  CG       -39.6140   -6.1530  128.3030 C.3   126  LEU126      0.0019
    132  CD1      -40.6320   -5.8060  129.3700 C.3   126  LEU126      0.0001
    133  CD2      -38.7800   -7.3460  128.7900 C.3   126  LEU126      0.0001
    134  N        -42.0630   -9.9730  133.0350 N.3   140  TYR140     -0.1241
    135  CA       -40.7980  -10.1810  132.3570 C.3   140  TYR140      0.1605
    136  C        -39.9170  -11.1430  133.0900 C.2   140  TYR140      0.2264
    137  O        -39.9720  -11.2550  134.3170 O.2   140  TYR140     -0.2867
    138  CB       -40.0610   -8.8270  132.0950 C.3   140  TYR140      0.0534
    139  CG       -39.3160   -8.2780  133.2980 C.ar  140  TYR140     -0.0201
    140  CD1      -39.9470   -7.4360  134.2090 C.ar  140  TYR140     -0.0009
    141  CD2      -37.9790   -8.6120  133.5310 C.ar  140  TYR140     -0.0009
    142  CE1      -39.2640   -6.9280  135.3210 C.ar  140  TYR140      0.0417
    143  CE2      -37.3000   -8.1420  134.6560 C.ar  140  TYR140      0.0417
    144  CZ       -37.9440   -7.2990  135.5480 C.ar  140  TYR140      0.1957
    145  OH       -37.2640   -6.8390  136.6580 O.3   140  TYR140     -0.2866
    146  N        -35.5950  -12.0270  132.9480 N.3   142  TYR142     -0.1241
    147  CA       -34.3450  -11.4130  132.4360 C.3   142  TYR142      0.1605
    148  C        -33.7050  -12.1960  131.2850 C.2   142  TYR142      0.2264
    149  O        -32.9530  -11.6200  130.4920 O.2   142  TYR142     -0.2867
    150  CB       -33.2890  -11.2050  133.5250 C.3   142  TYR142      0.0534
    151  CG       -33.6280  -10.1440  134.5380 C.ar  142  TYR142     -0.0201
    152  CD1      -33.3000   -8.8100  134.3160 C.ar  142  TYR142     -0.0009
    153  CD2      -34.2380  -10.4770  135.7430 C.ar  142  TYR142     -0.0009
    154  CE1      -33.6060   -7.8280  135.2530 C.ar  142  TYR142      0.0417
    155  CE2      -34.5360   -9.5070  136.6940 C.ar  142  TYR142      0.0417
    156  CZ       -34.2110   -8.1850  136.4490 C.ar  142  TYR142      0.1957
    157  OH       -34.5410   -7.2270  137.3670 O.3   142  TYR142     -0.2866
@<TRIPOS>BOND
     1   129   128    2
     2   128   127    1
     3   118   119    1
     4   126   127    1
     5   120   119    1
     6   120   121    2
     7   114   113    2
     8   119   122    1
     9   113   112    1
    10   127   130    1
    11   130   131    1
    12   112   111    1
    13   112   115    1
    14   122   123    1
    15     1     2    1
    16   124   123    1
    17   123   125    1
    18   115   116    1
    19   115   117    1
    20     4     3    2
    21   131   133    1
    22   131   132    1
    23     3     2    1
    24     2     5    1
    25     5     6    1
    26    92    90    1
    27    62    63    1
    28    63    64    1
    29   149   148    2
    30    59    57   ar
    31    59    60   ar
    32    61    60    1
    33     6     8   ar
    34     6     7   ar
    35     8    10   ar
    36    57    55   ar
    37   148   147    1
    38    60    58   ar
    39    90    89    1
    40    64    65    2
    41    64    66   am
    42     7     9   ar
    43   138   135    1
    44   138   139    1
    45    66    67    1
    46    53    52    2
    47   135   134    1
    48   135   136    1
    49   147   146    1
    50   147   150    1
    51    91    89    1
    52    10    11   ar
    53    89    86    1
    54    55    54    1
    55    55    56   ar
    56    58    56   ar
    57   136   137    2
    58     9    11   ar
    59    54    51    1
    60   139   141   ar
    61   139   140   ar
    62    52    51    1
    63    11    12    1
    64   150   151    1
    65   141   143   ar
    66    67    70    1
    67    67    68    1
    68    71    70    1
    69    71    72    1
    70    86    85    1
    71    86    87    1
    72    72    73    1
    73    51    50    1
    74    85    79   am
    75   140   142   ar
    76   152   151   ar
    77   152   154   ar
    78    77    68   am
    79    77    78    1
    80   151   153   ar
    81    83    82    1
    82   143   144   ar
    83    68    69    2
    84    50    44   am
    85    81    82    1
    86    81    78    1
    87    82    84    1
    88    87    88    2
    89    87    93   am
    90    79    78    1
    91    79    80    2
    92   154   156   ar
    93   142   144   ar
    94    96    95    2
    95    73    74    2
    96   144   145    1
    97    33    32    2
    98   153   155   ar
    99    93    94    1
   100    44    43    1
   101    44    45    2
   102    43    46    1
   103    43    42    1
   104   156   155   ar
   105   156   157    1
   106    95    94    1
   107    95   101   am
   108    75    74    1
   109    74    76    1
   110    32    42   am
   111    32    31    1
   112   108   110   ar
   113   108   106   ar
   114    94    97    1
   115   102   101    1
   116   102   103    1
   117   102   105    1
   118    46    47    1
   119    49    48    1
   120   110   109   ar
   121   103   104    2
   122    36    38   ar
   123    36    35   ar
   124    47    48    1
   125    34    31    1
   126    34    35    1
   127    31    30    1
   128   106   105    1
   129   106   107   ar
   130    97    98    1
   131    38    40   ar
   132    35    37   ar
   133   109   107   ar
   134    98   100   am
   135    98    99    2
   136    30    26   am
   137    40    41    1
   138    40    39   ar
   139    27    26    2
   140    37    39   ar
   141    26    25    1
   142    29    28    1
   143    25    28    1
   144    25    24    1
   145    24    22   am
   146    22    23    2
   147    22    21    1
   148    21    20    1
   149    16    15    2
   150    20    15   am
   151    15    14    1
   152    18    17    1
   153    14    17    1
   154    14    13    1
   155    17    19    1
