@<TRIPOS>MOLECULE
tmp/5thaA00.pdb
 115 107 0 0 0
SMALL
GASTEIGER

@<TRIPOS>ATOM
      1  N         30.5200   58.6790   28.6380 N.3   351  TYR351     -0.1241
      2  CA        30.8590   59.9250   29.3500 C.3   351  TYR351      0.1605
      3  C         30.4230   59.9700   30.7680 C.2   351  TYR351      0.2264
      4  O         31.1000   60.5910   31.6060 O.2   351  TYR351     -0.2867
      5  CB        30.2080   61.1530   28.6840 C.3   351  TYR351      0.0534
      6  CG        30.8080   61.5110   27.3400 C.ar  351  TYR351     -0.0201
      7  CD1       31.9720   62.2620   27.2600 C.ar  351  TYR351     -0.0009
      8  CD2       30.1680   61.1640   26.1570 C.ar  351  TYR351     -0.0009
      9  CE1       32.5360   62.6070   26.0470 C.ar  351  TYR351      0.0417
     10  CE2       30.7260   61.5010   24.9280 C.ar  351  TYR351      0.0417
     11  CZ        31.9160   62.2400   24.8930 C.ar  351  TYR351      0.1957
     12  OH        32.4870   62.5910   23.6740 O.3   351  TYR351     -0.2866
     13  N         28.8000   69.7250   31.4920 N.3   442  TYR442     -0.1227
     14  CA        29.6340   68.7750   32.2010 C.3   442  TYR442      0.1736
     15  C         29.0150   68.1100   33.4380 C.2   442  TYR442      0.2596
     16  O         29.4400   67.0130   33.8060 O.2   442  TYR442     -0.2718
     17  CB        30.9650   69.3940   32.5420 C.3   442  TYR442      0.0548
     18  CG        31.8380   69.5330   31.2840 C.ar  442  TYR442     -0.0200
     19  CD1       32.3850   68.4130   30.6580 C.ar  442  TYR442     -0.0009
     20  CD2       32.0990   70.7780   30.7340 C.ar  442  TYR442     -0.0009
     21  CE1       33.1820   68.5390   29.5020 C.ar  442  TYR442      0.0417
     22  CE2       32.8880   70.9270   29.6010 C.ar  442  TYR442      0.0417
     23  CZ        33.4200   69.8290   28.9710 C.ar  442  TYR442      0.1957
     24  OH        34.1980   70.0220   27.8140 O.3   442  TYR442     -0.2866
     25  N         28.0570   68.7540   34.0690 N.am  443  THR443     -0.1953
     26  CA        27.4820   68.2710   35.3020 C.3   443  THR443      0.1897
     27  C         26.0540   68.6650   35.4270 C.2   443  THR443      0.2313
     28  O         25.6780   69.7960   35.0410 O.2   443  THR443     -0.2863
     29  CB        28.2180   68.8350   36.5380 C.3   443  THR443      0.1794
     30  OG1       29.6220   68.7130   36.3260 O.3   443  THR443     -0.2208
     31  CG2       27.8370   68.0330   37.7960 C.3   443  THR443      0.0378
     32  N         27.9390   74.3160   32.5460 N.3   463  GLY463     -0.1210
     33  CA        28.5510   74.2250   31.1870 C.3   463  GLY463      0.1956
     34  C         30.0120   74.5980   31.1130 C.2   463  GLY463      0.2612
     35  O         30.5330   75.2740   32.0030 O.2   463  GLY463     -0.2717
     36  N         30.7070   74.1830   30.0360 N.am  464  GLY464     -0.1956
     37  CA        32.1340   74.4200   29.9760 C.3   464  GLY464      0.1869
     38  C         32.5380   75.8860   29.8890 C.2   464  GLY464      0.2309
     39  O         33.6740   76.2430   30.2180 O.2   464  GLY464     -0.2863
     40  N         33.3580   74.9510   36.7320 N.3   501  THR501     -0.1203
     41  CA        33.5140   73.7620   35.9590 C.3   501  THR501      0.1994
     42  C         32.8950   72.5110   36.5760 C.2   501  THR501      0.2617
     43  O         32.8770   71.4300   35.9200 O.2   501  THR501     -0.2717
     44  CB        35.0200   73.5490   35.6790 C.3   501  THR501      0.1784
     45  OG1       35.7490   73.4550   36.9130 O.3   501  THR501     -0.2211
     46  CG2       35.5600   74.6860   34.8500 C.3   501  THR501      0.0376
     47  N         32.4240   72.6060   37.8300 N.am  502  GLU502     -0.1979
     48  CA        31.8280   71.4620   38.5150 C.3   502  GLU502      0.1602
     49  C         30.9030   71.9740   39.5950 C.2   502  GLU502      0.2287
     50  O         31.1690   73.0220   40.2020 O.2   502  GLU502     -0.2864
     51  CB        32.9340   70.5350   39.1070 C.3   502  GLU502      0.0415
     52  CG        32.4530   69.3990   40.0330 C.3   502  GLU502      0.1163
     53  CD        31.6900   68.2930   39.3400 C.2   502  GLU502      0.3649
     54  OE1       31.1310   68.5610   38.3130 O.co2 502  GLU502     -0.2457
     55  OE2       31.6630   67.1260   39.8240 O.co2 502  GLU502     -0.2457
     56  N         41.9680   73.1170   36.3640 N.3   541  LEU541     -0.1245
     57  CA        40.4920   73.0110   36.2560 C.3   541  LEU541      0.1561
     58  C         39.9490   71.8260   37.0790 C.2   541  LEU541      0.2260
     59  O         40.5110   70.7330   37.0210 O.2   541  LEU541     -0.2867
     60  CB        40.1350   72.8580   34.7890 C.3   541  LEU541      0.0270
     61  CG        38.6580   72.7310   34.4110 C.3   541  LEU541      0.0019
     62  CD1       38.4240   73.3210   33.0390 C.3   541  LEU541      0.0001
     63  CD2       38.1870   71.2880   34.4300 C.3   541  LEU541      0.0001
     64  N         37.4870   68.9240   37.7440 N.3   543  ASN543     -0.1240
     65  CA        36.6470   68.0470   36.9590 C.3   543  ASN543      0.1653
     66  C         35.5420   67.3380   37.7470 C.2   543  ASN543      0.2266
     67  O         34.5040   66.9440   37.1570 O.2   543  ASN543     -0.2867
     68  CB        37.4840   66.9430   36.3180 C.3   543  ASN543      0.1155
     69  CG        38.4750   67.4580   35.3180 C.2   543  ASN543      0.2627
     70  OD1       38.1080   68.0780   34.3200 O.2   543  ASN543     -0.2716
     71  ND2       39.7410   67.1730   35.5520 N.am  543  ASN543     -0.0877
     72  N         42.7030   68.5820   36.6800 N.3   566  ASN566     -0.1240
     73  CA        43.6140   68.2200   35.5850 C.3   566  ASN566      0.1653
     74  C         44.9960   67.7500   36.0280 C.2   566  ASN566      0.2266
     75  O         45.6850   67.1280   35.2620 O.2   566  ASN566     -0.2867
     76  CB        43.6790   69.3230   34.5200 C.3   566  ASN566      0.1155
     77  CG        42.4470   69.3060   33.5800 C.2   566  ASN566      0.2627
     78  OD1       41.6070   68.3970   33.6120 O.2   566  ASN566     -0.2716
     79  ND2       42.3800   70.2750   32.7020 N.am  566  ASN566     -0.0877
     80  N         45.1650   63.3000   34.3910 N.3   602  LYS602     -0.1245
     81  CA        43.9860   63.9640   34.9510 C.3   602  LYS602      0.1561
     82  C         42.9200   63.0290   35.5420 C.2   602  LYS602      0.2260
     83  O         42.7830   61.8690   35.1350 O.2   602  LYS602     -0.2867
     84  CB        43.3610   64.9230   33.9190 C.3   602  LYS602      0.0271
     85  CG        42.7530   64.2860   32.7120 C.3   602  LYS602      0.0035
     86  CD        41.9550   65.3170   31.9310 C.3   602  LYS602      0.0206
     87  CE        40.8290   65.8640   32.7810 C.3   602  LYS602      0.1093
     88  NZ        39.9970   66.8220   32.0160 N.3   602  LYS602     -0.1314
     89  N         39.1410   62.4750   36.0800 N.3   604  THR604     -0.1218
     90  CA        37.8060   62.8530   35.5280 C.3   604  THR604      0.1862
     91  C         36.6090   62.6210   36.4610 C.2   604  THR604      0.2287
     92  O         35.5180   63.2210   36.2490 O.2   604  THR604     -0.2866
     93  CB        37.5250   62.0660   34.2660 C.3   604  THR604      0.1770
     94  OG1       37.6170   60.6720   34.5610 O.3   604  THR604     -0.2211
     95  CG2       38.5300   62.4260   33.1860 C.3   604  THR604      0.0375
     96  N         42.6270   59.6650   33.2500 N.3   621  TYR621     -0.1241
     97  CA        43.1910   59.6450   31.9220 C.3   621  TYR621      0.1605
     98  C         44.4450   58.7230   31.7820 C.2   621  TYR621      0.2264
     99  O         44.8990   58.4610   30.6500 O.2   621  TYR621     -0.2867
    100  CB        43.5280   61.0710   31.4760 C.3   621  TYR621      0.0534
    101  CG        42.4910   61.7110   30.5720 C.ar  621  TYR621     -0.0201
    102  CD1       41.1170   61.4610   30.7160 C.ar  621  TYR621     -0.0009
    103  CD2       42.8900   62.5580   29.5330 C.ar  621  TYR621     -0.0009
    104  CE1       40.1980   62.0440   29.8590 C.ar  621  TYR621      0.0417
    105  CE2       41.9740   63.1310   28.6910 C.ar  621  TYR621      0.0417
    106  CZ        40.6310   62.8570   28.8530 C.ar  621  TYR621      0.1957
    107  OH        39.7550   63.4280   27.9820 O.3   621  TYR621     -0.2866
    108  N         36.4340   58.2340   31.9050 N.3   647  LEU647     -0.1245
    109  CA        35.6240   59.4130   32.0360 C.3   647  LEU647      0.1561
    110  C         34.6240   59.3930   33.1950 C.2   647  LEU647      0.2260
    111  O         34.1370   60.4550   33.5780 O.2   647  LEU647     -0.2867
    112  CB        34.8470   59.5850   30.7550 C.3   647  LEU647      0.0270
    113  CG        35.7380   59.5800   29.4690 C.3   647  LEU647      0.0019
    114  CD1       34.8640   59.5330   28.2240 C.3   647  LEU647      0.0001
    115  CD2       36.6330   60.8140   29.4530 C.3   647  LEU647      0.0001
@<TRIPOS>BOND
     1    12    11    1
     2    11    10   ar
     3    11     9   ar
     4    10     8   ar
     5     9     7   ar
     6     8     6   ar
     7     7     6   ar
     8     6     5    1
     9    24    23    1
    10   107   106    1
    11   114   113    1
    12     1     2    1
    13     5     2    1
    14   105   106   ar
    15   105   103   ar
    16   106   104   ar
    17    23    21   ar
    18    23    22   ar
    19     2     3    1
    20   115   113    1
    21   113   112    1
    22    21    19   ar
    23   103   101   ar
    24    22    20   ar
    25   104   102   ar
    26    38    37    1
    27    38    39    2
    28    37    36    1
    29    36    34   am
    30   101   102   ar
    31   101   100    1
    32    99    98    2
    33    19    18   ar
    34    20    18   ar
    35   112   109    1
    36     3     4    2
    37    34    33    1
    38    34    35    2
    39    33    32    1
    40    18    17    1
    41   100    97    1
    42    13    14    1
    43    98    97    1
    44   108   109    1
    45    97    96    1
    46    86    85    1
    47    86    87    1
    48    88    87    1
    49   109   110    1
    50    14    17    1
    51    14    15    1
    52    79    77   am
    53    85    84    1
    54    62    61    1
    55    95    93    1
    56   110   111    2
    57    15    16    2
    58    15    25   am
    59    77    78    2
    60    77    76    1
    61    84    81    1
    62    25    26    1
    63    93    94    1
    64    93    90    1
    65    70    69    2
    66    80    81    1
    67    61    63    1
    68    61    60    1
    69    76    73    1
    70    60    57    1
    71    46    44    1
    72    81    82    1
    73    28    27    2
    74    83    82    2
    75    75    74    2
    76    26    27    1
    77    26    29    1
    78    69    71   am
    79    69    68    1
    80    90    89    1
    81    90    91    1
    82    73    74    1
    83    73    72    1
    84    44    41    1
    85    44    45    1
    86    43    42    2
    87    41    42    1
    88    41    40    1
    89    92    91    2
    90    57    56    1
    91    57    58    1
    92    68    65    1
    93    30    29    1
    94    29    31    1
    95    42    47   am
    96    65    64    1
    97    65    66    1
    98    59    58    2
    99    67    66    2
   100    47    48    1
   101    54    53   ar
   102    48    51    1
   103    48    49    1
   104    51    52    1
   105    53    55   ar
   106    53    52    1
   107    49    50    2
