@<TRIPOS>MOLECULE
tmp/5thhA00.pdb
 105 97 0 0 0
SMALL
GASTEIGER

@<TRIPOS>ATOM
      1  N         -0.7550   32.7090  -22.7540 N.3    36  TYR36      -0.1241
      2  CA        -0.6450   31.5860  -21.8120 C.3    36  TYR36       0.1605
      3  C         -1.9460   30.8370  -21.6340 C.2    36  TYR36       0.2264
      4  O         -3.0170   31.3550  -21.9720 O.2    36  TYR36      -0.2867
      5  CB        -0.1360   32.0650  -20.4500 C.3    36  TYR36       0.0534
      6  CG        -1.1680   32.4830  -19.4240 C.ar   36  TYR36      -0.0201
      7  CD1       -1.7230   33.7500  -19.4710 C.ar   36  TYR36      -0.0009
      8  CD2       -1.5420   31.6310  -18.3640 C.ar   36  TYR36      -0.0009
      9  CE1       -2.6340   34.1800  -18.5220 C.ar   36  TYR36       0.0417
     10  CE2       -2.4850   32.0560  -17.3830 C.ar   36  TYR36       0.0417
     11  CZ        -3.0150   33.3250  -17.4810 C.ar   36  TYR36       0.1957
     12  OH        -3.9020   33.7850  -16.5480 O.3    36  TYR36      -0.2866
     13  N         -3.7040   28.3580  -18.4210 N.3    38  GLY38      -0.1210
     14  CA        -3.4930   27.8540  -17.0590 C.3    38  GLY38       0.1956
     15  C         -4.3640   26.6320  -16.7970 C.2    38  GLY38       0.2613
     16  O         -5.4660   26.5220  -17.3620 O.2    38  GLY38      -0.2717
     17  N         -3.8970   25.7550  -15.9090 N.am   39  THR39      -0.1938
     18  CA        -4.6420   24.5940  -15.4760 C.3    39  THR39       0.2028
     19  C         -4.3820   24.4120  -13.9760 C.2    39  THR39       0.2642
     20  O         -3.2390   24.4330  -13.5140 O.2    39  THR39      -0.2714
     21  CB        -4.2760   23.2800  -16.2940 C.3    39  THR39       0.1808
     22  OG1       -5.1910   22.2390  -15.9460 O.3    39  THR39      -0.2208
     23  CG2       -2.8340   22.7840  -16.0310 C.3    39  THR39       0.0379
     24  N         -5.4590   24.2880  -13.1860 N.am   40  ALA40      -0.1977
     25  CA        -5.2710   24.0850  -11.7750 C.3    40  ALA40       0.1597
     26  C         -4.8560   22.6210  -11.5960 C.2    40  ALA40       0.2287
     27  O         -5.3590   21.7320  -12.2750 O.2    40  ALA40      -0.2864
     28  CB        -6.5780   24.4280  -10.9710 C.3    40  ALA40       0.0319
     29  N          0.7990   27.6620  -17.3310 N.3    69  LEU69      -0.1245
     30  CA         0.7600   27.8910  -15.8760 C.3    69  LEU69       0.1561
     31  C          0.1800   26.6710  -15.1680 C.2    69  LEU69       0.2260
     32  O         -0.9370   26.2260  -15.4740 O.2    69  LEU69      -0.2867
     33  CB        -0.0590   29.1350  -15.5110 C.3    69  LEU69       0.0270
     34  CG        -0.1860   29.4100  -14.0140 C.3    69  LEU69       0.0019
     35  CD1        1.1340   29.8300  -13.3630 C.3    69  LEU69       0.0001
     36  CD2       -1.2250   30.4730  -13.7720 C.3    69  LEU69       0.0001
     37  N         -1.2600   25.9970  -12.0310 N.3    71  ALA71      -0.1245
     38  CA        -1.8140   26.8690  -10.9920 C.3    71  ALA71       0.1562
     39  C         -2.0660   26.0960   -9.7340 C.2    71  ALA71       0.2260
     40  O         -3.1870   25.6860   -9.4970 O.2    71  ALA71      -0.2867
     41  CB        -3.1320   27.5300  -11.5250 C.3    71  ALA71       0.0290
     42  N         -4.1540   28.0250   -7.0850 N.3    74  HIS74      -0.1241
     43  CA        -5.5560   28.0050   -7.5280 C.3    74  HIS74       0.1621
     44  C         -6.2320   26.6620   -7.1820 C.2    74  HIS74       0.2264
     45  O         -7.3970   26.6570   -6.7220 O.2    74  HIS74      -0.2867
     46  CB        -5.6660   28.2970   -9.0360 C.3    74  HIS74       0.0745
     47  CG        -5.6940   29.7610   -9.3570 C.ar   74  HIS74       0.0817
     48  ND1       -4.5440   30.4970   -9.6010 N.ar   74  HIS74      -0.2268
     49  CD2       -6.7240   30.6470   -9.4040 C.ar   74  HIS74       0.1154
     50  CE1       -4.8770   31.7550   -9.8530 C.ar   74  HIS74       0.1986
     51  NE2       -6.1920   31.8830   -9.7030 N.ar   74  HIS74      -0.2212
     52  N        -16.6940   28.5010  -12.7330 N.3   149  VAL149     -0.1245
     53  CA       -15.3340   27.9880  -12.6650 C.3   149  VAL149      0.1561
     54  C        -14.9900   27.3520  -11.2970 C.2   149  VAL149      0.2260
     55  O        -14.5060   26.2020  -11.2250 O.2   149  VAL149     -0.2867
     56  CB       -14.3230   29.1140  -13.0010 C.3   149  VAL149      0.0252
     57  CG1      -12.8780   28.6600  -12.7320 C.3   149  VAL149      0.0019
     58  CG2      -14.4930   29.5590  -14.5180 C.3   149  VAL149      0.0019
     59  N        -10.0430   33.6850   -5.9000 N.3   163  TYR163     -0.1241
     60  CA        -9.6170   32.9500   -7.1220 C.3   163  TYR163      0.1605
     61  C         -9.6080   33.8050   -8.4280 C.2   163  TYR163      0.2264
     62  O         -8.5800   33.8450   -9.1570 O.2   163  TYR163     -0.2867
     63  CB       -10.5230   31.7120   -7.2420 C.3   163  TYR163      0.0534
     64  CG       -10.2210   30.6970   -8.3420 C.ar  163  TYR163     -0.0201
     65  CD1      -10.4900   31.0020   -9.6870 C.ar  163  TYR163     -0.0009
     66  CD2       -9.7940   29.3910   -8.0370 C.ar  163  TYR163     -0.0009
     67  CE1      -10.2450   30.0510  -10.7260 C.ar  163  TYR163      0.0417
     68  CE2       -9.5700   28.4200   -9.0640 C.ar  163  TYR163      0.0417
     69  CZ        -9.8020   28.7960  -10.4180 C.ar  163  TYR163      0.1957
     70  OH        -9.6320   27.9250  -11.4700 O.3   163  TYR163     -0.2866
     71  N         -6.3720   34.9920  -10.8900 N.3   167  GLN167     -0.1245
     72  CA        -6.2820   34.6670  -12.3230 C.3   167  GLN167      0.1566
     73  C         -6.1120   35.9290  -13.1980 C.2   167  GLN167      0.2260
     74  O         -5.3880   35.9050  -14.2040 O.2   167  GLN167     -0.2867
     75  CB        -7.5510   33.8670  -12.7600 C.3   167  GLN167      0.0367
     76  CG        -7.5080   33.5250  -14.2580 C.3   167  GLN167      0.0905
     77  CD        -8.3880   32.3420  -14.6900 C.2   167  GLN167      0.2608
     78  OE1       -8.5420   32.0800  -15.9100 O.2   167  GLN167     -0.2717
     79  NE2       -8.8990   31.5960  -13.7330 N.am  167  GLN167     -0.0878
     80  N         -2.5300   37.1700  -12.8820 N.3   170  ASP170     -0.1239
     81  CA        -1.6260   36.2610  -13.6020 C.3   170  ASP170      0.1674
     82  C         -1.3120   36.7360  -15.0240 C.2   170  ASP170      0.2266
     83  O         -0.1930   36.5410  -15.5270 O.2   170  ASP170     -0.2867
     84  CB        -2.2200   34.8420  -13.6530 C.3   170  ASP170      0.1410
     85  CG        -2.1780   34.1260  -12.3190 C.2   170  ASP170      0.3668
     86  OD1       -1.3670   34.5070  -11.4060 O.co2 170  ASP170     -0.2456
     87  OD2       -2.9640   33.1390  -12.1980 O.co2 170  ASP170     -0.2456
     88  N         -4.6710   35.4880  -23.1480 N.3   179  GLN179     -0.1245
     89  CA        -4.8940   34.2560  -22.4120 C.3   179  GLN179      0.1566
     90  C         -5.8840   33.3950  -23.2120 C.2   179  GLN179      0.2260
     91  O         -6.8660   33.9120  -23.7780 O.2   179  GLN179     -0.2867
     92  CB        -5.4460   34.5370  -20.9880 C.3   179  GLN179      0.0367
     93  CG        -5.7280   33.2510  -20.1870 C.3   179  GLN179      0.0905
     94  CD        -6.2290   33.5040  -18.7200 C.2   179  GLN179      0.2608
     95  OE1       -6.3760   34.6540  -18.2410 O.2   179  GLN179     -0.2717
     96  NE2       -6.4770   32.4150  -18.0170 N.am  179  GLN179     -0.0878
     97  N        -14.4470   29.9540  -18.9590 N.3   185  GLN185     -0.1245
     98  CA       -13.6690   31.0150  -18.3120 C.3   185  GLN185      0.1566
     99  C        -14.1880   32.4440  -18.6110 C.2   185  GLN185      0.2260
    100  O        -13.6120   33.4190  -18.1090 O.2   185  GLN185     -0.2867
    101  CB       -12.1800   30.9470  -18.7340 C.3   185  GLN185      0.0367
    102  CG       -11.4830   29.5580  -18.5240 C.3   185  GLN185      0.0905
    103  CD       -11.5400   29.0710  -17.0700 C.2   185  GLN185      0.2608
    104  OE1      -12.1220   28.0320  -16.7670 O.2   185  GLN185     -0.2717
    105  NE2      -10.8870   29.7990  -16.1860 N.am  185  GLN185     -0.0878
@<TRIPOS>BOND
     1    91    90    2
     2    90    89    1
     3    88    89    1
     4     1     2    1
     5    89    92    1
     6     4     3    2
     7     2     3    1
     8     2     5    1
     9    92    93    1
    10     5     6    1
    11    93    94    1
    12     7     6   ar
    13     7     9   ar
    14     6     8   ar
    15    97    98    1
    16   101   102    1
    17   101    98    1
    18    94    95    2
    19    94    96   am
    20    99    98    1
    21    99   100    2
    22   102   103    1
    23     9    11   ar
    24    13    14    1
    25     8    10   ar
    26    11    10   ar
    27    11    12    1
    28    16    15    2
    29    29    30    1
    30   103   104    2
    31   103   105   am
    32    14    15    1
    33    15    17   am
    34    21    23    1
    35    21    22    1
    36    21    18    1
    37    78    77    2
    38    17    18    1
    39    30    33    1
    40    30    31    1
    41    83    82    2
    42    33    34    1
    43    18    19    1
    44    32    31    2
    45    82    81    1
    46    77    76    1
    47    77    79   am
    48    58    56    1
    49    76    75    1
    50    74    73    2
    51    34    36    1
    52    34    35    1
    53    19    20    2
    54    19    24   am
    55    84    81    1
    56    84    85    1
    57    81    80    1
    58    73    72    1
    59    24    25    1
    60    56    57    1
    61    56    53    1
    62    75    72    1
    63    52    53    1
    64    53    54    1
    65    72    71    1
    66    85    87   ar
    67    85    86   ar
    68    27    26    2
    69    37    38    1
    70    25    26    1
    71    25    28    1
    72    41    38    1
    73    70    69    1
    74    54    55    2
    75    38    39    1
    76    67    69   ar
    77    67    65   ar
    78    69    68   ar
    79    50    51   ar
    80    50    48   ar
    81    39    40    2
    82    51    49   ar
    83    65    64   ar
    84    48    47   ar
    85    49    47   ar
    86    47    46    1
    87    62    61    2
    88    68    66   ar
    89    46    43    1
    90    61    60    1
    91    64    66   ar
    92    64    63    1
    93    43    44    1
    94    43    42    1
    95    63    60    1
    96    44    45    2
    97    60    59    1
