@<TRIPOS>MOLECULE
tmp/5thjA00.pdb
 124 123 0 0 0
SMALL
GASTEIGER

@<TRIPOS>ATOM
      1  N         -0.8680   -2.0300    6.3840 N.3    61  HIS61      -0.1241
      2  CA        -0.9260   -2.8490    7.5680 C.3    61  HIS61       0.1621
      3  C         -2.3540   -3.2960    7.8110 C.2    61  HIS61       0.2264
      4  O         -2.5460   -4.2620    8.5640 O.2    61  HIS61      -0.2867
      5  CB        -0.2970   -2.2890    8.8050 C.3    61  HIS61       0.0745
      6  CG        -0.8490   -0.9930    9.2690 C.ar   61  HIS61       0.0817
      7  ND1       -0.3810    0.2450    8.8530 N.ar   61  HIS61      -0.2268
      8  CD2       -1.7760   -0.7340   10.2210 C.ar   61  HIS61       0.1154
      9  CE1       -1.0210    1.1840    9.5060 C.ar   61  HIS61       0.1986
     10  NE2       -1.8520    0.6130   10.3430 N.ar   61  HIS61      -0.2212
     11  N        -12.4990    6.2750   11.2560 N.3    89  GLN89      -0.1245
     12  CA       -12.2390    5.1160   10.3980 C.3    89  GLN89       0.1566
     13  C        -12.5100    3.8550   11.1650 C.2    89  GLN89       0.2260
     14  O        -12.5080    3.9030   12.4360 O.2    89  GLN89      -0.2867
     15  CB       -10.8320    5.1230    9.7950 C.3    89  GLN89       0.0367
     16  CG        -9.6880    5.2070   10.7590 C.3    89  GLN89       0.0905
     17  CD        -9.0840    3.8800   11.1480 C.2    89  GLN89       0.2608
     18  OE1       -9.6900    2.8280   11.0570 O.2    89  GLN89      -0.2717
     19  NE2       -7.8490    3.9530   11.6050 N.am   89  GLN89      -0.0878
     20  N        -11.2860   -0.4370   10.8660 N.3    91  HIS91      -0.1241
     21  CA       -10.4200   -1.4350   10.3010 C.3    91  HIS91       0.1621
     22  C        -10.4620   -2.6880   11.1150 C.2    91  HIS91       0.2264
     23  O        -11.1350   -2.7630   12.1360 O.2    91  HIS91      -0.2867
     24  CB        -8.9950   -0.9070   10.1790 C.3    91  HIS91       0.0745
     25  CG        -8.4130   -0.6270   11.5030 C.ar   91  HIS91       0.0817
     26  ND1       -8.5600    0.5730   12.1370 N.ar   91  HIS91      -0.2268
     27  CD2       -7.7880   -1.4500   12.3710 C.ar   91  HIS91       0.1154
     28  CE1       -8.1100    0.4600   13.3720 C.ar   91  HIS91       0.1986
     29  NE2       -7.5730   -0.7410   13.5320 N.ar   91  HIS91      -0.2212
     30  N         -8.0650   -6.2920   12.4830 N.3    93  HIS93      -0.1241
     31  CA        -6.8800   -7.1010   12.6650 C.3    93  HIS93       0.1621
     32  C         -7.3010   -8.5770   12.5090 C.2    93  HIS93       0.2264
     33  O         -8.3380   -8.9750   13.0430 O.2    93  HIS93      -0.2867
     34  CB        -6.2280   -6.8670   14.0250 C.3    93  HIS93       0.0745
     35  CG        -5.9040   -5.4230   14.3140 C.ar   93  HIS93       0.0817
     36  ND1       -4.6420   -4.8830   14.1650 N.ar   93  HIS93      -0.2268
     37  CD2       -6.7070   -4.4070   14.6450 C.ar   93  HIS93       0.1154
     38  CE1       -4.7000   -3.5890   14.4890 C.ar   93  HIS93       0.1986
     39  NE2       -5.9580   -3.2750   14.7470 N.ar   93  HIS93      -0.2212
     40  N        -11.9950   -2.6200   14.9210 N.3   116  HIS116     -0.1241
     41  CA       -11.7590   -1.3430   15.6350 C.3   116  HIS116      0.1621
     42  C        -12.4370   -0.2440   14.9500 C.2   116  HIS116      0.2264
     43  O        -12.0940    0.1160   13.8300 O.2   116  HIS116     -0.2867
     44  CB       -10.2600   -1.0740   15.6670 C.3   116  HIS116      0.0745
     45  CG        -9.5580   -2.0330   16.5760 C.ar  116  HIS116      0.0817
     46  ND1       -8.1650   -2.2120   16.5730 N.ar  116  HIS116     -0.2268
     47  CD2      -10.0410   -2.8820   17.4940 C.ar  116  HIS116      0.1154
     48  CE1       -7.8670   -3.1200   17.4710 C.ar  116  HIS116      0.1986
     49  NE2       -8.9610   -3.5280   18.0230 N.ar  116  HIS116     -0.2212
     50  N        -12.7260    3.5590   15.2840 N.3   118  VAL118     -0.1245
     51  CA       -11.8350    4.6050   15.8760 C.3   118  VAL118      0.1561
     52  C        -12.5340    5.9340   15.9100 C.2   118  VAL118      0.2260
     53  O        -12.9360    6.4440   14.8580 O.2   118  VAL118     -0.2867
     54  CB       -10.5150    4.7040   15.0990 C.3   118  VAL118      0.0252
     55  CG1       -9.5540    5.6960   15.6690 C.3   118  VAL118      0.0019
     56  CG2       -9.8840    3.3320   14.8970 C.3   118  VAL118      0.0019
     57  N         -8.2700   14.9460   14.7040 N.3   127  PHE127     -0.1241
     58  CA        -7.5970   13.6650   15.0890 C.3   127  PHE127      0.1605
     59  C         -6.1820   13.8610   15.4830 C.2   127  PHE127      0.2264
     60  O         -5.6970   13.2720   16.4760 O.2   127  PHE127     -0.2867
     61  CB        -7.7630   12.6290   13.9680 C.3   127  PHE127      0.0534
     62  CG        -7.1150   11.3480   14.2300 C.ar  127  PHE127     -0.0203
     63  CD1       -7.6910   10.3620   14.9740 C.ar  127  PHE127     -0.0042
     64  CD2       -5.7680   11.1810   13.9210 C.ar  127  PHE127     -0.0042
     65  CE1       -7.0760    9.1630   15.2030 C.ar  127  PHE127     -0.0003
     66  CE2       -5.0910    9.9940   14.2040 C.ar  127  PHE127     -0.0003
     67  CZ        -5.7190    8.9870   14.9090 C.ar  127  PHE127     -0.0000
     68  N        -11.8890    3.7760   21.1570 N.3   139  VAL139     -0.1245
     69  CA       -11.9600    2.7190   20.1580 C.3   139  VAL139      0.1561
     70  C        -12.9530    1.7050   20.5890 C.2   139  VAL139      0.2260
     71  O        -12.8090    1.1580   21.7390 O.2   139  VAL139     -0.2867
     72  CB       -10.6050    2.0630   19.8260 C.3   139  VAL139      0.0252
     73  CG1      -10.7480    1.0370   18.6780 C.3   139  VAL139      0.0019
     74  CG2       -9.6220    3.1540   19.4150 C.3   139  VAL139      0.0019
     75  N         -3.0500    2.9890   21.2210 N.3   194  LEU194     -0.1231
     76  CA        -3.0320    2.4480   19.8960 C.3   194  LEU194      0.1693
     77  C         -2.2960    1.1320   19.9590 C.2   194  LEU194      0.2593
     78  O         -1.2620    0.9550   20.6120 O.2   194  LEU194     -0.2718
     79  CB        -2.3050    3.3780   18.8690 C.3   194  LEU194      0.0284
     80  CG        -2.8400    4.7930   18.7640 C.3   194  LEU194      0.0019
     81  CD1       -2.0550    5.5930   17.6740 C.3   194  LEU194      0.0001
     82  CD2       -4.3160    4.7760   18.4390 C.3   194  LEU194      0.0001
     83  N         -2.7060    0.1820   19.0770 N.am  195  THR195     -0.1939
     84  CA        -2.0580   -1.1310   19.0340 C.3   195  THR195      0.2028
     85  C         -1.0130   -1.2550   17.8930 C.2   195  THR195      0.2643
     86  O         -0.4230   -2.3200   17.7340 O.2   195  THR195     -0.2714
     87  CB        -3.0340   -2.2650   18.9380 C.3   195  THR195      0.1808
     88  OG1       -3.7410   -2.1450   17.6980 O.3   195  THR195     -0.2208
     89  CG2       -4.0420   -2.3220   20.1260 C.3   195  THR195      0.0379
     90  N         -0.8740   -0.1850   17.1210 N.am  196  THR196     -0.1937
     91  CA         0.1890   -0.0800   16.1080 C.3   196  THR196      0.2013
     92  C          1.0130    1.1210   16.4320 C.2   196  THR196      0.2484
     93  O          0.5380    2.0670   17.0480 O.2   196  THR196     -0.2729
     94  CB        -0.3110    0.0870   14.6830 C.3   196  THR196      0.1807
     95  OG1       -0.9890    1.3330   14.5510 O.3   196  THR196     -0.2208
     96  CG2       -1.2270   -1.0550   14.2960 C.3   196  THR196      0.0379
     97  N          2.2990    1.1000   16.0180 N.am  197  PRO197     -0.2715
     98  CA         3.0070    2.3680   16.0260 C.3   197  PRO197      0.1521
     99  C          2.1760    3.4960   15.5130 C.2   197  PRO197      0.2440
    100  O          1.5000    3.3430   14.4780 O.2   197  PRO197     -0.2731
    101  CB         4.2400    2.0520   15.1240 C.3   197  PRO197      0.0310
    102  CG         4.4720    0.6330   15.3880 C.3   197  PRO197      0.0237
    103  CD         3.0620    0.0600   15.3630 C.3   197  PRO197      0.0939
    104  N          2.2160    4.6490   16.1110 N.am  198  PRO198     -0.2727
    105  CA         3.1150    5.0630   17.2040 C.3   198  PRO198      0.1402
    106  C          2.7560    4.6620   18.6560 C.2   198  PRO198      0.2269
    107  O          3.3790    5.1580   19.6440 O.2   198  PRO198     -0.2865
    108  CB         3.1550    6.5730   17.0030 C.3   198  PRO198      0.0296
    109  CG         1.8180    6.9010   16.5080 C.3   198  PRO198      0.0237
    110  CD         1.3930    5.7850   15.6150 C.3   198  PRO198      0.0939
    111  N        -10.5650    2.2570   25.7170 N.3   205  TRP205     -0.1241
    112  CA       -10.9930    1.0540   25.0040 C.3   205  TRP205      0.1605
    113  C        -12.3820    0.6510   25.4800 C.2   205  TRP205      0.2264
    114  O        -12.6030    0.5910   26.7020 O.2   205  TRP205     -0.2867
    115  CB       -10.0080   -0.1300   25.2370 C.3   205  TRP205      0.0550
    116  CG        -8.8600   -0.0260   24.2730 C.ar  205  TRP205      0.0003
    117  CD1       -7.6030    0.5560   24.4520 C.ar  205  TRP205      0.0946
    118  CD2       -8.9190   -0.4280   22.8760 C.ar  205  TRP205      0.0152
    119  NE1       -6.9070    0.4870   23.2570 N.ar  205  TRP205     -0.2442
    120  CE2       -7.6820   -0.1120   22.2710 C.ar  205  TRP205      0.0810
    121  CE3       -9.8690   -1.0690   22.1230 C.ar  205  TRP205      0.0012
    122  CZ2       -7.4280   -0.3950   20.9790 C.ar  205  TRP205      0.0191
    123  CZ3       -9.6390   -1.3400   20.8170 C.ar  205  TRP205      0.0001
    124  CH2       -8.4140   -1.0400   20.2450 C.ar  205  TRP205      0.0015
@<TRIPOS>BOND
     1     1     2    1
     2     2     3    1
     3     2     5    1
     4     3     4    2
     5     5     6    1
     6     7     6   ar
     7     7     9   ar
     8     6     8   ar
     9     9    10   ar
    10    15    12    1
    11    15    16    1
    12    24    21    1
    13    24    25    1
    14     8    10   ar
    15    21    20    1
    16    21    22    1
    17    12    13    1
    18    12    11    1
    19    16    17    1
    20    18    17    2
    21    22    23    2
    22    17    19   am
    23    13    14    2
    24    25    26   ar
    25    25    27   ar
    26    26    28   ar
    27    27    29   ar
    28    30    31    1
    29    32    31    1
    30    32    33    2
    31    31    34    1
    32    28    29   ar
    33    43    42    2
    34    64    66   ar
    35    64    62   ar
    36    61    62    1
    37    61    58    1
    38    34    35    1
    39    36    35   ar
    40    36    38   ar
    41    66    67   ar
    42    62    63   ar
    43    96    94    1
    44    35    37   ar
    45   100    99    2
    46    38    39   ar
    47    95    94    1
    48    37    39   ar
    49    94    91    1
    50    57    58    1
    51    53    52    2
    52    56    54    1
    53    67    65   ar
    54    40    41    1
    55    42    41    1
    56    63    65   ar
    57    58    59    1
    58    54    55    1
    59    54    51    1
    60   101   102    1
    61   101    98    1
    62    50    51    1
    63   103   102    1
    64   103    97    1
    65    59    60    2
    66    99    98    1
    67    99   104   am
    68   110   104    1
    69   110   109    1
    70    41    44    1
    71    44    45    1
    72    51    52    1
    73    97    98    1
    74    97    92   am
    75    91    92    1
    76    91    90    1
    77   104   105    1
    78    92    93    2
    79   109   108    1
    80    46    45   ar
    81    46    48   ar
    82    45    47   ar
    83   108   105    1
    84    90    85   am
    85   105   106    1
    86    48    49   ar
    87    47    49   ar
    88    81    80    1
    89    88    87    1
    90    86    85    2
    91    85    84    1
    92    82    80    1
    93   106   107    2
    94    73    72    1
    95    80    79    1
    96    79    76    1
    97    87    84    1
    98    87    89    1
    99    84    83    1
   100    83    77   am
   101    74    72    1
   102    72    69    1
   103    76    77    1
   104    76    75    1
   105    77    78    2
   106    69    70    1
   107    69    68    1
   108   124   123   ar
   109   124   122   ar
   110    70    71    2
   111   123   121   ar
   112   122   120   ar
   113   121   118   ar
   114   120   118   ar
   115   120   119   ar
   116   118   116   ar
   117   119   117   ar
   118   116   117   ar
   119   116   115    1
   120   112   115    1
   121   112   113    1
   122   112   111    1
   123   113   114    2
