@<TRIPOS>MOLECULE
tmp/5thkH01.pdb
 109 107 0 0 0
SMALL
GASTEIGER

@<TRIPOS>ATOM
      1  N         16.4960   31.0210  -10.2130 N.3   101  LYS101     -0.1245
      2  CA        15.8710   30.9300   -8.8940 C.3   101  LYS101      0.1561
      3  C         14.6360   31.8170   -8.9150 C.2   101  LYS101      0.2260
      4  O         14.7650   33.0400   -9.0190 O.2   101  LYS101     -0.2867
      5  CB        16.8450   31.4130   -7.8150 C.3   101  LYS101      0.0271
      6  CG        16.3030   31.3290   -6.3850 C.3   101  LYS101      0.0035
      7  CD        17.2720   31.9520   -5.3870 C.3   101  LYS101      0.0206
      8  CE        16.7830   31.7480   -3.9580 C.3   101  LYS101      0.1093
      9  NZ        17.6940   32.3910   -2.9590 N.3   101  LYS101     -0.1314
     10  N         22.3990   21.5680   -4.0420 N.3   147  LEU147     -0.1245
     11  CA        20.9570   21.6540   -3.8420 C.3   147  LEU147      0.1561
     12  C         20.2530   20.3270   -4.0840 C.2   147  LEU147      0.2260
     13  O         19.0970   20.1810   -3.6740 O.2   147  LEU147     -0.2867
     14  CB        20.3600   22.7480   -4.7210 C.3   147  LEU147      0.0270
     15  CG        20.7820   24.1680   -4.3330 C.3   147  LEU147      0.0019
     16  CD1       20.3400   25.1690   -5.3980 C.3   147  LEU147      0.0001
     17  CD2       20.2280   24.5570   -2.9640 C.3   147  LEU147      0.0001
     18  N         20.8290   17.8740   -2.3800 N.3   149  GLY149     -0.1210
     19  CA        20.5920   17.4800   -1.0070 C.3   149  GLY149      0.1956
     20  C         19.7650   18.4470   -0.1810 C.2   149  GLY149      0.2612
     21  O         19.7100   18.3010    1.0460 O.2   149  GLY149     -0.2717
     22  N         19.1140   19.4280   -0.8000 N.am  150  ALA150     -0.1965
     23  CA        18.3590   20.4490   -0.0770 C.3   150  ALA150      0.1728
     24  C         16.8590   20.1880   -0.1860 C.2   150  ALA150      0.2616
     25  O         16.3940   19.4420   -1.0520 O.2   150  ALA150     -0.2715
     26  CB        18.6660   21.8460   -0.6260 C.3   150  ALA150      0.0334
     27  N         16.1050   20.8240    0.7120 N.am  151  PHE151     -0.1960
     28  CA        14.6380   20.7830    0.7190 C.3   151  PHE151      0.1771
     29  C         14.2200   22.2400    0.8590 C.2   151  PHE151      0.2620
     30  O         14.1030   22.7530    1.9760 O.2   151  PHE151     -0.2715
     31  CB        14.1600   19.9420    1.8960 C.3   151  PHE151      0.0574
     32  CG        12.6750   19.6880    1.9290 C.ar  151  PHE151     -0.0200
     33  CD1       11.8620   19.9430    0.8340 C.ar  151  PHE151     -0.0042
     34  CD2       12.0910   19.2030    3.0860 C.ar  151  PHE151     -0.0042
     35  CE1       10.4820   19.7010    0.9000 C.ar  151  PHE151     -0.0003
     36  CE2       10.7160   18.9600    3.1570 C.ar  151  PHE151     -0.0003
     37  CZ         9.9130   19.2110    2.0700 C.ar  151  PHE151     -0.0000
     38  N         14.0090   22.9110   -0.2730 N.am  152  THR152     -0.1951
     39  CA        13.9750   24.3660   -0.2420 C.3   152  THR152      0.1897
     40  C         13.1480   24.8730   -1.4180 C.2   152  THR152      0.2313
     41  O         13.0510   24.1940   -2.4470 O.2   152  THR152     -0.2863
     42  CB        15.4180   24.9130   -0.2690 C.3   152  THR152      0.1794
     43  OG1       15.4670   26.2540    0.2440 O.3   152  THR152     -0.2208
     44  CG2       16.0280   24.8390   -1.6760 C.3   152  THR152      0.0378
     45  N         14.1580   26.7320   -6.4390 N.3   155  TYR155     -0.1241
     46  CA        15.1380   26.2080   -7.3820 C.3   155  TYR155      0.1605
     47  C         14.6000   25.0590   -8.2320 C.2   155  TYR155      0.2264
     48  O         15.3820   24.2520   -8.7330 O.2   155  TYR155     -0.2867
     49  CB        16.4200   25.7750   -6.6750 C.3   155  TYR155      0.0534
     50  CG        17.2080   26.8530   -5.9670 C.ar  155  TYR155     -0.0201
     51  CD1       18.1000   27.6600   -6.6610 C.ar  155  TYR155     -0.0009
     52  CD2       17.1010   27.0190   -4.5910 C.ar  155  TYR155     -0.0009
     53  CE1       18.8540   28.6260   -5.9980 C.ar  155  TYR155      0.0417
     54  CE2       17.8440   27.9700   -3.9220 C.ar  155  TYR155      0.0417
     55  CZ        18.7130   28.7710   -4.6260 C.ar  155  TYR155      0.1957
     56  OH        19.4450   29.7130   -3.9330 O.3   155  TYR155     -0.2866
     57  N         22.9670   34.4660    3.7410 N.3   207  TYR207     -0.1227
     58  CA        22.6880   33.1360    4.2750 C.3   207  TYR207      0.1736
     59  C         23.6680   32.1080    3.7280 C.2   207  TYR207      0.2595
     60  O         24.2340   31.3080    4.4830 O.2   207  TYR207     -0.2718
     61  CB        21.2510   32.7260    3.9360 C.3   207  TYR207      0.0548
     62  CG        20.9960   31.2480    4.1550 C.ar  207  TYR207     -0.0200
     63  CD1       20.6580   30.7610    5.4110 C.ar  207  TYR207     -0.0009
     64  CD2       21.1240   30.3370    3.1130 C.ar  207  TYR207     -0.0009
     65  CE1       20.4490   29.4070    5.6230 C.ar  207  TYR207      0.0417
     66  CE2       20.9210   28.9790    3.3160 C.ar  207  TYR207      0.0417
     67  CZ        20.5780   28.5240    4.5720 C.ar  207  TYR207      0.1957
     68  OH        20.3650   27.1800    4.7770 O.3   207  TYR207     -0.2866
     69  N         23.8580   32.0860    2.4060 N.am  208  HIS208     -0.1975
     70  CA        24.7400   31.0780    1.8240 C.3   208  HIS208      0.1656
     71  C         26.1570   31.2020    2.3770 C.2   208  HIS208      0.2291
     72  O         26.8540   30.1980    2.5530 O.2   208  HIS208     -0.2864
     73  CB        24.7780   31.2030    0.2970 C.3   208  HIS208      0.0771
     74  CG        23.4940   30.8550   -0.3930 C.ar  208  HIS208      0.0820
     75  ND1       22.9180   29.6030   -0.3240 N.ar  208  HIS208     -0.2267
     76  CD2       22.7000   31.5910   -1.2050 C.ar  208  HIS208      0.1154
     77  CE1       21.8120   29.5920   -1.0500 C.ar  208  HIS208      0.1986
     78  NE2       21.6540   30.7870   -1.5910 N.ar  208  HIS208     -0.2212
     79  N         26.1780   29.3530    5.7560 N.3   211  ALA211     -0.1245
     80  CA        25.3680   28.1480    5.8570 C.3   211  ALA211      0.1562
     81  C         26.1790   26.8620    5.9400 C.2   211  ALA211      0.2260
     82  O         25.6000   25.8010    6.2060 O.2   211  ALA211     -0.2867
     83  CB        24.4000   28.0690    4.6700 C.3   211  ALA211      0.0290
     84  N         27.3440   21.9130    4.0310 N.3   253  TYR253     -0.1227
     85  CA        26.1810   22.7220    3.6700 C.3   253  TYR253      0.1736
     86  C         24.9320   21.8540    3.5300 C.2   253  TYR253      0.2596
     87  O         23.9770   22.0030    4.2980 O.2   253  TYR253     -0.2718
     88  CB        26.5650   23.4370    2.3630 C.3   253  TYR253      0.0548
     89  CG        25.5550   24.3280    1.6870 C.ar  253  TYR253     -0.0200
     90  CD1       25.4490   25.6800    2.0170 C.ar  253  TYR253     -0.0009
     91  CD2       24.7730   23.8420    0.6470 C.ar  253  TYR253     -0.0009
     92  CE1       24.5520   26.5090    1.3530 C.ar  253  TYR253      0.0417
     93  CE2       23.8750   24.6530   -0.0160 C.ar  253  TYR253      0.0417
     94  CZ        23.7630   25.9790    0.3420 C.ar  253  TYR253      0.1957
     95  OH        22.8730   26.7810   -0.3320 O.3   253  TYR253     -0.2866
     96  N         24.9330   20.9180    2.5880 N.am  254  THR254     -0.1939
     97  CA        23.9520   19.8450    2.5230 C.3   254  THR254      0.2028
     98  C         24.6750   18.5060    2.5930 C.2   254  THR254      0.2642
     99  O         25.8950   18.4200    2.4180 O.2   254  THR254     -0.2714
    100  CB        23.1410   19.8940    1.2210 C.3   254  THR254      0.1808
    101  OG1       24.0530   19.9390    0.1190 O.3   254  THR254     -0.2208
    102  CG2       22.2340   21.1090    1.2020 C.3   254  THR254      0.0379
    103  N         23.9000   17.4520    2.8380 N.am  255  THR255     -0.1950
    104  CA        24.4290   16.0970    2.8420 C.3   255  THR255      0.1897
    105  C         23.4460   15.1910    2.1100 C.2   255  THR255      0.2313
    106  O         22.4040   15.6340    1.6080 O.2   255  THR255     -0.2863
    107  CB        24.6840   15.5990    4.2730 C.3   255  THR255      0.1794
    108  OG1       25.4490   14.3840    4.2150 O.3   255  THR255     -0.2208
    109  CG2       23.3620   15.3440    5.0110 C.3   255  THR255      0.0378
@<TRIPOS>BOND
     1     1     2    1
     2     4     3    2
     3     3     2    1
     4     2     5    1
     5    48    47    2
     6    47    46    1
     7     5     6    1
     8    46    49    1
     9    46    45    1
    10    49    50    1
    11    51    53   ar
    12    51    50   ar
    13     6     7    1
    14    53    55   ar
    15    50    52   ar
    16    16    15    1
    17     7     8    1
    18    14    15    1
    19    14    11    1
    20    55    56    1
    21    55    54   ar
    22    52    54   ar
    23    15    17    1
    24    12    11    1
    25    12    13    2
    26    10    11    1
    27     8     9    1
    28    41    40    2
    29    18    19    1
    30    44    42    1
    31    78    76   ar
    32    78    77   ar
    33    40    39    1
    34    76    74   ar
    35    25    24    2
    36    77    75   ar
    37    19    20    1
    38    22    20   am
    39    22    23    1
    40    26    23    1
    41    74    75   ar
    42    74    73    1
    43    95    94    1
    44    38    39    1
    45    38    29   am
    46    42    39    1
    47    42    43    1
    48    24    23    1
    49    24    27   am
    50    20    21    2
    51    93    94   ar
    52    93    91   ar
    53   101   100    1
    54    73    70    1
    55    94    92   ar
    56    91    89   ar
    57    27    28    1
    58    28    29    1
    59    28    31    1
    60    33    35   ar
    61    33    32   ar
    62    29    30    2
    63    35    37   ar
    64   102   100    1
    65   100    97    1
    66    92    90   ar
    67   106   105    2
    68    89    90   ar
    69    89    88    1
    70    70    71    1
    71    70    69    1
    72    31    32    1
    73    32    34   ar
    74    37    36   ar
    75   105   104    1
    76    88    85    1
    77    71    72    2
    78    69    59   am
    79    99    98    2
    80    97    96    1
    81    97    98    1
    82    96    86   am
    83    98   103   am
    84   103   104    1
    85   104   107    1
    86    34    36   ar
    87    64    66   ar
    88    64    62   ar
    89    66    67   ar
    90    86    85    1
    91    86    87    2
    92    85    84    1
    93    59    58    1
    94    59    60    2
    95    57    58    1
    96    61    62    1
    97    61    58    1
    98    62    63   ar
    99   108   107    1
   100   107   109    1
   101    67    68    1
   102    67    65   ar
   103    83    80    1
   104    63    65   ar
   105    79    80    1
   106    80    81    1
   107    81    82    2
