@<TRIPOS>MOLECULE
tmp/5thwA00.pdb
 131 126 0 0 0
SMALL
GASTEIGER

@<TRIPOS>ATOM
      1  N          8.4820   -2.7050    8.6110 N.3    83  HIS83      -0.1241
      2  CA         7.7790   -2.8430    7.3470 C.3    83  HIS83       0.1621
      3  C          7.5350   -4.3120    7.0570 C.2    83  HIS83       0.2264
      4  O          8.3040   -5.1780    7.4730 O.2    83  HIS83      -0.2867
      5  CB         8.5630   -2.2190    6.1970 C.3    83  HIS83       0.0745
      6  CG         9.9570   -2.7440    6.0690 C.ar   83  HIS83       0.0817
      7  ND1       10.3000   -3.7320    5.1720 N.ar   83  HIS83      -0.2268
      8  CD2       11.0940   -2.4260    6.7330 C.ar   83  HIS83       0.1154
      9  CE1       11.5890   -3.9940    5.2810 C.ar   83  HIS83       0.1986
     10  NE2       12.0950   -3.2140    6.2190 N.ar   83  HIS83      -0.2212
     11  N         14.0760   -9.3440    7.2490 N.3    94  ASP94      -0.1239
     12  CA        14.1510   -7.9130    6.9850 C.3    94  ASP94       0.1674
     13  C         12.7610   -7.2840    7.1230 C.2    94  ASP94       0.2266
     14  O         11.8260   -7.6570    6.4090 O.2    94  ASP94      -0.2867
     15  CB        14.7210   -7.7080    5.5770 C.3    94  ASP94       0.1410
     16  CG        14.9780   -6.2470    5.2260 C.2    94  ASP94       0.3668
     17  OD1       14.7390   -5.3480    6.0580 O.co2  94  ASP94      -0.2456
     18  OD2       15.4160   -6.0060    4.0800 O.co2  94  ASP94      -0.2456
     19  N          8.6470    0.6960    2.5740 N.3   128  GLU128     -0.1231
     20  CA         9.8950    1.1210    3.2090 C.3   128  GLU128      0.1699
     21  C         11.1010    0.8100    2.3360 C.2   128  GLU128      0.2592
     22  O         12.0640    1.5820    2.3140 O.2   128  GLU128     -0.2718
     23  CB        10.0430    0.4810    4.5890 C.3   128  GLU128      0.0402
     24  CG        11.2490    0.9520    5.3690 C.3   128  GLU128      0.1161
     25  CD        12.5070    0.1690    5.0380 C.2   128  GLU128      0.3649
     26  OE1       12.3940   -0.9270    4.4440 O.co2 128  GLU128     -0.2457
     27  OE2       13.6090    0.6430    5.3830 O.co2 128  GLU128     -0.2457
     28  N         11.0610   -0.3140    1.6110 N.am  129  GLU129     -0.1979
     29  CA        12.2170   -0.7670    0.8400 C.3   129  GLU129      0.1602
     30  C         12.6110    0.2260   -0.2440 C.2   129  GLU129      0.2287
     31  O         13.8000    0.3560   -0.5600 O.2   129  GLU129     -0.2864
     32  CB        11.9290   -2.1350    0.2070 C.3   129  GLU129      0.0415
     33  CG        11.9580   -3.3050    1.1810 C.3   129  GLU129      0.1163
     34  CD        13.3630   -3.6420    1.6590 C.2   129  GLU129      0.3649
     35  OE1       14.3330   -3.0240    1.1680 O.co2 129  GLU129     -0.2457
     36  OE2       13.4940   -4.5160    2.5390 O.co2 129  GLU129     -0.2457
     37  N         13.1790    5.0310   -0.6530 N.3   136  ALA136     -0.1231
     38  CA        12.8580    4.2770    0.5500 C.3   136  ALA136      0.1694
     39  C         12.2190    5.1660    1.6220 C.2   136  ALA136      0.2591
     40  O         12.2780    6.3960    1.5660 O.2   136  ALA136     -0.2718
     41  CB        14.1200    3.6250    1.1110 C.3   136  ALA136      0.0304
     42  N         11.5440    4.5160    2.5730 N.am  137  MET137     -0.1979
     43  CA        11.0320    5.1590    3.7860 C.3   137  MET137      0.1605
     44  C         10.1040    6.3310    3.4910 C.2   137  MET137      0.2287
     45  O         10.0200    7.2690    4.2870 O.2   137  MET137     -0.2864
     46  CB        12.1810    5.6450    4.6750 C.3   137  MET137      0.0413
     47  CG        13.1000    4.5460    5.1710 C.3   137  MET137      0.0598
     48  SD        14.8340    5.0500    5.1460 S.3   137  MET137     -0.1393
     49  CE        14.8290    6.4650    6.2440 C.3   137  MET137      0.0692
     50  N         15.3080   -4.7090   14.5160 N.3   190  HIS190     -0.1241
     51  CA        15.7200   -5.0550   13.1560 C.3   190  HIS190      0.1621
     52  C         16.9560   -5.9460   13.1910 C.2   190  HIS190      0.2264
     53  O         17.7340   -5.9040   14.1490 O.2   190  HIS190     -0.2867
     54  CB        16.0080   -3.7900   12.3330 C.3   190  HIS190      0.0745
     55  CG        15.7750   -3.9550   10.8620 C.ar  190  HIS190      0.0817
     56  ND1       16.6600   -4.6130   10.0330 N.ar  190  HIS190     -0.2268
     57  CD2       14.7480   -3.5590   10.0750 C.ar  190  HIS190      0.1154
     58  CE1       16.1910   -4.6060    8.7980 C.ar  190  HIS190      0.1986
     59  NE2       15.0300   -3.9770    8.7970 N.ar  190  HIS190     -0.2212
     60  N         21.7090   -6.6520    9.1720 N.3   193  GLN193     -0.1245
     61  CA        21.9810   -6.6520    7.7360 C.3   193  GLN193      0.1566
     62  C         23.4690   -6.4860    7.4360 C.2   193  GLN193      0.2260
     63  O         23.8470   -6.1800    6.2990 O.2   193  GLN193     -0.2867
     64  CB        21.1460   -5.5820    7.0120 C.3   193  GLN193      0.0367
     65  CG        19.6770   -5.6000    7.4430 C.3   193  GLN193      0.0905
     66  CD        18.8290   -4.5480    6.7480 C.2   193  GLN193      0.2608
     67  OE1       18.8630   -3.3750    7.1140 O.2   193  GLN193     -0.2717
     68  NE2       18.0340   -4.9720    5.7640 N.am  193  GLN193     -0.0878
     69  N         22.2850    8.9220    3.5490 N.3   213  GLN213     -0.1245
     70  CA        22.2180    8.3570    2.2090 C.3   213  GLN213      0.1566
     71  C         21.8690    9.4250    1.1800 C.2   213  GLN213      0.2260
     72  O         21.2010   10.4190    1.4790 O.2   213  GLN213     -0.2867
     73  CB        21.1930    7.2200    2.1030 C.3   213  GLN213      0.0367
     74  CG        21.2570    6.1630    3.1840 C.3   213  GLN213      0.0905
     75  CD        20.4500    4.9310    2.8180 C.2   213  GLN213      0.2608
     76  OE1       20.3400    4.5760    1.6460 O.2   213  GLN213     -0.2717
     77  NE2       19.8510    4.2960    3.8150 N.am  213  GLN213     -0.0878
     78  N         20.5180    9.1390   -2.9710 N.3   215  TRP215     -0.1241
     79  CA        20.1280    8.2980   -4.0960 C.3   215  TRP215      0.1605
     80  C         19.9450    9.1460   -5.3490 C.2   215  TRP215      0.2264
     81  O         19.4020   10.2560   -5.2920 O.2   215  TRP215     -0.2867
     82  CB        18.8360    7.5220   -3.8120 C.3   215  TRP215      0.0550
     83  CG        18.9530    6.4570   -2.7630 C.ar  215  TRP215      0.0003
     84  CD1       19.9730    6.2880   -1.8630 C.ar  215  TRP215      0.0946
     85  CD2       17.9990    5.4240   -2.4880 C.ar  215  TRP215      0.0152
     86  NE1       19.7130    5.2060   -1.0550 N.ar  215  TRP215     -0.2442
     87  CE2       18.5060    4.6630   -1.4130 C.ar  215  TRP215      0.0810
     88  CE3       16.7640    5.0700   -3.0430 C.ar  215  TRP215      0.0012
     89  CZ2       17.8200    3.5650   -0.8870 C.ar  215  TRP215      0.0191
     90  CZ3       16.0900    3.9790   -2.5240 C.ar  215  TRP215      0.0001
     91  CH2       16.6220    3.2380   -1.4580 C.ar  215  TRP215      0.0015
     92  N         26.2430    6.0550    0.5070 N.3   288  ARG288     -0.1245
     93  CA        26.0220    6.0720    1.9480 C.3   288  ARG288      0.1563
     94  C         27.3220    6.3810    2.6700 C.2   288  ARG288      0.2260
     95  O         28.3940    5.9610    2.2320 O.2   288  ARG288     -0.2867
     96  CB        25.4570    4.7370    2.4620 C.3   288  ARG288      0.0307
     97  CG        24.2100    4.2870    1.7420 C.3   288  ARG288      0.0489
     98  CD        23.6490    2.9920    2.2620 C.3   288  ARG288      0.2205
     99  NE        22.6900    2.4480    1.3080 N.pl3 288  ARG288     -0.0865
    100  CZ        21.6080    1.7550    1.6410 C.cat 288  ARG288      0.5346
    101  NH1       21.3340    1.5250    2.9220 N.pl3 288  ARG288      0.1354
    102  NH2       20.7970    1.2990    0.6910 N.pl3 288  ARG288      0.1354
    103  N         21.7970    0.6380    7.1380 N.3   356  ALA356     -0.1231
    104  CA        20.6360    0.8190    6.2860 C.3   356  ALA356      0.1694
    105  C         19.7300    1.8800    6.8840 C.2   356  ALA356      0.2593
    106  O         19.8510    2.2530    8.0550 O.2   356  ALA356     -0.2718
    107  CB        19.8490   -0.4900    6.1070 C.3   356  ALA356      0.0304
    108  N         18.8240    2.3740    6.0490 N.am  357  GLY357     -0.1942
    109  CA        17.8260    3.3110    6.5000 C.3   357  GLY357      0.2014
    110  C         16.6290    2.5450    7.0320 C.2   357  GLY357      0.2638
    111  O         16.2860    1.4730    6.5360 O.2   357  GLY357     -0.2714
    112  N         16.0040    3.1040    8.0580 N.am  358  HIS358     -0.1973
    113  CA        14.8310    2.4800    8.6320 C.3   358  HIS358      0.1656
    114  C         13.8210    3.5800    8.8950 C.2   358  HIS358      0.2291
    115  O         14.1650    4.7650    8.9440 O.2   358  HIS358     -0.2864
    116  CB        15.1780    1.7070    9.9150 C.3   358  HIS358      0.0771
    117  CG        16.3130    0.7420    9.7400 C.ar  358  HIS358      0.0820
    118  ND1       16.1790   -0.4570    9.0720 N.ar  358  HIS358     -0.2267
    119  CD2       17.6010    0.7990   10.1550 C.ar  358  HIS358      0.1154
    120  CE1       17.3390   -1.0910    9.0730 C.ar  358  HIS358      0.1986
    121  NE2       18.2170   -0.3520    9.7280 N.ar  358  HIS358     -0.2212
    122  N         18.9980   -8.6980    1.9880 N.3   382  HIS382     -0.1241
    123  CA        18.5880   -8.5280    0.5870 C.3   382  HIS382      0.1621
    124  C         19.0830   -9.6860   -0.2730 C.2   382  HIS382      0.2264
    125  O         19.3830   -9.5280   -1.4590 O.2   382  HIS382     -0.2867
    126  CB        19.0330   -7.1800    0.0120 C.3   382  HIS382      0.0745
    127  CG        18.2480   -6.0220    0.5450 C.ar  382  HIS382      0.0817
    128  ND1       18.5010   -4.7150    0.1870 N.ar  382  HIS382     -0.2268
    129  CD2       17.2100   -5.9810    1.4150 C.ar  382  HIS382      0.1154
    130  CE1       17.6470   -3.9190    0.8070 C.ar  382  HIS382      0.1986
    131  NE2       16.8580   -4.6620    1.5640 N.ar  382  HIS382     -0.2212
@<TRIPOS>BOND
     1    80    81    2
     2    80    79    1
     3    79    82    1
     4    79    78    1
     5    82    83    1
     6    88    90   ar
     7    88    85   ar
     8    83    85   ar
     9    83    84   ar
    10    90    91   ar
    11    85    87   ar
    12    84    86   ar
    13   125   124    2
    14    91    89   ar
    15    87    86   ar
    16    87    89   ar
    17    37    38    1
    18    31    30    2
    19   124   123    1
    20    30    29    1
    21   126   127    1
    22   126   123    1
    23   128   127   ar
    24   128   130   ar
    25    32    29    1
    26    32    33    1
    27    92    93    1
    28   127   129   ar
    29    38    41    1
    30    38    39    1
    31   123   122    1
    32   102   100    1
    33   130   131   ar
    34    29    28    1
    35    35    34   ar
    36    71    72    2
    37    71    70    1
    38    33    34    1
    39    99   100    2
    40    99    98    1
    41   129   131   ar
    42    40    39    2
    43    28    21   am
    44    39    42   am
    45   100   101    1
    46    76    75    2
    47    34    36   ar
    48    97    98    1
    49    97    96    1
    50    93    96    1
    51    93    94    1
    52    73    70    1
    53    73    74    1
    54    70    69    1
    55    95    94    2
    56    22    21    2
    57    21    20    1
    58    42    43    1
    59    19    20    1
    60    75    74    1
    61    75    77   am
    62    20    23    1
    63    44    43    1
    64    44    45    2
    65    43    46    1
    66    18    16   ar
    67    26    25   ar
    68    23    24    1
    69    46    47    1
    70    25    24    1
    71    25    27   ar
    72    48    47    1
    73    48    49    1
    74     7     9   ar
    75     7     6   ar
    76    16    15    1
    77    16    17   ar
    78     9    10   ar
    79    15    12    1
    80    68    66   am
    81   108   109    1
    82   108   105   am
    83     6     5    1
    84     6     8   ar
    85   107   104    1
    86     5     2    1
    87    10     8   ar
    88   104   105    1
    89   104   103    1
    90    63    62    2
    91    14    13    2
    92   109   110    1
    93   111   110    2
    94    66    67    2
    95    66    65    1
    96   105   106    2
    97    12    13    1
    98    12    11    1
    99    64    65    1
   100    64    61    1
   101   110   112   am
   102     3     2    1
   103     3     4    2
   104     2     1    1
   105    62    61    1
   106    61    60    1
   107   112   113    1
   108   113   114    1
   109   113   116    1
   110    59    58   ar
   111    59    57   ar
   112    58    56   ar
   113   114   115    2
   114   118   120   ar
   115   118   117   ar
   116   120   121   ar
   117   121   119   ar
   118   117   116    1
   119   117   119   ar
   120    56    55   ar
   121    57    55   ar
   122    55    54    1
   123    54    51    1
   124    51    52    1
   125    51    50    1
   126    52    53    2
