@<TRIPOS>MOLECULE
tmp/5thxA01.pdb
 183 180 0 0 0
SMALL
GASTEIGER

@<TRIPOS>ATOM
      1  N         14.9900    7.3480   10.0510 N.3    36  PHE36      -0.1241
      2  CA        14.5970    6.2690   10.9400 C.3    36  PHE36       0.1605
      3  C         13.1110    5.9660   10.7890 C.2    36  PHE36       0.2264
      4  O         12.3190    6.7950   10.3190 O.2    36  PHE36      -0.2867
      5  CB        14.9480    6.5880   12.4180 C.3    36  PHE36       0.0534
      6  CG        14.1450    7.7020   13.0500 C.ar   36  PHE36      -0.0203
      7  CD1       12.9490    7.4320   13.7100 C.ar   36  PHE36      -0.0042
      8  CD2       14.6270    9.0070   13.0610 C.ar   36  PHE36      -0.0042
      9  CE1       12.2110    8.4500   14.3350 C.ar   36  PHE36      -0.0003
     10  CE2       13.9070   10.0250   13.6820 C.ar   36  PHE36      -0.0003
     11  CZ        12.7030    9.7500   14.3210 C.ar   36  PHE36      -0.0000
     12  N          9.8740    0.8130   18.8210 N.3    50  ARG50      -0.1231
     13  CA        10.9390    1.7470   19.1700 C.3    50  ARG50       0.1694
     14  C         11.5100    2.3700   17.9020 C.2    50  ARG50       0.2592
     15  O         11.5070    1.7520   16.8360 O.2    50  ARG50      -0.2718
     16  CB        12.1020    1.0730   19.9200 C.3    50  ARG50       0.0321
     17  CG        11.7430    0.4240   21.2360 C.3    50  ARG50       0.0489
     18  CD        11.3590    1.4470   22.3010 C.3    50  ARG50       0.2205
     19  NE        11.0890    0.8420   23.6050 N.pl3  50  ARG50      -0.0865
     20  CZ         9.8700    0.6020   24.0760 C.cat  50  ARG50       0.5346
     21  NH1        8.8020    0.9050   23.3480 N.pl3  50  ARG50       0.1354
     22  NH2        9.7120    0.0600   25.2790 N.pl3  50  ARG50       0.1354
     23  N         12.0460    3.5830   18.0300 N.am   51  ALA51      -0.1966
     24  CA        12.6920    4.2260   16.8910 C.3    51  ALA51       0.1728
     25  C         13.9860    3.5020   16.5290 C.2    51  ALA51       0.2616
     26  O         14.7930    3.1780   17.4090 O.2    51  ALA51      -0.2715
     27  CB        12.9700    5.6980   17.1980 C.3    51  ALA51       0.0334
     28  N         14.1840    3.2530   15.2300 N.am   52  TYR52      -0.1960
     29  CA        15.3760    2.5970   14.6990 C.3    52  TYR52       0.1771
     30  C         15.7920    3.2670   13.4030 C.2    52  TYR52       0.2620
     31  O         14.9770    3.3800   12.4840 O.2    52  TYR52      -0.2715
     32  CB        15.1280    1.1080   14.4170 C.3    52  TYR52       0.0574
     33  CG        15.4560    0.2140   15.5860 C.ar   52  TYR52      -0.0198
     34  CD1       14.5340    0.0030   16.5940 C.ar   52  TYR52      -0.0009
     35  CD2       16.6940   -0.4030   15.6800 C.ar   52  TYR52      -0.0009
     36  CE1       14.8340   -0.8060   17.6830 C.ar   52  TYR52       0.0417
     37  CE2       17.0070   -1.2200   16.7610 C.ar   52  TYR52       0.0417
     38  CZ        16.0720   -1.4050   17.7590 C.ar   52  TYR52       0.1957
     39  OH        16.3420   -2.2010   18.8470 O.3    52  TYR52      -0.2866
     40  N         17.0610    3.6610   13.3110 N.am   53  SER53      -0.1950
     41  CA        17.6030    4.0700   12.0170 C.3    53  SER53       0.1924
     42  C         17.5340    2.9080   11.0370 C.2    53  SER53       0.2314
     43  O         17.8290    1.7630   11.3910 O.2    53  SER53      -0.2863
     44  CB        19.0660    4.5010   12.1500 C.3    53  SER53       0.2116
     45  OG        19.2560    5.5020   13.1230 O.3    53  SER53      -0.2180
     46  N         20.6180   -2.3200   12.9490 N.3    66  PHE66      -0.1227
     47  CA        21.7120   -2.5600   13.8810 C.3    66  PHE66       0.1736
     48  C         21.2010   -2.1840   15.2620 C.2    66  PHE66       0.2596
     49  O         20.7860   -1.0380   15.4720 O.2    66  PHE66      -0.2718
     50  CB        22.9380   -1.7300   13.4870 C.3    66  PHE66       0.0547
     51  CG        24.1440   -1.9480   14.3610 C.ar   66  PHE66      -0.0202
     52  CD1       24.5840   -3.2250   14.6750 C.ar   66  PHE66      -0.0042
     53  CD2       24.8520   -0.8610   14.8380 C.ar   66  PHE66      -0.0042
     54  CE1       25.6960   -3.4120   15.4670 C.ar   66  PHE66      -0.0003
     55  CE2       25.9700   -1.0430   15.6360 C.ar   66  PHE66      -0.0003
     56  CZ        26.3900   -2.3270   15.9400 C.ar   66  PHE66      -0.0000
     57  N         21.1970   -3.1480   16.1890 N.am   67  SER67      -0.1938
     58  CA        20.4250   -3.0150   17.4220 C.3    67  SER67       0.2055
     59  C         21.2310   -3.3130   18.6770 C.2    67  SER67       0.2642
     60  O         21.9970   -4.2820   18.7430 O.2    67  SER67      -0.2714
     61  CB        19.2130   -3.9510   17.4150 C.3    67  SER67       0.2130
     62  OG        18.4060   -3.7740   18.5760 O.3    67  SER67      -0.2179
     63  N         20.9740   -2.5000   19.7020 N.am   68  ILE68      -0.1977
     64  CA        21.3720   -2.8170   21.0640 C.3    68  ILE68       0.1596
     65  C         20.5910   -4.0220   21.5900 C.2    68  ILE68       0.2287
     66  O         19.5170   -4.3830   21.0920 O.2    68  ILE68      -0.2864
     67  CB        21.1370   -1.5820   21.9500 C.3    68  ILE68       0.0276
     68  CG1       21.9640   -1.6510   23.2250 C.3    68  ILE68       0.0022
     69  CG2       19.6490   -1.4120   22.2530 C.3    68  ILE68       0.0022
     70  CD1       23.4440   -1.4890   22.9700 C.3    68  ILE68       0.0001
     71  N         19.4100   -4.8290   25.4690 N.3    70  VAL70      -0.1245
     72  CA        19.3410   -4.4300   26.8700 C.3    70  VAL70       0.1561
     73  C         18.5080   -5.4770   27.5930 C.2    70  VAL70       0.2260
     74  O         17.3260   -5.6640   27.2750 O.2    70  VAL70      -0.2867
     75  CB        18.7320   -3.0290   27.0340 C.3    70  VAL70       0.0252
     76  CG1       18.7780   -2.6000   28.5020 C.3    70  VAL70       0.0019
     77  CG2       19.4420   -2.0170   26.1410 C.3    70  VAL70       0.0019
     78  N         17.0110   -5.8390   30.3780 N.3    72  ASP72      -0.1225
     79  CA        15.7310   -5.4460   30.9560 C.3    72  ASP72       0.1805
     80  C         15.0430   -4.3540   30.1440 C.2    72  ASP72       0.2598
     81  O         14.1420   -3.6810   30.6530 O.2    72  ASP72      -0.2718
     82  CB        15.8980   -5.0110   32.4130 C.3    72  ASP72       0.1424
     83  CG        16.8530   -3.8470   32.5810 C.2    72  ASP72       0.3668
     84  OD1       17.4200   -3.3650   31.5790 O.co2  72  ASP72      -0.2456
     85  OD2       17.0340   -3.4110   33.7410 O.co2  72  ASP72      -0.2456
     86  N         15.4310   -4.1810   28.8870 N.am   73  GLY73      -0.1943
     87  CA        14.7520   -3.2570   28.0130 C.3    73  GLY73       0.1998
     88  C         13.5130   -3.9080   27.4430 C.2    73  GLY73       0.2481
     89  O         13.5490   -5.0500   26.9750 O.2    73  GLY73      -0.2729
     90  N         12.3800   -3.2060   27.4970 N.am   74  PRO74      -0.2715
     91  CA        11.1140   -3.8400   27.0800 C.3    74  PRO74       0.1536
     92  C         11.1570   -4.4600   25.6880 C.2    74  PRO74       0.2598
     93  O         10.7300   -5.6120   25.5160 O.2    74  PRO74      -0.2715
     94  CB        10.1150   -2.6830   27.1780 C.3    74  PRO74       0.0310
     95  CG        10.6750   -1.8340   28.2940 C.3    74  PRO74       0.0237
     96  CD        12.1670   -1.8890   28.1230 C.3    74  PRO74       0.0939
     97  N         11.6740   -3.7440   24.6900 N.am   75  LEU75      -0.1964
     98  CA        11.7120   -4.3160   23.3490 C.3    75  LEU75       0.1728
     99  C         12.8900   -5.2650   23.1630 C.2    75  LEU75       0.2616
    100  O         12.7060   -6.4130   22.7520 O.2    75  LEU75      -0.2715
    101  CB        11.7610   -3.2220   22.2750 C.3    75  LEU75       0.0311
    102  CG        11.9430   -3.8120   20.8630 C.3    75  LEU75       0.0022
    103  CD1       10.7260   -4.6590   20.4650 C.3    75  LEU75       0.0001
    104  CD2       12.2190   -2.7400   19.8070 C.3    75  LEU75       0.0001
    105  N         14.1190   -4.8020   23.4260 N.am   76  THR76      -0.1951
    106  CA        15.2430   -5.6190   22.9780 C.3    76  THR76       0.1897
    107  C         15.5240   -6.8080   23.8940 C.2    76  THR76       0.2313
    108  O         16.2590   -7.7090   23.4800 O.2    76  THR76      -0.2863
    109  CB        16.5230   -4.7790   22.7830 C.3    76  THR76       0.1794
    110  OG1       16.9210   -4.1550   24.0090 O.3    76  THR76      -0.2208
    111  CG2       16.3100   -3.7040   21.7110 C.3    76  THR76       0.0378
    112  N         25.7880    2.0960   18.7770 N.3   116  THR116     -0.1218
    113  CA        24.8420    1.8180   17.6990 C.3   116  THR116      0.1862
    114  C         24.5610    3.0390   16.8360 C.2   116  THR116      0.2287
    115  O         23.8680    2.9060   15.8200 O.2   116  THR116     -0.2866
    116  CB        23.5210    1.2830   18.2660 C.3   116  THR116      0.1770
    117  OG1       22.9390    2.2610   19.1370 O.3   116  THR116     -0.2211
    118  CG2       23.7330    0.0020   19.0710 C.3   116  THR116      0.0375
    119  N         24.4860    3.3190   13.0110 N.3   119  ALA119     -0.1245
    120  CA        23.4040    2.7720   12.1860 C.3   119  ALA119      0.1562
    121  C         22.9890    3.6670   11.0220 C.2   119  ALA119      0.2260
    122  O         22.9900    3.1790    9.8770 O.2   119  ALA119     -0.2867
    123  CB        22.1940    2.4280   13.0670 C.3   119  ALA119      0.0290
    124  N         21.4560   13.7850   15.6890 N.3   251  GLU251     -0.1231
    125  CA        20.3450   12.9440   16.1080 C.3   251  GLU251      0.1699
    126  C         20.8000   12.0610   17.2610 C.2   251  GLU251      0.2592
    127  O         21.9010   11.5070   17.2330 O.2   251  GLU251     -0.2718
    128  CB        19.8390   12.0850   14.9510 C.3   251  GLU251      0.0402
    129  CG        18.5510   11.3400   15.2510 C.3   251  GLU251      0.1161
    130  CD        18.0610   10.6020   14.0270 C.2   251  GLU251      0.3649
    131  OE1       18.5180    9.4610   13.7840 O.co2 251  GLU251     -0.2457
    132  OE2       17.2270   11.1870   13.3100 O.co2 251  GLU251     -0.2457
    133  N         19.9340   11.9230   18.2610 N.am  252  ARG252     -0.1966
    134  CA        20.2420   11.0810   19.4090 C.3   252  ARG252      0.1729
    135  C         20.1380    9.6050   19.0240 C.2   252  ARG252      0.2616
    136  O         19.1630    9.1860   18.3930 O.2   252  ARG252     -0.2715
    137  CB        19.2940   11.4310   20.5580 C.3   252  ARG252      0.0348
    138  CG        19.6220   12.8150   21.1490 C.3   252  ARG252      0.0492
    139  CD        18.4470   13.5650   21.7640 C.3   252  ARG252      0.2205
    140  NE        18.8620   14.9040   22.1930 N.pl3 252  ARG252     -0.0865
    141  CZ        18.9140   15.9770   21.4030 C.cat 252  ARG252      0.5346
    142  NH1       18.5580   15.9030   20.1280 N.pl3 252  ARG252      0.1354
    143  NH2       19.3150   17.1410   21.9040 N.pl3 252  ARG252      0.1354
    144  N         21.1580    8.8160   19.3900 N.am  253  ALA253     -0.1963
    145  CA        21.1480    7.3760   19.1390 C.3   253  ALA253      0.1728
    146  C         20.2320    6.6240   20.0890 C.2   253  ALA253      0.2616
    147  O         19.8740    5.4730   19.8070 O.2   253  ALA253     -0.2715
    148  CB        22.5640    6.7890   19.2570 C.3   253  ALA253      0.0334
    149  N         19.8960    7.2350   21.2240 N.am  254  PHE254     -0.1960
    150  CA        18.9810    6.6990   22.2240 C.3   254  PHE254      0.1771
    151  C         18.6860    7.8180   23.2150 C.2   254  PHE254      0.2619
    152  O         19.3080    8.8850   23.1800 O.2   254  PHE254     -0.2715
    153  CB        19.5480    5.4570   22.9310 C.3   254  PHE254      0.0574
    154  CG        20.8630    5.6960   23.6510 C.ar  254  PHE254     -0.0200
    155  CD1       22.0770    5.5330   22.9950 C.ar  254  PHE254     -0.0042
    156  CD2       20.8730    6.0810   24.9800 C.ar  254  PHE254     -0.0042
    157  CE1       23.2810    5.7510   23.6650 C.ar  254  PHE254     -0.0003
    158  CE2       22.0700    6.2990   25.6520 C.ar  254  PHE254     -0.0003
    159  CZ        23.2650    6.1420   24.9940 C.ar  254  PHE254     -0.0000
    160  N         17.7160    7.5650   24.0880 N.am  255  VAL255     -0.1963
    161  CA        17.2870    8.5160   25.1060 C.3   255  VAL255      0.1727
    162  C         17.6760    7.9450   26.4560 C.2   255  VAL255      0.2616
    163  O         17.4520    6.7590   26.7270 O.2   255  VAL255     -0.2715
    164  CB        15.7700    8.7790   25.0320 C.3   255  VAL255      0.0290
    165  CG1       15.3500    9.8340   26.0520 C.3   255  VAL255      0.0023
    166  CG2       15.3770    9.1780   23.6180 C.3   255  VAL255      0.0023
    167  N         18.2380    8.7870   27.3150 N.am  256  ASP256     -0.1957
    168  CA        18.6590    8.3070   28.6240 C.3   256  ASP256      0.1840
    169  C         17.4760    8.0800   29.5570 C.2   256  ASP256      0.2621
    170  O         16.4350    8.7420   29.4610 O.2   256  ASP256     -0.2715
    171  CB        19.6410    9.2800   29.2590 C.3   256  ASP256      0.1450
    172  CG        21.0320    9.1160   28.7130 C.2   256  ASP256      0.3671
    173  OD1       21.5060    7.9630   28.6340 O.co2 256  ASP256     -0.2456
    174  OD2       21.6480   10.1330   28.3600 O.co2 256  ASP256     -0.2456
    175  N         17.6570    7.1230   30.4660 N.am  257  GLN257     -0.1977
    176  CA        16.6750    6.7610   31.4770 C.3   257  GLN257      0.1601
    177  C         16.9730    7.4920   32.7720 C.2   257  GLN257      0.2287
    178  O         17.8560    8.3490   32.8140 O.2   257  GLN257     -0.2864
    179  CB        16.6880    5.2500   31.7200 C.3   257  GLN257      0.0394
    180  CG        15.4300    4.5400   31.2750 C.3   257  GLN257      0.0908
    181  CD        15.5470    3.0300   31.3630 C.2   257  GLN257      0.2608
    182  OE1       16.4960    2.4940   31.9420 O.2   257  GLN257     -0.2717
    183  NE2       14.5770    2.3330   30.7860 N.am  257  GLN257     -0.0878
@<TRIPOS>BOND
     1   122   121    2
     2     1     2    1
     3     4     3    2
     4     3     2    1
     5     2     5    1
     6   121   120    1
     7    42    43    2
     8    42    41    1
     9    41    44    1
    10    41    40    1
    11    44    45    1
    12   120   119    1
    13   120   123    1
    14     5     6    1
    15    31    30    2
    16    46    47    1
    17     6     8   ar
    18     6     7   ar
    19     8    10   ar
    20   132   130   ar
    21    40    30   am
    22    30    29    1
    23    50    47    1
    24    50    51    1
    25    10    11   ar
    26     7     9   ar
    27   131   130   ar
    28    47    48    1
    29   130   129    1
    30    11     9   ar
    31    51    52   ar
    32    51    53   ar
    33    32    29    1
    34    32    33    1
    35    52    54   ar
    36    29    28    1
    37    53    55   ar
    38   128   129    1
    39   128   125    1
    40    28    25   am
    41    48    49    2
    42    48    57   am
    43    54    56   ar
    44    33    35   ar
    45    33    34   ar
    46    55    56   ar
    47    35    37   ar
    48   124   125    1
    49   115   114    2
    50   125   126    1
    51    57    58    1
    52    25    24    1
    53    25    26    2
    54    34    36   ar
    55    37    38   ar
    56    15    14    2
    57   114   113    1
    58    24    27    1
    59    24    23    1
    60   127   126    2
    61   126   133   am
    62    61    58    1
    63    61    62    1
    64    58    59    1
    65    36    38   ar
    66   113   116    1
    67   113   112    1
    68    38    39    1
    69    14    23   am
    70    14    13    1
    71   133   134    1
    72   116   118    1
    73   116   117    1
    74   136   135    2
    75    59    60    2
    76    59    63   am
    77    12    13    1
    78   135   144   am
    79   135   134    1
    80   145   148    1
    81   145   144    1
    82   145   146    1
    83    13    16    1
    84   134   137    1
    85    63    64    1
    86   104   102    1
    87   147   146    2
    88    16    17    1
    89   146   149   am
    90   142   141    1
    91   103   102    1
    92   137   138    1
    93   102   101    1
    94    64    65    1
    95    64    67    1
    96    66    65    2
    97   138   139    1
    98   149   150    1
    99    17    18    1
   100   141   143    1
   101   141   140    2
   102   111   109    1
   103   139   140    1
   104    67    69    1
   105    67    68    1
   106   150   153    1
   107   150   151    1
   108   101    98    1
   109    18    19    1
   110   100    99    2
   111   109   106    1
   112   109   110    1
   113   153   154    1
   114    70    68    1
   115   106   105    1
   116   106   107    1
   117   155   154   ar
   118   155   157   ar
   119    99    98    1
   120    99   105   am
   121   152   151    2
   122   151   160   am
   123    21    20    1
   124    98    97    1
   125   108   107    2
   126    19    20    2
   127   166   164    1
   128   154   156   ar
   129   157   159   ar
   130    20    22    1
   131   160   161    1
   132    97    92   am
   133   156   158   ar
   134   159   158   ar
   135   164   161    1
   136   164   165    1
   137   161   162    1
   138    71    72    1
   139    93    92    2
   140    92    91    1
   141    77    75    1
   142   162   163    2
   143   162   167   am
   144    72    75    1
   145    72    73    1
   146    89    88    2
   147    75    76    1
   148    91    94    1
   149    91    90    1
   150    94    95    1
   151    74    73    2
   152   167   168    1
   153    88    90   am
   154    88    87    1
   155    90    96    1
   156    87    86    1
   157    96    95    1
   158   174   172   ar
   159   168   171    1
   160   168   169    1
   161   173   172   ar
   162   172   171    1
   163    86    80   am
   164   170   169    2
   165   169   175   am
   166    80    81    2
   167    80    79    1
   168    78    79    1
   169   175   176    1
   170   183   181   am
   171    79    82    1
   172   180   181    1
   173   180   179    1
   174   181   182    2
   175   176   179    1
   176   176   177    1
   177    84    83   ar
   178    82    83    1
   179    83    85   ar
   180   177   178    2
