@<TRIPOS>MOLECULE
tmp/5thxA00.pdb
 202 193 0 0 0
SMALL
GASTEIGER

@<TRIPOS>ATOM
      1  N         28.2620   -9.1720   19.5060 N.3    15  THR15      -0.1218
      2  CA        28.6990   -9.1760   20.8950 C.3    15  THR15       0.1862
      3  C         27.4910   -9.4800   21.7670 C.2    15  THR15       0.2287
      4  O         26.3690   -9.6320   21.2730 O.2    15  THR15      -0.2866
      5  CB        29.2770   -7.8250   21.3220 C.3    15  THR15       0.1770
      6  OG1       28.2340   -6.8460   21.2720 O.3    15  THR15      -0.2211
      7  CG2       30.4300   -7.3730   20.4160 C.3    15  THR15       0.0375
      8  N         26.0860   -7.3100   23.4020 N.3    17  ALA17      -0.1231
      9  CA        25.2690   -6.1020   23.4010 C.3    17  ALA17       0.1694
     10  C         24.7760   -5.6600   22.0290 C.2    17  ALA17       0.2592
     11  O         23.8190   -4.8830   21.9730 O.2    17  ALA17      -0.2718
     12  CB        26.0380   -4.9270   24.0260 C.3    17  ALA17       0.0304
     13  N         25.4010   -6.1040   20.9350 N.am   18  TYR18      -0.1976
     14  CA        25.0710   -5.6400   19.5880 C.3    18  TYR18       0.1639
     15  C         24.6820   -6.8070   18.6880 C.2    18  TYR18       0.2290
     16  O         25.3730   -7.8330   18.6580 O.2    18  TYR18      -0.2864
     17  CB        26.2540   -4.9230   18.9080 C.3    18  TYR18       0.0560
     18  CG        26.8160   -3.6710   19.5640 C.ar   18  TYR18      -0.0198
     19  CD1       26.1110   -2.9560   20.5120 C.ar   18  TYR18      -0.0009
     20  CD2       28.0630   -3.1890   19.1780 C.ar   18  TYR18      -0.0009
     21  CE1       26.6540   -1.7850   21.0920 C.ar   18  TYR18       0.0417
     22  CE2       28.6050   -2.0470   19.7280 C.ar   18  TYR18       0.0417
     23  CZ        27.9030   -1.3410   20.6810 C.ar   18  TYR18       0.1957
     24  OH        28.4580   -0.1960   21.2370 O.3    18  TYR18      -0.2866
     25  N         20.9740   -2.5000   19.7020 N.3    68  ILE68      -0.1231
     26  CA        21.3720   -2.8170   21.0640 C.3    68  ILE68       0.1692
     27  C         20.5910   -4.0220   21.5900 C.2    68  ILE68       0.2592
     28  O         19.5170   -4.3830   21.0920 O.2    68  ILE68      -0.2718
     29  CB        21.1370   -1.5820   21.9500 C.3    68  ILE68       0.0266
     30  CG1       21.9640   -1.6510   23.2250 C.3    68  ILE68       0.0019
     31  CG2       19.6490   -1.4120   22.2530 C.3    68  ILE68       0.0020
     32  CD1       23.4440   -1.4890   22.9700 C.3    68  ILE68       0.0001
     33  N         21.1410   -4.6470   22.6340 N.am   69  LYS69      -0.1966
     34  CA        20.4330   -5.6520   23.4250 C.3    69  LYS69       0.1728
     35  C         20.5350   -5.2300   24.8830 C.2    69  LYS69       0.2616
     36  O         21.6280   -5.2510   25.4580 O.2    69  LYS69      -0.2715
     37  CB        21.0150   -7.0520   23.2100 C.3    69  LYS69       0.0311
     38  CG        20.9350   -7.5020   21.7440 C.3    69  LYS69       0.0038
     39  CD        21.5020   -8.8940   21.5150 C.3    69  LYS69       0.0206
     40  CE        23.0280   -8.8680   21.5210 C.3    69  LYS69       0.1093
     41  NZ        23.5940  -10.2380   21.4250 N.3    69  LYS69      -0.1314
     42  N         19.4100   -4.8290   25.4690 N.am   70  VAL70      -0.1977
     43  CA        19.3410   -4.4300   26.8700 C.3    70  VAL70       0.1596
     44  C         18.5080   -5.4770   27.5930 C.2    70  VAL70       0.2287
     45  O         17.3260   -5.6640   27.2750 O.2    70  VAL70      -0.2864
     46  CB        18.7320   -3.0290   27.0340 C.3    70  VAL70       0.0276
     47  CG1       18.7780   -2.6000   28.5020 C.3    70  VAL70       0.0022
     48  CG2       19.4420   -2.0170   26.1410 C.3    70  VAL70       0.0022
     49  N         28.9710    7.0110   17.9740 N.3   114  THR114     -0.1203
     50  CA        29.3710    6.0690   19.0110 C.3   114  THR114      0.1994
     51  C         28.3740    4.9230   19.0670 C.2   114  THR114      0.2618
     52  O         27.1750    5.1100   18.8410 O.2   114  THR114     -0.2717
     53  CB        29.4730    6.7280   20.4170 C.3   114  THR114      0.1784
     54  OG1       28.1930    7.2320   20.8410 O.3   114  THR114     -0.2211
     55  CG2       30.5030    7.8610   20.4280 C.3   114  THR114      0.0376
     56  N         28.8810    3.7310   19.3790 N.am  115  GLY115     -0.1942
     57  CA        27.9900    2.6080   19.6540 C.3   115  GLY115      0.2014
     58  C         27.0750    2.2960   18.4820 C.2   115  GLY115      0.2639
     59  O         27.5060    2.2180   17.3290 O.2   115  GLY115     -0.2714
     60  N         25.7880    2.0960   18.7770 N.am  116  THR116     -0.1950
     61  CA        24.8420    1.8180   17.6990 C.3   116  THR116      0.1897
     62  C         24.5610    3.0390   16.8360 C.2   116  THR116      0.2313
     63  O         23.8680    2.9060   15.8200 O.2   116  THR116     -0.2863
     64  CB        23.5210    1.2830   18.2660 C.3   116  THR116      0.1794
     65  OG1       22.9390    2.2610   19.1370 O.3   116  THR116     -0.2208
     66  CG2       23.7330    0.0020   19.0710 C.3   116  THR116      0.0378
     67  N         33.2420    5.3130   17.5400 N.3   142  GLY142     -0.1210
     68  CA        33.8320    5.0680   18.8440 C.3   142  GLY142      0.1956
     69  C         33.0590    4.0150   19.6160 C.2   142  GLY142      0.2612
     70  O         31.8350    4.0970   19.7490 O.2   142  GLY142     -0.2717
     71  N         33.7890    3.0180   20.1180 N.am  143  VAL143     -0.1965
     72  CA        33.2230    1.9400   20.9270 C.3   143  VAL143      0.1727
     73  C         34.1860    1.5850   22.0530 C.2   143  VAL143      0.2616
     74  O         35.3300    2.0450   22.0980 O.2   143  VAL143     -0.2715
     75  CB        32.9190    0.6850   20.0840 C.3   143  VAL143      0.0290
     76  CG1       31.9750    1.0060   18.9400 C.3   143  VAL143      0.0023
     77  CG2       34.2210    0.0780   19.5570 C.3   143  VAL143      0.0023
     78  N         33.7070    0.7440   22.9750 N.am  144  ARG144     -0.1963
     79  CA        34.5010    0.4390   24.1660 C.3   144  ARG144      0.1729
     80  C         35.6670   -0.4970   23.8590 C.2   144  ARG144      0.2616
     81  O         36.7980   -0.2460   24.2880 O.2   144  ARG144     -0.2715
     82  CB        33.6090   -0.1550   25.2540 C.3   144  ARG144      0.0348
     83  CG        32.5670    0.8140   25.7760 C.3   144  ARG144      0.0492
     84  CD        31.7300    0.1750   26.8690 C.3   144  ARG144      0.2205
     85  NE        30.5860    1.0100   27.1860 N.pl3 144  ARG144     -0.0865
     86  CZ        29.9020    0.9310   28.3160 C.cat 144  ARG144      0.5346
     87  NH1       30.2500    0.0400   29.2290 N.pl3 144  ARG144      0.1354
     88  NH2       28.8670    1.7300   28.5170 N.pl3 144  ARG144      0.1354
     89  N         35.4120   -1.6040   23.1570 N.am  145  TYR145     -0.1974
     90  CA        36.4290   -2.6120   22.8980 C.3   145  TYR145      0.1639
     91  C         36.5010   -2.9210   21.4090 C.2   145  TYR145      0.2290
     92  O         35.5650   -2.6480   20.6570 O.2   145  TYR145     -0.2864
     93  CB        36.1440   -3.8980   23.6830 C.3   145  TYR145      0.0560
     94  CG        36.1940   -3.6770   25.1850 C.ar  145  TYR145     -0.0198
     95  CD1       37.3920   -3.7950   25.8790 C.ar  145  TYR145     -0.0009
     96  CD2       35.0540   -3.3150   25.8960 C.ar  145  TYR145     -0.0009
     97  CE1       37.4480   -3.5830   27.2490 C.ar  145  TYR145      0.0417
     98  CE2       35.1030   -3.0960   27.2770 C.ar  145  TYR145      0.0417
     99  CZ        36.3050   -3.2300   27.9420 C.ar  145  TYR145      0.1957
    100  OH        36.3670   -3.0040   29.3090 O.3   145  TYR145     -0.2866
    101  N         36.2460   -5.7090   19.9290 N.3   147  LYS147     -0.1231
    102  CA        35.1460   -6.5910   19.5470 C.3   147  LYS147      0.1693
    103  C         33.8680   -5.8260   19.2350 C.2   147  LYS147      0.2592
    104  O         33.0050   -6.3440   18.5180 O.2   147  LYS147     -0.2718
    105  CB        34.8510   -7.5980   20.6620 C.3   147  LYS147      0.0285
    106  CG        34.3990   -6.9240   21.9650 C.3   147  LYS147      0.0035
    107  CD        33.6620   -7.8600   22.9110 C.3   147  LYS147      0.0206
    108  CE        33.3510   -7.1630   24.2440 C.3   147  LYS147      0.1093
    109  NZ        32.2630   -6.1230   24.1980 N.3   147  LYS147     -0.1314
    110  N         33.7130   -4.6160   19.7760 N.am  148  ASP148     -0.1974
    111  CA        32.5000   -3.8310   19.5670 C.3   148  ASP148      0.1709
    112  C         32.4870   -3.1170   18.2230 C.2   148  ASP148      0.2293
    113  O         31.4790   -2.4790   17.8930 O.2   148  ASP148     -0.2864
    114  CB        32.3460   -2.8040   20.6950 C.3   148  ASP148      0.1436
    115  CG        32.2860   -3.4540   22.0570 C.2   148  ASP148      0.3671
    116  OD1       31.5880   -4.4790   22.2000 O.co2 148  ASP148     -0.2456
    117  OD2       32.9320   -2.9330   22.9980 O.co2 148  ASP148     -0.2456
    118  N         37.8970    2.8570   23.1590 N.3   180  SER180     -0.1202
    119  CA        38.2030    3.6290   24.3530 C.3   180  SER180      0.2020
    120  C         38.8500    2.8280   25.4700 C.2   180  SER180      0.2618
    121  O         39.6230    3.4140   26.2340 O.2   180  SER180     -0.2717
    122  CB        36.9400    4.3160   24.8870 C.3   180  SER180      0.2103
    123  OG        35.8740    3.4050   25.0540 O.3   180  SER180     -0.2182
    124  N         38.5910    1.5240   25.5930 N.am  181  ARG181     -0.1979
    125  CA        38.9060    0.8250   26.8460 C.3   181  ARG181      0.1597
    126  C         40.0240   -0.2080   26.7320 C.2   181  ARG181      0.2287
    127  O         40.2880   -0.9330   27.7100 O.2   181  ARG181     -0.2864
    128  CB        37.6390    0.1760   27.4080 C.3   181  ARG181      0.0334
    129  CG        36.5420    1.2100   27.6730 C.3   181  ARG181      0.0492
    130  CD        35.3980    0.6940   28.5280 C.3   181  ARG181      0.2205
    131  NE        34.4310    1.7650   28.7250 N.pl3 181  ARG181     -0.0865
    132  CZ        33.5430    1.7790   29.7160 C.cat 181  ARG181      0.5346
    133  NH1       33.4900    0.7530   30.5510 N.pl3 181  ARG181      0.1354
    134  NH2       32.7060    2.8000   29.8570 N.pl3 181  ARG181      0.1354
    135  N         40.5020    6.3040   22.8940 N.3   188  GLY188     -0.1210
    136  CA        39.7870    7.2460   23.7400 C.3   188  GLY188      0.1956
    137  C         38.4080    7.5760   23.1820 C.2   188  GLY188      0.2612
    138  O         37.7060    6.6930   22.6770 O.2   188  GLY188     -0.2717
    139  N         38.0160    8.8410   23.3160 N.am  189  ARG189     -0.1965
    140  CA        36.7500    9.3510   22.8110 C.3   189  ARG189      0.1729
    141  C         36.9980   10.2610   21.6140 C.2   189  ARG189      0.2616
    142  O         38.0210   10.9520   21.5350 O.2   189  ARG189     -0.2715
    143  CB        35.9950   10.1120   23.9050 C.3   189  ARG189      0.0348
    144  CG        35.5050    9.2170   25.0220 C.3   189  ARG189      0.0492
    145  CD        34.7820   10.0080   26.0920 C.3   189  ARG189      0.2205
    146  NE        34.1830    9.1030   27.0700 N.pl3 189  ARG189     -0.0865
    147  CZ        33.3380    9.4910   28.0190 C.cat 189  ARG189      0.5346
    148  NH1       32.9740   10.7660   28.1190 N.pl3 189  ARG189      0.1354
    149  NH2       32.8400    8.5960   28.8510 N.pl3 189  ARG189      0.1354
    150  N         36.0550   10.2460   20.6700 N.am  190  LEU190     -0.1963
    151  CA        36.2390   11.0330   19.4530 C.3   190  LEU190      0.1728
    152  C         36.3220   12.5220   19.7590 C.2   190  LEU190      0.2616
    153  O         36.9880   13.2680   19.0360 O.2   190  LEU190     -0.2715
    154  CB        35.1060   10.7310   18.4620 C.3   190  LEU190      0.0311
    155  CG        33.6650   11.1640   18.7990 C.3   190  LEU190      0.0022
    156  CD1       33.3780   12.5950   18.3290 C.3   190  LEU190      0.0001
    157  CD2       32.6670   10.1850   18.1810 C.3   190  LEU190      0.0001
    158  N         35.6650   12.9690   20.8300 N.am  191  THR191     -0.1951
    159  CA        35.7350   14.3700   21.2220 C.3   191  THR191      0.1897
    160  C         37.1650   14.7730   21.5610 C.2   191  THR191      0.2313
    161  O         37.6920   15.7580   21.0260 O.2   191  THR191     -0.2863
    162  CB        34.8120   14.5930   22.4140 C.3   191  THR191      0.1794
    163  OG1       35.0250   13.5300   23.3460 O.3   191  THR191     -0.2208
    164  CG2       33.3720   14.5450   21.9600 C.3   191  THR191      0.0378
    165  N         25.2060    8.9590   21.9080 N.3   220  SER220     -0.1217
    166  CA        24.5160    9.2080   23.1600 C.3   220  SER220      0.1889
    167  C         24.2070   10.6980   23.3200 C.2   220  SER220      0.2288
    168  O         24.8920   11.5520   22.7450 O.2   220  SER220     -0.2866
    169  CB        25.3580    8.7160   24.3350 C.3   220  SER220      0.2089
    170  OG        26.5240    9.5040   24.5260 O.3   220  SER220     -0.2183
    171  N         24.9660   12.5060   25.7620 N.3   222  ALA222     -0.1231
    172  CA        26.1700   13.1280   26.3030 C.3   222  ALA222      0.1694
    173  C         27.2110   13.3400   25.2240 C.2   222  ALA222      0.2591
    174  O         27.8960   14.3680   25.2060 O.2   222  ALA222     -0.2718
    175  CB        26.7590   12.2730   27.4230 C.3   222  ALA222      0.0304
    176  N         27.3570   12.3660   24.3240 N.am  223  MET223     -0.1979
    177  CA        28.2710   12.5430   23.2110 C.3   223  MET223      0.1605
    178  C         27.8400   13.7110   22.3330 C.2   223  MET223      0.2287
    179  O         28.6770   14.5210   21.9170 O.2   223  MET223     -0.2864
    180  CB        28.3560   11.2450   22.4140 C.3   223  MET223      0.0413
    181  CG        29.1280   11.3480   21.1020 C.3   223  MET223      0.0598
    182  SD        28.0070   11.8070   19.7650 S.3   223  MET223     -0.1393
    183  CE        29.0290   11.5260   18.3170 C.3   223  MET223      0.0692
    184  N         28.8050   17.0020   24.0130 N.3   226  ASP226     -0.1239
    185  CA        30.2370   17.2840   23.9640 C.3   226  ASP226      0.1674
    186  C         30.7030   17.5620   22.5400 C.2   226  ASP226      0.2266
    187  O         31.5560   18.4300   22.3260 O.2   226  ASP226     -0.2867
    188  CB        31.0290   16.1180   24.5540 C.3   226  ASP226      0.1410
    189  CG        30.8380   15.9790   26.0570 C.2   226  ASP226      0.3668
    190  OD1       30.3640   16.9470   26.7130 O.co2 226  ASP226     -0.2456
    191  OD2       31.2080   14.9210   26.6080 O.co2 226  ASP226     -0.2456
    192  N         19.8960    7.2350   21.2240 N.3   254  PHE254     -0.1241
    193  CA        18.9810    6.6990   22.2240 C.3   254  PHE254      0.1605
    194  C         18.6860    7.8180   23.2150 C.2   254  PHE254      0.2264
    195  O         19.3080    8.8850   23.1800 O.2   254  PHE254     -0.2867
    196  CB        19.5480    5.4570   22.9310 C.3   254  PHE254      0.0534
    197  CG        20.8630    5.6960   23.6510 C.ar  254  PHE254     -0.0203
    198  CD1       22.0770    5.5330   22.9950 C.ar  254  PHE254     -0.0042
    199  CD2       20.8730    6.0810   24.9800 C.ar  254  PHE254     -0.0042
    200  CE1       23.2810    5.7510   23.6650 C.ar  254  PHE254     -0.0003
    201  CE2       22.0700    6.2990   25.6520 C.ar  254  PHE254     -0.0003
    202  CZ        23.2650    6.1420   24.9940 C.ar  254  PHE254     -0.0000
@<TRIPOS>BOND
     1    63    62    2
     2    62    61    1
     3    59    58    2
     4    67    68    1
     5    61    64    1
     6    61    60    1
     7   113   112    2
     8    49    50    1
     9   157   155    1
    10   112   111    1
    11    64    66    1
    12    64    65    1
    13   183   182    1
    14   156   155    1
    15   154   155    1
    16   154   151    1
    17    58    60   am
    18    58    57    1
    19   104   103    2
    20    16    15    2
    21    15    14    1
    22    52    51    2
    23    68    69    1
    24    17    18    1
    25    17    14    1
    26    76    75    1
    27    50    51    1
    28    50    53    1
    29   153   152    2
    30    51    56   am
    31    20    18   ar
    32    20    22   ar
    33   103   102    1
    34   103   110   am
    35    56    57    1
    36   151   152    1
    37   151   150    1
    38     1     2    1
    39   102   101    1
    40   102   105    1
    41    77    75    1
    42    18    19   ar
    43   111   110    1
    44   111   114    1
    45    14    13    1
    46    69    70    2
    47    69    71   am
    48    25    26    1
    49    22    23   ar
    50   152   158   am
    51   182   181    1
    52    75    72    1
    53    71    72    1
    54     7     5    1
    55    53    55    1
    56    53    54    1
    57    19    21   ar
    58    92    91    2
    59   105   106    1
    60   150   141   am
    61    23    21   ar
    62    23    24    1
    63   114   115    1
    64   158   159    1
    65     2     5    1
    66     2     3    1
    67    72    73    1
    68    13    10   am
    69   161   160    2
    70    26    27    1
    71    26    29    1
    72    28    27    2
    73   181   180    1
    74   159   160    1
    75   159   162    1
    76   192   193    1
    77     6     5    1
    78     4     3    2
    79    91    90    1
    80    41    40    1
    81    39    40    1
    82    39    38    1
    83   142   141    2
    84    27    33   am
    85   141   140    1
    86    38    37    1
    87   165   166    1
    88   179   178    2
    89    29    31    1
    90    29    30    1
    91   164   162    1
    92   106   107    1
    93    11    10    2
    94    10     9    1
    95    73    74    2
    96    73    78   am
    97   115   116   ar
    98   115   117   ar
    99   193   196    1
   100   193   194    1
   101   187   186    2
   102   178   177    1
   103   162   163    1
   104   180   177    1
   105   186   185    1
   106    33    34    1
   107   138   137    2
   108   168   167    2
   109   140   139    1
   110   140   143    1
   111   135   136    1
   112    90    89    1
   113    90    93    1
   114   107   108    1
   115   196   197    1
   116    32    30    1
   117    78    79    1
   118   198   197   ar
   119   198   200   ar
   120    89    80   am
   121   118   119    1
   122   166   167    1
   123   166   169    1
   124   195   194    2
   125   137   139   am
   126   137   136    1
   127    37    34    1
   128   177   176    1
   129     9     8    1
   130     9    12    1
   131    34    35    1
   132   197   199   ar
   133   200   202   ar
   134    93    94    1
   135    80    79    1
   136    80    81    2
   137   143   144    1
   138   185   184    1
   139   185   188    1
   140    79    82    1
   141   109   108    1
   142   176   173   am
   143   169   170    1
   144   119   122    1
   145   119   120    1
   146   188   189    1
   147    35    36    2
   148    35    42   am
   149   122   123    1
   150   199   201   ar
   151   202   201   ar
   152   144   145    1
   153    94    95   ar
   154    94    96   ar
   155   174   173    2
   156   173   172    1
   157    82    83    1
   158    42    43    1
   159   120   124   am
   160   120   121    2
   161   124   125    1
   162   171   172    1
   163    83    84    1
   164    95    97   ar
   165    96    98   ar
   166   189   191   ar
   167   189   190   ar
   168   145   146    1
   169    48    46    1
   170   172   175    1
   171   126   125    1
   172   126   127    2
   173   125   128    1
   174    84    85    1
   175    43    46    1
   176    43    44    1
   177    46    47    1
   178   146   147    2
   179    85    86    2
   180    97    99   ar
   181    45    44    2
   182    98    99   ar
   183   128   129    1
   184   129   130    1
   185    99   100    1
   186   147   148    1
   187   147   149    1
   188    86    88    1
   189    86    87    1
   190   130   131    1
   191   131   132    2
   192   132   134    1
   193   132   133    1
