@<TRIPOS>MOLECULE
tmp/5thzA00.pdb
 198 190 0 0 0
SMALL
GASTEIGER

@<TRIPOS>ATOM
      1  N        -10.2450   -4.2030  -19.2150 N.3   163  PHE163     -0.1241
      2  CA       -10.2770   -4.9170  -17.9350 C.3   163  PHE163      0.1605
      3  C        -10.5580   -6.4100  -18.1170 C.2   163  PHE163      0.2264
      4  O        -11.5880   -6.9070  -17.6450 O.2   163  PHE163     -0.2867
      5  CB       -11.3510   -4.3370  -17.0170 C.3   163  PHE163      0.0534
      6  CG       -11.1930   -2.8850  -16.7030 C.ar  163  PHE163     -0.0203
      7  CD1      -10.1820   -2.4460  -15.8600 C.ar  163  PHE163     -0.0042
      8  CD2      -12.0940   -1.9560  -17.2090 C.ar  163  PHE163     -0.0042
      9  CE1      -10.0500   -1.0930  -15.5650 C.ar  163  PHE163     -0.0003
     10  CE2      -11.9650   -0.5980  -16.9040 C.ar  163  PHE163     -0.0003
     11  CZ       -10.9430   -0.1730  -16.0850 C.ar  163  PHE163     -0.0000
     12  N         -4.7710   -0.1600  -13.9460 N.3   172  THR172     -0.1218
     13  CA        -4.5230    0.5000  -12.6740 C.3   172  THR172      0.1862
     14  C         -3.1240    1.1090  -12.6140 C.2   172  THR172      0.2287
     15  O         -2.9710    2.2260  -12.1120 O.2   172  THR172     -0.2866
     16  CB        -4.7510   -0.4880  -11.5210 C.3   172  THR172      0.1770
     17  OG1       -6.1630   -0.6220  -11.2710 O.3   172  THR172     -0.2211
     18  CG2       -4.0420   -0.0300  -10.2590 C.3   172  THR172      0.0375
     19  N         -3.4340    4.4480  -13.6700 N.3   175  TYR175     -0.1241
     20  CA        -4.0250    5.3340  -12.6690 C.3   175  TYR175      0.1605
     21  C         -3.1430    5.5400  -11.4470 C.2   175  TYR175      0.2264
     22  O         -3.3900    6.4680  -10.6740 O.2   175  TYR175     -0.2867
     23  CB        -5.3560    4.7790  -12.1600 C.3   175  TYR175      0.0534
     24  CG        -6.5090    4.8020  -13.1250 C.ar  175  TYR175     -0.0201
     25  CD1       -7.2640    3.6530  -13.3390 C.ar  175  TYR175     -0.0009
     26  CD2       -6.8740    5.9670  -13.7880 C.ar  175  TYR175     -0.0009
     27  CE1       -8.3270    3.6480  -14.2090 C.ar  175  TYR175      0.0417
     28  CE2       -7.9490    5.9760  -14.6630 C.ar  175  TYR175      0.0417
     29  CZ        -8.6770    4.8080  -14.8680 C.ar  175  TYR175      0.1957
     30  OH        -9.7560    4.7830  -15.7290 O.3   175  TYR175     -0.2866
     31  N        -14.7570    4.2550   -0.4150 N.3   209  GLU209     -0.1231
     32  CA       -14.2000    4.5440   -1.7220 C.3   209  GLU209      0.1699
     33  C        -15.1300    4.0000   -2.8070 C.2   209  GLU209      0.2592
     34  O        -15.4350    2.8020   -2.8270 O.2   209  GLU209     -0.2718
     35  CB       -12.7860    3.9820   -1.8660 C.3   209  GLU209      0.0402
     36  CG       -12.2600    4.3200   -3.2910 C.3   209  GLU209      0.1161
     37  CD       -10.7560    4.1410   -3.4640 C.2   209  GLU209      0.3649
     38  OE1      -10.1090    3.5100   -2.5740 O.co2 209  GLU209     -0.2457
     39  OE2      -10.2390    4.6340   -4.5080 O.co2 209  GLU209     -0.2457
     40  N        -15.5910    4.8910   -3.6960 N.am  210  ILE210     -0.1966
     41  CA       -16.4390    4.5200   -4.8340 C.3   210  ILE210      0.1727
     42  C        -15.5620    4.2200   -6.0390 C.2   210  ILE210      0.2617
     43  O        -14.5710    4.9210   -6.2920 O.2   210  ILE210     -0.2715
     44  CB       -17.4400    5.6360   -5.1660 C.3   210  ILE210      0.0290
     45  CG1      -18.4070    5.8550   -4.0080 C.3   210  ILE210      0.0022
     46  CG2      -18.1780    5.3490   -6.4980 C.3   210  ILE210      0.0023
     47  CD1      -19.0140    7.2550   -4.0100 C.3   210  ILE210      0.0001
     48  N        -15.9180    3.1610   -6.7720 N.am  211  GLY211     -0.1940
     49  CA       -15.2570    2.8230   -8.0210 C.3   211  GLY211      0.2014
     50  C        -13.7640    2.6690   -7.8510 C.2   211  GLY211      0.2639
     51  O        -12.9770    3.2300   -8.6310 O.2   211  GLY211     -0.2714
     52  N        -13.3730    1.8910   -6.8350 N.am  212  ALA212     -0.1963
     53  CA       -11.9810    1.7700   -6.4240 C.3   212  ALA212      0.1728
     54  C        -11.1530    0.8630   -7.3200 C.2   212  ALA212      0.2617
     55  O         -9.9230    0.8630   -7.1800 O.2   212  ALA212     -0.2715
     56  CB       -11.9030    1.2600   -4.9840 C.3   212  ALA212      0.0334
     57  N        -11.7710    0.1020   -8.2290 N.am  213  GLY213     -0.1940
     58  CA       -10.9710   -0.6380   -9.2060 C.3   213  GLY213      0.2014
     59  C        -10.2110   -1.7470   -8.5090 C.2   213  GLY213      0.2640
     60  O        -10.7850   -2.5080   -7.7190 O.2   213  GLY213     -0.2714
     61  N         -8.9090   -1.8600   -8.7770 N.am  214  THR214     -0.1936
     62  CA        -8.0780   -2.7800   -8.0060 C.3   214  THR214      0.2028
     63  C         -7.2200   -2.0710   -6.9740 C.2   214  THR214      0.2643
     64  O         -6.2920   -2.6820   -6.4380 O.2   214  THR214     -0.2714
     65  CB        -7.1650   -3.6010   -8.9020 C.3   214  THR214      0.1808
     66  OG1       -6.1200   -2.7490   -9.3860 O.3   214  THR214     -0.2208
     67  CG2       -7.9550   -4.2200  -10.0440 C.3   214  THR214      0.0379
     68  N         -7.4890   -0.8030   -6.6970 N.am  215  GLY215     -0.1939
     69  CA        -6.8470   -0.1150   -5.6060 C.3   215  GLY215      0.2014
     70  C         -5.7290    0.8200   -5.9890 C.2   215  GLY215      0.2639
     71  O         -4.8550    1.0820   -5.1510 O.2   215  GLY215     -0.2714
     72  N         -5.7230    1.3250   -7.2240 N.am  216  GLY216     -0.1939
     73  CA        -4.7580    2.3170   -7.6580 C.3   216  GLY216      0.2014
     74  C         -4.6100    3.4820   -6.6970 C.2   216  GLY216      0.2639
     75  O         -3.5170    3.7190   -6.1710 O.2   216  GLY216     -0.2714
     76  N         -5.7000    4.1950   -6.4190 N.am  217  THR217     -0.1950
     77  CA        -5.6070    5.2750   -5.4450 C.3   217  THR217      0.1897
     78  C         -5.6280    4.7510   -4.0090 C.2   217  THR217      0.2313
     79  O         -4.9880    5.3390   -3.1200 O.2   217  THR217     -0.2863
     80  CB        -6.7380    6.2730   -5.6890 C.3   217  THR217      0.1794
     81  OG1       -6.5310    6.9020   -6.9680 O.3   217  THR217     -0.2208
     82  CG2       -6.7980    7.3480   -4.5590 C.3   217  THR217      0.0378
     83  N        -16.6120   -1.2480   -5.4890 N.3   236  ASP236     -0.1225
     84  CA       -16.5900   -1.0480   -6.9290 C.3   236  ASP236      0.1805
     85  C        -17.8690   -1.6610   -7.4730 C.2   236  ASP236      0.2597
     86  O        -18.4900   -2.5100   -6.8260 O.2   236  ASP236     -0.2718
     87  CB       -15.3370   -1.6570   -7.5810 C.3   236  ASP236      0.1424
     88  CG       -15.1550   -1.2210   -9.0460 C.2   236  ASP236      0.3668
     89  OD1      -14.2050   -0.4580   -9.3670 O.co2 236  ASP236     -0.2456
     90  OD2      -15.9700   -1.6750   -9.8710 O.co2 236  ASP236     -0.2456
     91  N        -18.2790   -1.2170   -8.6640 N.am  237  ILE237     -0.1980
     92  CA       -19.4680   -1.8210   -9.2460 C.3   237  ILE237      0.1595
     93  C        -19.2060   -3.2840   -9.5890 C.2   237  ILE237      0.2287
     94  O        -20.1450   -4.0870   -9.6050 O.2   237  ILE237     -0.2864
     95  CB       -19.9710   -1.0340  -10.4810 C.3   237  ILE237      0.0276
     96  CG1      -21.3330   -1.5880  -10.9370 C.3   237  ILE237      0.0022
     97  CG2      -18.9610   -1.0960  -11.6260 C.3   237  ILE237      0.0022
     98  CD1      -22.0710   -0.7370  -11.9590 C.3   237  ILE237      0.0001
     99  N        -13.2450   -6.6390   -9.3300 N.3   241  PHE241     -0.1241
    100  CA       -12.3320   -5.6370   -8.8000 C.3   241  PHE241      0.1605
    101  C        -12.1640   -5.7780   -7.2850 C.2   241  PHE241      0.2264
    102  O        -11.0350   -5.7480   -6.7720 O.2   241  PHE241     -0.2867
    103  CB       -12.8300   -4.2420   -9.1840 C.3   241  PHE241      0.0534
    104  CG       -12.6500   -3.9270  -10.6480 C.ar  241  PHE241     -0.0203
    105  CD1      -13.7460   -3.7640  -11.4770 C.ar  241  PHE241     -0.0042
    106  CD2      -11.3820   -3.8390  -11.1950 C.ar  241  PHE241     -0.0042
    107  CE1      -13.5800   -3.4810  -12.8050 C.ar  241  PHE241     -0.0003
    108  CE2      -11.2090   -3.5690  -12.5370 C.ar  241  PHE241     -0.0003
    109  CZ       -12.3020   -3.3870  -13.3400 C.ar  241  PHE241     -0.0000
    110  N        -20.9840   -1.4430   -5.0270 N.3   260  LEU260     -0.1231
    111  CA       -21.8140   -0.2540   -5.0510 C.3   260  LEU260      0.1693
    112  C        -21.8980    0.2640   -6.4770 C.2   260  LEU260      0.2592
    113  O        -20.8710    0.4790   -7.1300 O.2   260  LEU260     -0.2718
    114  CB       -21.2470    0.8370   -4.1280 C.3   260  LEU260      0.0284
    115  CG       -21.8660    2.2290   -4.2200 C.3   260  LEU260      0.0019
    116  CD1      -23.3390    2.1810   -3.8570 C.3   260  LEU260      0.0001
    117  CD2      -21.1140    3.1940   -3.2930 C.3   260  LEU260      0.0001
    118  N        -23.1140    0.4910   -6.9330 N.am  261  ASP261     -0.1960
    119  CA       -23.3660    1.1840   -8.1960 C.3   261  ASP261      0.1840
    120  C        -23.8420    2.6010   -7.8650 C.2   261  ASP261      0.2622
    121  O        -24.9700    2.7980   -7.4150 O.2   261  ASP261     -0.2715
    122  CB       -24.3870    0.4050   -9.0240 C.3   261  ASP261      0.1450
    123  CG       -24.7990    1.1200  -10.3300 C.2   261  ASP261      0.3671
    124  OD1      -24.3610    2.2650  -10.5970 O.co2 261  ASP261     -0.2456
    125  OD2      -25.5950    0.5100  -11.0820 O.co2 261  ASP261     -0.2456
    126  N        -23.0000    3.5880   -8.1320 N.am  262  ILE262     -0.1963
    127  CA       -23.2480    4.9390   -7.6530 C.3   262  ILE262      0.1727
    128  C        -24.3830    5.6020   -8.4350 C.2   262  ILE262      0.2616
    129  O        -24.8440    6.6960   -8.0810 O.2   262  ILE262     -0.2715
    130  CB       -21.9450    5.7540   -7.7030 C.3   262  ILE262      0.0290
    131  CG1      -22.0680    6.9970   -6.8210 C.3   262  ILE262      0.0022
    132  CG2      -21.5670    6.0940   -9.1480 C.3   262  ILE262      0.0023
    133  CD1      -22.7680    6.7460   -5.4890 C.3   262  ILE262      0.0001
    134  N        -24.8980    4.9290   -9.4580 N.am  263  GLU263     -0.1977
    135  CA       -26.0290    5.4900  -10.2020 C.3   263  GLU263      0.1602
    136  C        -27.3770    5.1460   -9.5880 C.2   263  GLU263      0.2287
    137  O        -28.3870    5.7550   -9.9580 O.2   263  GLU263     -0.2864
    138  CB       -26.0180    5.0280  -11.6650 C.3   263  GLU263      0.0415
    139  CG       -24.6970    5.2550  -12.3390 C.3   263  GLU263      0.1163
    140  CD       -24.7950    5.1870  -13.8590 C.2   263  GLU263      0.3649
    141  OE1      -25.1110    6.2250  -14.4810 O.co2 263  GLU263     -0.2457
    142  OE2      -24.5510    4.0970  -14.4300 O.co2 263  GLU263     -0.2457
    143  N        -12.0120    8.2320   -7.1950 N.3   282  ALA282     -0.1231
    144  CA       -10.9420    8.5420   -8.1420 C.3   282  ALA282      0.1694
    145  C        -11.3180    7.9710   -9.5080 C.2   282  ALA282      0.2592
    146  O        -11.3950    6.7470   -9.6800 O.2   282  ALA282     -0.2718
    147  CB        -9.6010    7.9820   -7.6650 C.3   282  ALA282      0.0304
    148  N        -11.5630    8.8670  -10.4700 N.am  283  ASN283     -0.1960
    149  CA       -11.7330    8.5150  -11.8830 C.3   283  ASN283      0.1819
    150  C        -12.9360    7.6020  -12.1120 C.2   283  ASN283      0.2621
    151  O        -12.8380    6.5880  -12.8060 O.2   283  ASN283     -0.2715
    152  CB       -10.4560    7.8760  -12.4490 C.3   283  ASN283      0.1195
    153  CG        -9.2400    8.7990  -12.3380 C.2   283  ASN283      0.2630
    154  OD1       -8.2380    8.4580  -11.6900 O.2   283  ASN283     -0.2716
    155  ND2       -9.3250    9.9790  -12.9650 N.am  283  ASN283     -0.0877
    156  N        -14.0950    7.9780  -11.5550 N.am  284  VAL284     -0.1977
    157  CA       -15.2650    7.1130  -11.7090 C.3   284  VAL284      0.1596
    158  C        -16.5640    7.8800  -11.9280 C.2   284  VAL284      0.2287
    159  O        -17.4090    7.4520  -12.7260 O.2   284  VAL284     -0.2864
    160  CB       -15.4270    6.1630  -10.5040 C.3   284  VAL284      0.0276
    161  CG1      -15.2780    6.9350   -9.1810 C.3   284  VAL284      0.0022
    162  CG2      -16.7970    5.4480  -10.5710 C.3   284  VAL284      0.0022
    163  N        -18.1060    8.5870  -15.4820 N.3   287  ALA287     -0.1231
    164  CA       -18.5750    7.4520  -16.2570 C.3   287  ALA287      0.1694
    165  C        -20.0170    7.0620  -15.9470 C.2   287  ALA287      0.2592
    166  O        -20.3430    5.8670  -15.9090 O.2   287  ALA287     -0.2718
    167  CB       -17.6550    6.2560  -16.0020 C.3   287  ALA287      0.0304
    168  N        -20.8870    8.0500  -15.7350 N.am  288  THR288     -0.1953
    169  CA       -22.2820    7.8140  -15.3980 C.3   288  THR288      0.1897
    170  C        -23.1550    8.6510  -16.3300 C.2   288  THR288      0.2313
    171  O        -22.6550    9.3980  -17.1930 O.2   288  THR288     -0.2863
    172  CB       -22.5580    8.1180  -13.9000 C.3   288  THR288      0.1794
    173  OG1      -22.2490    9.4850  -13.5820 O.3   288  THR288     -0.2208
    174  CG2      -21.7300    7.1960  -12.9730 C.3   288  THR288      0.0378
    175  N        -10.3790    4.0950  -22.4160 N.3   324  PHE324     -0.1241
    176  CA       -11.6490    4.1600  -21.6990 C.3   324  PHE324      0.1605
    177  C        -12.8000    4.6450  -22.5740 C.2   324  PHE324      0.2264
    178  O        -13.9650    4.4770  -22.1960 O.2   324  PHE324     -0.2867
    179  CB       -11.4790    5.0450  -20.4590 C.3   324  PHE324      0.0534
    180  CG       -10.3280    4.6140  -19.6040 C.ar  324  PHE324     -0.0203
    181  CD1      -10.4060    3.4400  -18.8660 C.ar  324  PHE324     -0.0042
    182  CD2       -9.1320    5.3180  -19.6170 C.ar  324  PHE324     -0.0042
    183  CE1       -9.3320    2.9940  -18.1270 C.ar  324  PHE324     -0.0003
    184  CE2       -8.0510    4.8800  -18.8590 C.ar  324  PHE324     -0.0003
    185  CZ        -8.1530    3.7140  -18.1160 C.ar  324  PHE324     -0.0000
    186  N        -19.3090    3.2210  -20.1870 N.3   329  GLY329     -0.1225
    187  CA       -19.3980    4.3300  -19.2470 C.3   329  GLY329      0.1811
    188  C        -18.9920    5.6660  -19.8360 C.2   329  GLY329      0.2280
    189  O        -19.5110    6.7100  -19.4320 O.2   329  GLY329     -0.2866
    190  N        -22.1230    7.1070  -21.6030 N.3   332  LYS332     -0.1245
    191  CA       -23.4040    6.9520  -20.9280 C.3   332  LYS332      0.1561
    192  C        -24.1200    8.2860  -20.7880 C.2   332  LYS332      0.2260
    193  O        -25.3550    8.3190  -20.7450 O.2   332  LYS332     -0.2867
    194  CB       -23.1900    6.3330  -19.5400 C.3   332  LYS332      0.0271
    195  CG       -23.4120    4.8310  -19.4300 C.3   332  LYS332      0.0035
    196  CD       -23.3960    4.4320  -17.9550 C.3   332  LYS332      0.0206
    197  CE       -23.7240    2.9630  -17.7330 C.3   332  LYS332      0.1093
    198  NZ       -22.5110    2.1690  -17.3840 N.3   332  LYS332     -0.1314
@<TRIPOS>BOND
     1   177   178    2
     2   177   176    1
     3   175   176    1
     4   176   179    1
     5   190   191    1
     6   191   192    1
     7   191   194    1
     8   192   193    2
     9   179   180    1
    10   186   187    1
    11   188   189    2
    12   188   187    1
    13   182   180   ar
    14   182   184   ar
    15   180   181   ar
    16   194   195    1
    17   195   196    1
    18     1     2    1
    19   181   183   ar
    20   184   185   ar
    21   183   185   ar
    22     3     2    1
    23     3     4    2
    24   196   197    1
    25     2     5    1
    26   197   198    1
    27     8    10   ar
    28     8     6   ar
    29   171   170    2
    30     5     6    1
    31    10    11   ar
    32     6     7   ar
    33   170   169    1
    34   164   167    1
    35   164   165    1
    36   164   163    1
    37    11     9   ar
    38   165   166    2
    39   165   168   am
    40     7     9   ar
    41   168   169    1
    42    30    29    1
    43   169   172    1
    44    29    28   ar
    45    29    27   ar
    46    28    26   ar
    47   141   140   ar
    48   142   140   ar
    49    27    25   ar
    50    12    13    1
    51   172   173    1
    52   172   174    1
    53   140   139    1
    54    26    24   ar
    55    19    20    1
    56   109   107   ar
    57   109   108   ar
    58    25    24   ar
    59    24    23    1
    60   155   153   am
    61   151   150    2
    62   107   105   ar
    63   159   158    2
    64    13    14    1
    65    13    16    1
    66    20    23    1
    67    20    21    1
    68    14    15    2
    69   108   106   ar
    70   152   153    1
    71   152   149    1
    72   139   138    1
    73   153   154    2
    74   150   149    1
    75   150   156   am
    76    98    96    1
    77   158   157    1
    78   149   148    1
    79   157   156    1
    80   157   160    1
    81   138   135    1
    82    97    95    1
    83    16    17    1
    84    16    18    1
    85   105   104   ar
    86    21    22    2
    87   106   104   ar
    88   125   123   ar
    89    96    95    1
    90   104   103    1
    91   124   123   ar
    92   162   160    1
    93   160   161    1
    94    95    92    1
    95   148   145   am
    96   123   122    1
    97   135   136    1
    98   135   134    1
    99    67    65    1
   100   137   136    2
   101    90    88   ar
   102   146   145    2
   103    94    93    2
   104    93    92    1
   105   145   144    1
   106   134   128   am
   107    66    65    1
   108    89    88   ar
   109    99   100    1
   110    92    91    1
   111    58    59    1
   112    58    57    1
   113   103   100    1
   114   132   130    1
   115    88    87    1
   116   122   119    1
   117    65    62    1
   118   100   101    1
   119    61    59   am
   120    61    62    1
   121    91    85   am
   122    51    50    2
   123    59    60    2
   124   128   129    2
   125   128   127    1
   126    57    54   am
   127   119   120    1
   128   119   118    1
   129   144   147    1
   130   144   143    1
   131   126   120   am
   132   126   127    1
   133    49    50    1
   134    49    48    1
   135    62    63    1
   136   120   121    2
   137    50    52   am
   138   130   127    1
   139   130   131    1
   140    73    72    1
   141    73    74    1
   142    87    84    1
   143    85    84    1
   144    85    86    2
   145    54    55    2
   146    54    53    1
   147   101   102    2
   148    72    70   am
   149   113   112    2
   150    63    68   am
   151    63    64    2
   152    81    80    1
   153   118   112   am
   154    84    83    1
   155    52    53    1
   156   131   133    1
   157    48    42   am
   158    68    69    1
   159    74    76   am
   160    74    75    2
   161    46    44    1
   162   112   111    1
   163    53    56    1
   164    76    77    1
   165    43    42    2
   166    42    41    1
   167    70    69    1
   168    70    71    2
   169    80    77    1
   170    80    82    1
   171    77    78    1
   172    44    41    1
   173    44    45    1
   174   111   110    1
   175   111   114    1
   176    41    40    1
   177    39    37   ar
   178   115   114    1
   179   115   116    1
   180   115   117    1
   181    47    45    1
   182    78    79    2
   183    40    33   am
   184    37    36    1
   185    37    38   ar
   186    36    35    1
   187    34    33    2
   188    33    32    1
   189    35    32    1
   190    32    31    1
