@<TRIPOS>MOLECULE
tmp/5ti0A00.pdb
 129 123 0 0 0
SMALL
GASTEIGER

@<TRIPOS>ATOM
      1  N         -0.6290   -2.0480    6.2130 N.3    61  HIS61      -0.1241
      2  CA        -0.7280   -2.8100    7.4890 C.3    61  HIS61       0.1621
      3  C         -2.1380   -3.3060    7.7200 C.2    61  HIS61       0.2264
      4  O         -2.3090   -4.3050    8.4520 O.2    61  HIS61      -0.2867
      5  CB        -0.1250   -2.1900    8.7350 C.3    61  HIS61       0.0745
      6  CG        -0.7700   -0.9760    9.2090 C.ar   61  HIS61       0.0817
      7  ND1       -0.2740    0.2800    8.9370 N.ar   61  HIS61      -0.2268
      8  CD2       -1.8170   -0.7990   10.0620 C.ar   61  HIS61       0.1154
      9  CE1       -1.0550    1.1690    9.5540 C.ar   61  HIS61       0.1986
     10  NE2       -2.0020    0.5260   10.2110 N.ar   61  HIS61      -0.2212
     11  N         -8.3960    0.6270    5.8700 N.3    64  ASN64      -0.1240
     12  CA        -9.1920    1.5590    6.6450 C.3    64  ASN64       0.1653
     13  C        -10.3930    1.9410    5.8300 C.2    64  ASN64       0.2266
     14  O        -10.2340    2.3600    4.6470 O.2    64  ASN64      -0.2867
     15  CB        -8.4630    2.8310    6.9240 C.3    64  ASN64       0.1155
     16  CG        -7.3440    2.6440    7.8990 C.2    64  ASN64       0.2627
     17  OD1       -7.1910    1.5940    8.5060 O.2    64  ASN64      -0.2716
     18  ND2       -6.4790    3.6600    8.0380 N.am   64  ASN64      -0.0877
     19  N        -12.6340    6.3100   11.1880 N.3    89  GLN89      -0.1245
     20  CA       -12.3190    5.1670   10.3460 C.3    89  GLN89       0.1566
     21  C        -12.5960    3.9100   11.1110 C.2    89  GLN89       0.2260
     22  O        -12.6200    3.9310   12.3490 O.2    89  GLN89      -0.2867
     23  CB       -10.8840    5.1400    9.8050 C.3    89  GLN89       0.0367
     24  CG        -9.8170    5.2350   10.9090 C.3    89  GLN89       0.0905
     25  CD        -9.0940    3.9560   11.1770 C.2    89  GLN89       0.2608
     26  OE1       -9.6610    2.8880   11.1950 O.2    89  GLN89      -0.2717
     27  NE2       -7.8380    4.0690   11.4990 N.am   89  GLN89      -0.0878
     28  N        -11.1680   -0.3760   10.9150 N.3    91  HIS91      -0.1241
     29  CA       -10.2330   -1.3000   10.3700 C.3    91  HIS91       0.1621
     30  C        -10.3670   -2.5880   11.1430 C.2    91  HIS91       0.2264
     31  O        -11.0210   -2.6150   12.2020 O.2    91  HIS91      -0.2867
     32  CB        -8.8020   -0.7660   10.3380 C.3    91  HIS91       0.0745
     33  CG        -8.2900   -0.5270   11.7000 C.ar   91  HIS91       0.0817
     34  ND1       -8.4830    0.6620   12.3570 N.ar   91  HIS91      -0.2268
     35  CD2       -7.6720   -1.3250   12.5600 C.ar   91  HIS91       0.1154
     36  CE1       -8.0040    0.5510   13.6030 C.ar   91  HIS91       0.1986
     37  NE2       -7.4840   -0.6760   13.7430 N.ar   91  HIS91      -0.2212
     38  N         -8.0140   -6.2710   12.4730 N.3    93  HIS93      -0.1241
     39  CA        -6.8050   -7.0490   12.6220 C.3    93  HIS93       0.1621
     40  C         -7.2080   -8.5200   12.5240 C.2    93  HIS93       0.2264
     41  O         -8.2630   -8.8570   13.0930 O.2    93  HIS93      -0.2867
     42  CB        -6.1430   -6.7830   13.9840 C.3    93  HIS93       0.0745
     43  CG        -5.8660   -5.3270   14.3250 C.ar   93  HIS93       0.0817
     44  ND1       -4.6180   -4.7830   14.1670 N.ar   93  HIS93      -0.2268
     45  CD2       -6.6680   -4.3020   14.6990 C.ar   93  HIS93       0.1154
     46  CE1       -4.6540   -3.5070   14.5750 C.ar   93  HIS93       0.1986
     47  NE2       -5.9150   -3.1550   14.8270 N.ar   93  HIS93      -0.2212
     48  N        -11.9600   -2.5460   14.8270 N.3   116  HIS116     -0.1241
     49  CA       -11.7470   -1.3390   15.5830 C.3   116  HIS116      0.1621
     50  C        -12.4010   -0.1930   14.8940 C.2   116  HIS116      0.2264
     51  O        -11.9840    0.1750   13.8020 O.2   116  HIS116     -0.2867
     52  CB       -10.2400   -1.0620   15.6640 C.3   116  HIS116      0.0745
     53  CG        -9.5460   -2.0350   16.5700 C.ar  116  HIS116      0.0817
     54  ND1       -8.1580   -2.2880   16.5540 N.ar  116  HIS116     -0.2268
     55  CD2      -10.0670   -2.8940   17.4480 C.ar  116  HIS116      0.1154
     56  CE1       -7.8930   -3.1480   17.4920 C.ar  116  HIS116      0.1986
     57  NE2       -9.0380   -3.6030   18.0180 N.ar  116  HIS116     -0.2212
     58  N        -12.7190    3.5650   15.1900 N.3   118  VAL118     -0.1245
     59  CA       -11.9070    4.6470   15.7790 C.3   118  VAL118      0.1561
     60  C        -12.6640    5.9560   15.7920 C.2   118  VAL118      0.2260
     61  O        -13.0610    6.4630   14.7230 O.2   118  VAL118     -0.2867
     62  CB       -10.6010    4.7680   15.0710 C.3   118  VAL118      0.0252
     63  CG1       -9.7040    5.8060   15.7040 C.3   118  VAL118      0.0019
     64  CG2       -9.8700    3.4360   14.9190 C.3   118  VAL118      0.0019
     65  N         -8.3130   14.8310   14.6210 N.3   127  PHE127     -0.1241
     66  CA        -7.7180   13.5150   15.0270 C.3   127  PHE127      0.1605
     67  C         -6.2860   13.7160   15.4530 C.2   127  PHE127      0.2264
     68  O         -5.8450   13.1830   16.4870 O.2   127  PHE127     -0.2867
     69  CB        -7.8000   12.5490   13.8700 C.3   127  PHE127      0.0534
     70  CG        -7.1480   11.2310   14.1330 C.ar  127  PHE127     -0.0203
     71  CD1       -7.7850   10.2450   14.8380 C.ar  127  PHE127     -0.0042
     72  CD2       -5.7960   10.9850   13.8040 C.ar  127  PHE127     -0.0042
     73  CE1       -7.1880    9.0770   15.0470 C.ar  127  PHE127     -0.0003
     74  CE2       -5.1700    9.7710   14.0450 C.ar  127  PHE127     -0.0003
     75  CZ        -5.9000    8.8030   14.7000 C.ar  127  PHE127     -0.0000
     76  N         -9.0390    9.5110   22.0790 N.3   137  LEU137     -0.1245
     77  CA        -9.7170    8.5510   21.2220 C.3   137  LEU137      0.1561
     78  C        -10.6440    7.6270   22.0320 C.2   137  LEU137      0.2260
     79  O        -10.3540    7.3970   23.2120 O.2   137  LEU137     -0.2867
     80  CB        -8.7270    7.6760   20.5100 C.3   137  LEU137      0.0270
     81  CG        -7.8490    8.3460   19.4680 C.3   137  LEU137      0.0019
     82  CD1       -7.1500    7.2430   18.6380 C.3   137  LEU137      0.0001
     83  CD2       -8.4580    9.3630   18.5230 C.3   137  LEU137      0.0001
     84  N        -12.0650    3.8230   21.0690 N.3   139  VAL139     -0.1245
     85  CA       -12.0470    2.7470   20.0870 C.3   139  VAL139      0.1561
     86  C        -13.0480    1.6900   20.5070 C.2   139  VAL139      0.2260
     87  O        -12.8910    1.1780   21.6510 O.2   139  VAL139     -0.2867
     88  CB       -10.7150    2.1590   19.7430 C.3   139  VAL139      0.0252
     89  CG1      -10.7960    1.1020   18.6040 C.3   139  VAL139      0.0019
     90  CG2       -9.7380    3.2810   19.3480 C.3   139  VAL139      0.0019
     91  N         -3.2790    3.0380   21.0600 N.3   194  GLY194     -0.1210
     92  CA        -3.4080    2.4020   19.7160 C.3   194  GLY194      0.1956
     93  C         -2.5830    1.2010   19.7090 C.2   194  GLY194      0.2613
     94  O         -1.5640    1.0950   20.4310 O.2   194  GLY194     -0.2717
     95  N         -2.9060    0.2380   18.8590 N.am  195  THR195     -0.1938
     96  CA        -2.1340   -1.0140   18.8130 C.3   195  THR195      0.2028
     97  C         -1.1440   -1.1160   17.6980 C.2   195  THR195      0.2642
     98  O         -0.4860   -2.1330   17.5730 O.2   195  THR195     -0.2714
     99  CB        -3.0740   -2.2030   18.8030 C.3   195  THR195      0.1808
    100  OG1       -3.7030   -2.1920   17.5240 O.3   195  THR195     -0.2208
    101  CG2       -4.1290   -2.2600   19.8900 C.3   195  THR195      0.0379
    102  N         -1.0370   -0.0430   16.9150 N.am  196  THR196     -0.1950
    103  CA         0.0360    0.1000   15.9390 C.3   196  THR196      0.1897
    104  C          0.8660    1.3060   16.2630 C.2   196  THR196      0.2313
    105  O          0.3660    2.2980   16.8150 O.2   196  THR196     -0.2863
    106  CB        -0.5500    0.3160   14.5110 C.3   196  THR196      0.1794
    107  OG1       -1.5420    1.4000   14.5270 O.3   196  THR196     -0.2208
    108  CG2       -1.2770   -0.9070   14.0290 C.3   196  THR196      0.0378
    109  N         -6.1920    6.2060   24.1330 N.3   203  VAL203     -0.1245
    110  CA        -7.4060    5.4590   23.7850 C.3   203  VAL203      0.1561
    111  C         -8.1970    5.0470   25.0170 C.2   203  VAL203      0.2260
    112  O         -7.6690    4.3930   25.8780 O.2   203  VAL203     -0.2867
    113  CB        -7.1120    4.1750   22.9330 C.3   203  VAL203      0.0252
    114  CG1       -8.4240    3.4490   22.6630 C.3   203  VAL203      0.0019
    115  CG2       -6.4070    4.5930   21.6440 C.3   203  VAL203      0.0019
    116  N        -10.5790    2.3190   25.5680 N.3   205  TRP205     -0.1241
    117  CA       -11.0790    1.0890   24.9220 C.3   205  TRP205      0.1605
    118  C        -12.4540    0.7120   25.3920 C.2   205  TRP205      0.2264
    119  O        -12.6440    0.6690   26.5930 O.2   205  TRP205     -0.2867
    120  CB       -10.1260   -0.0800   25.1300 C.3   205  TRP205      0.0550
    121  CG        -8.9270   -0.0020   24.2100 C.ar  205  TRP205      0.0003
    122  CD1       -7.6730    0.5410   24.4070 C.ar  205  TRP205      0.0946
    123  CD2       -8.9900   -0.3780   22.7840 C.ar  205  TRP205      0.0152
    124  NE1       -7.0020    0.4750   23.2550 N.ar  205  TRP205     -0.2442
    125  CE2       -7.7290   -0.0990   22.2400 C.ar  205  TRP205      0.0810
    126  CE3       -9.9550   -0.9900   21.9740 C.ar  205  TRP205      0.0012
    127  CZ2       -7.4910   -0.3540   20.9020 C.ar  205  TRP205      0.0191
    128  CZ3       -9.7100   -1.2630   20.7330 C.ar  205  TRP205      0.0001
    129  CH2       -8.4920   -0.9780   20.1860 C.ar  205  TRP205      0.0015
@<TRIPOS>BOND
     1    14    13    2
     2    13    12    1
     3    11    12    1
     4     1     2    1
     5    12    15    1
     6    15    16    1
     7     2     3    1
     8     2     5    1
     9     3     4    2
    10    16    18   am
    11    16    17    2
    12     5     6    1
    13     7     6   ar
    14     7     9   ar
    15     6     8   ar
    16     9    10   ar
    17    23    20    1
    18    23    24    1
    19     8    10   ar
    20    32    29    1
    21    32    33    1
    22    20    21    1
    23    20    19    1
    24    29    28    1
    25    29    30    1
    26    24    25    1
    27    21    22    2
    28    30    31    2
    29    25    26    2
    30    25    27   am
    31    33    34   ar
    32    33    35   ar
    33    34    36   ar
    34    38    39    1
    35    40    39    1
    36    40    41    2
    37    35    37   ar
    38    39    42    1
    39    36    37   ar
    40    51    50    2
    41    72    74   ar
    42    72    70   ar
    43    69    70    1
    44    69    66    1
    45    42    43    1
    46   108   106    1
    47    74    75   ar
    48    70    71   ar
    49    44    43   ar
    50    44    46   ar
    51    43    45   ar
    52   106   107    1
    53   106   103    1
    54    46    47   ar
    55    65    66    1
    56    45    47   ar
    57    75    73   ar
    58    61    60    2
    59    48    49    1
    60    71    73   ar
    61    50    49    1
    62    64    62    1
    63    66    67    1
    64    62    63    1
    65    62    59    1
    66    58    59    1
    67    67    68    2
    68    49    52    1
    69    52    53    1
    70    59    60    1
    71   103   104    1
    72   103   102    1
    73   104   105    2
    74    54    53   ar
    75    54    56   ar
    76    53    55   ar
    77   102    97   am
    78    55    57   ar
    79    56    57   ar
    80   100    99    1
    81    98    97    2
    82    97    96    1
    83    83    81    1
    84    89    88    1
    85    82    81    1
    86    99    96    1
    87    99   101    1
    88    96    95    1
    89    95    93   am
    90    90    88    1
    91    81    80    1
    92    93    92    1
    93    93    94    2
    94    92    91    1
    95    88    85    1
    96    85    86    1
    97    85    84    1
    98   129   128   ar
    99   129   127   ar
   100    86    87    2
   101    80    77    1
   102   128   126   ar
   103   127   125   ar
   104    77    78    1
   105    77    76    1
   106   115   113    1
   107   126   123   ar
   108    78    79    2
   109   125   123   ar
   110   125   124   ar
   111   114   113    1
   112   123   121   ar
   113   113   110    1
   114   124   122   ar
   115   110   109    1
   116   110   111    1
   117   121   122   ar
   118   121   120    1
   119   117   120    1
   120   117   118    1
   121   117   116    1
   122   111   112    2
   123   118   119    2
