@<TRIPOS>MOLECULE
tmp/5ti3A00.pdb
 125 121 0 0 0
SMALL
GASTEIGER

@<TRIPOS>ATOM
      1  N         40.9350   43.5860   79.6220 N.3    40  TRP40      -0.1228
      2  CA        40.7740   42.2360   80.1420 C.3    40  TRP40       0.1722
      3  C         42.0660   41.4050   80.3290 C.2    40  TRP40       0.2437
      4  O         42.1370   40.6660   81.3080 O.2    40  TRP40      -0.2733
      5  CB        39.7540   41.4440   79.2860 C.3    40  TRP40       0.0563
      6  CG        40.0450   41.3160   77.8280 C.ar   40  TRP40       0.0003
      7  CD1       39.6570   42.1710   76.8400 C.ar   40  TRP40       0.0946
      8  CD2       40.7730   40.2640   77.1820 C.ar   40  TRP40       0.0152
      9  NE1       40.1020   41.7190   75.6250 N.ar   40  TRP40      -0.2442
     10  CE2       40.7930   40.5540   75.8080 C.ar   40  TRP40       0.0810
     11  CE3       41.4220   39.1100   77.6360 C.ar   40  TRP40       0.0012
     12  CZ2       41.4330   39.7340   74.8810 C.ar   40  TRP40       0.0191
     13  CZ3       42.0590   38.3050   76.7150 C.ar   40  TRP40       0.0001
     14  CH2       42.0520   38.6110   75.3570 C.ar   40  TRP40       0.0015
     15  N         43.0710   41.4990   79.4230 N.am   41  PRO41      -0.2718
     16  CA        44.2610   40.6780   79.6930 C.3    41  PRO41       0.1535
     17  C         45.0070   41.0960   80.9530 C.2    41  PRO41       0.2598
     18  O         45.8410   40.3290   81.4480 O.2    41  PRO41      -0.2715
     19  CB        45.1430   40.9130   78.4670 C.3    41  PRO41       0.0310
     20  CG        44.2360   41.4280   77.4290 C.3    41  PRO41       0.0237
     21  CD        43.2560   42.2640   78.1780 C.3    41  PRO41       0.0939
     22  N         44.6940   42.2830   81.4560 N.am   42  PHE42      -0.1974
     23  CA        45.4480   42.9110   82.5230 C.3    42  PHE42       0.1639
     24  C         44.6790   42.9720   83.8390 C.2    42  PHE42       0.2290
     25  O         45.1840   43.5300   84.8060 O.2    42  PHE42      -0.2864
     26  CB        45.8670   44.3280   82.0830 C.3    42  PHE42       0.0560
     27  CG        46.6710   44.3280   80.8130 C.ar   42  PHE42      -0.0200
     28  CD1       48.0170   43.9840   80.8180 C.ar   42  PHE42      -0.0042
     29  CD2       46.0650   44.6170   79.6180 C.ar   42  PHE42      -0.0042
     30  CE1       48.7560   43.9570   79.6360 C.ar   42  PHE42      -0.0003
     31  CE2       46.7910   44.5920   78.4360 C.ar   42  PHE42      -0.0003
     32  CZ        48.1390   44.2590   78.4500 C.ar   42  PHE42      -0.0000
     33  N         48.7290   36.9490   85.3670 N.3    46  VAL46      -0.1245
     34  CA        48.8990   36.0800   84.2180 C.3    46  VAL46       0.1561
     35  C         48.8140   34.6100   84.6330 C.2    46  VAL46       0.2260
     36  O         49.5880   34.1390   85.4820 O.2    46  VAL46      -0.2867
     37  CB        50.2330   36.3440   83.5320 C.3    46  VAL46       0.0252
     38  CG1       50.5210   35.2650   82.4720 C.3    46  VAL46       0.0019
     39  CG2       50.2450   37.7240   82.9090 C.3    46  VAL46       0.0019
     40  N         47.1100   29.8770   79.8040 N.3    51  LEU51      -0.1245
     41  CA        47.5540   30.5490   78.5870 C.3    51  LEU51       0.1561
     42  C         48.6940   29.7790   77.9030 C.2    51  LEU51       0.2260
     43  O         49.1440   30.1550   76.8390 O.2    51  LEU51      -0.2867
     44  CB        47.9660   31.9960   78.9290 C.3    51  LEU51       0.0270
     45  CG        46.8640   32.8210   79.5930 C.3    51  LEU51       0.0019
     46  CD1       47.3690   34.2080   79.9470 C.3    51  LEU51       0.0001
     47  CD2       45.7030   32.9140   78.6520 C.3    51  LEU51       0.0001
     48  N         51.9300   29.3560   78.7190 N.3    53  LEU53      -0.1245
     49  CA        53.1310   30.1910   78.6840 C.3    53  LEU53       0.1561
     50  C         54.0810   29.7260   79.7920 C.2    53  LEU53       0.2260
     51  O         54.3160   30.4290   80.7610 O.2    53  LEU53      -0.2867
     52  CB        52.7740   31.6620   78.8700 C.3    53  LEU53       0.0270
     53  CG        51.7380   32.2260   77.9050 C.3    53  LEU53       0.0019
     54  CD1       51.4360   33.6340   78.3650 C.3    53  LEU53       0.0001
     55  CD2       52.2290   32.1780   76.4950 C.3    53  LEU53       0.0001
     56  N         56.7620   32.0590   81.1580 N.3    56  TYR56      -0.1241
     57  CA        56.4020   33.4240   81.5510 C.3    56  TYR56       0.1605
     58  C         57.0570   33.8490   82.8610 C.2    56  TYR56       0.2264
     59  O         57.6380   34.9260   82.9360 O.2    56  TYR56      -0.2867
     60  CB        54.8740   33.6010   81.6550 C.3    56  TYR56       0.0534
     61  CG        54.4990   35.0410   81.9060 C.ar   56  TYR56      -0.0201
     62  CD1       54.3900   35.9490   80.8620 C.ar   56  TYR56      -0.0009
     63  CD2       54.3350   35.5290   83.2080 C.ar   56  TYR56      -0.0009
     64  CE1       54.1020   37.2810   81.0950 C.ar   56  TYR56       0.0417
     65  CE2       54.0360   36.8710   83.4320 C.ar   56  TYR56       0.0417
     66  CZ        53.9290   37.7350   82.3830 C.ar   56  TYR56       0.1957
     67  OH        53.6280   39.0690   82.6000 O.3    56  TYR56      -0.2866
     68  N         53.7350   46.5680   85.1790 N.3    91  MET91      -0.1245
     69  CA        52.7940   45.8160   84.3670 C.3    91  MET91       0.1570
     70  C         53.0390   46.0440   82.8800 C.2    91  MET91       0.2261
     71  O         53.0840   45.0960   82.0790 O.2    91  MET91      -0.2867
     72  CB        51.3790   46.2310   84.7290 C.3    91  MET91       0.0387
     73  CG        50.2740   45.5210   83.9330 C.3    91  MET91       0.0595
     74  SD        48.6330   46.0310   84.3810 S.3    91  MET91      -0.1393
     75  CE        48.5080   47.5440   83.4450 C.3    91  MET91       0.0692
     76  N         54.8980   43.3400   79.9080 N.3    95  CYS95      -0.1235
     77  CA        54.2440   43.0090   78.6330 C.3    95  CYS95       0.1677
     78  C         55.2240   43.1980   77.4830 C.2    95  CYS95       0.2270
     79  O         55.3450   42.3540   76.6040 O.2    95  CYS95      -0.2867
     80  CB        53.0220   43.8790   78.4440 C.3    95  CYS95       0.0956
     81  SG        52.0290   43.4580   77.0370 S.3    95  CYS95      -0.0801
     82  N         58.0870   40.5280   77.5990 N.3    98  TYR98      -0.1227
     83  CA        57.7490   39.1530   77.2840 C.3    98  TYR98       0.1736
     84  C         57.3240   38.9390   75.8280 C.2    98  TYR98       0.2595
     85  O         57.6350   37.9000   75.2320 O.2    98  TYR98      -0.2718
     86  CB        56.6430   38.6530   78.2390 C.3    98  TYR98       0.0548
     87  CG        56.3460   37.2120   77.9830 C.ar   98  TYR98      -0.0200
     88  CD1       57.2130   36.2270   78.3910 C.ar   98  TYR98      -0.0009
     89  CD2       55.2280   36.8470   77.2620 C.ar   98  TYR98      -0.0009
     90  CE1       56.9600   34.8940   78.1060 C.ar   98  TYR98       0.0417
     91  CE2       54.9660   35.5340   76.9670 C.ar   98  TYR98       0.0417
     92  CZ        55.8260   34.5530   77.3990 C.ar   98  TYR98       0.1957
     93  OH        55.5670   33.2240   77.0950 O.3    98  TYR98      -0.2866
     94  N         56.5580   39.8690   75.2800 N.am   99  ASN99      -0.1974
     95  CA        55.9730   39.7230   73.9490 C.3    99  ASN99       0.1688
     96  C         56.8320   40.4370   72.9060 C.2    99  ASN99       0.2292
     97  O         57.8620   40.9890   73.2510 O.2    99  ASN99      -0.2864
     98  CB        54.5560   40.2630   73.9910 C.3    99  ASN99       0.1181
     99  CG        53.6950   39.5160   75.0080 C.2    99  ASN99       0.2629
    100  OD1       53.2560   38.3940   74.7450 O.2    99  ASN99      -0.2716
    101  ND2       53.4760   40.1230   76.1760 N.am   99  ASN99      -0.0877
    102  N         49.2430   41.6120   69.4360 N.3   104  ASP104     -0.1225
    103  CA        47.9880   42.1880   69.9260 C.3   104  ASP104      0.1805
    104  C         48.1200   42.6660   71.3700 C.2   104  ASP104      0.2597
    105  O         47.7140   43.7760   71.6930 O.2   104  ASP104     -0.2718
    106  CB        46.8380   41.1760   69.8330 C.3   104  ASP104      0.1424
    107  CG        46.2350   41.0760   68.4290 C.2   104  ASP104      0.3668
    108  OD1       46.4440   41.9820   67.5910 O.co2 104  ASP104     -0.2456
    109  OD2       45.5350   40.0720   68.1690 O.co2 104  ASP104     -0.2456
    110  N         48.7140   41.8490   72.2360 N.am  105  ILE105     -0.1980
    111  CA        48.7660   42.2060   73.6440 C.3   105  ILE105      0.1595
    112  C         49.6120   43.4870   73.8550 C.2   105  ILE105      0.2287
    113  O         49.3400   44.2730   74.7450 O.2   105  ILE105     -0.2864
    114  CB        49.2980   41.0190   74.5020 C.3   105  ILE105      0.0276
    115  CG1       49.0370   41.2680   75.9980 C.3   105  ILE105      0.0022
    116  CG2       50.7840   40.7280   74.1780 C.3   105  ILE105      0.0022
    117  CD1       47.5880   41.4580   76.3550 C.3   105  ILE105      0.0001
    118  N         47.5310   46.4550   72.9050 N.3   108  MET108     -0.1245
    119  CA        46.5830   46.6690   73.9870 C.3   108  MET108      0.1570
    120  C         47.2600   47.4010   75.1390 C.2   108  MET108      0.2261
    121  O         46.7340   48.4100   75.6190 O.2   108  MET108     -0.2867
    122  CB        45.9980   45.3410   74.4320 C.3   108  MET108      0.0387
    123  CG        45.1710   44.7520   73.3370 C.3   108  MET108      0.0595
    124  SD        44.7470   43.0930   73.6960 S.3   108  MET108     -0.1393
    125  CE        43.3290   43.4160   74.5860 C.3   108  MET108      0.0692
@<TRIPOS>BOND
     1   108   107   ar
     2   109   107   ar
     3   107   106    1
     4   102   103    1
     5   106   103    1
     6   103   104    1
     7   104   105    2
     8   104   110   am
     9   110   111    1
    10   118   119    1
    11    96    97    2
    12    96    95    1
    13   123   124    1
    14   123   122    1
    15   111   112    1
    16   111   114    1
    17   124   125    1
    18   112   113    2
    19    95    98    1
    20    95    94    1
    21   119   122    1
    22   119   120    1
    23    98    99    1
    24   116   114    1
    25   114   115    1
    26   100    99    2
    27    12    14   ar
    28    12    10   ar
    29    99   101   am
    30   120   121    2
    31    85    84    2
    32    94    84   am
    33    14    13   ar
    34     9    10   ar
    35     9     7   ar
    36    10     8   ar
    37    84    83    1
    38   115   117    1
    39    55    53    1
    40    79    78    2
    41    13    11   ar
    42    43    42    2
    43     7     6   ar
    44    91    89   ar
    45    91    92   ar
    46    81    80    1
    47    93    92    1
    48     8    11   ar
    49     8     6   ar
    50    89    87   ar
    51    83    82    1
    52    83    86    1
    53    92    90   ar
    54    20    21    1
    55    20    19    1
    56    78    77    1
    57     6     5    1
    58    42    41    1
    59    53    54    1
    60    53    52    1
    61    87    86    1
    62    87    88   ar
    63    90    88   ar
    64    21    15    1
    65    31    32   ar
    66    31    29   ar
    67    80    77    1
    68    32    30   ar
    69    19    16    1
    70    41    44    1
    71    41    40    1
    72    77    76    1
    73    47    45    1
    74    49    48    1
    75    49    52    1
    76    49    50    1
    77    44    45    1
    78     5     2    1
    79    15    16    1
    80    15     3   am
    81    45    46    1
    82    29    27   ar
    83     1     2    1
    84    30    28   ar
    85    16    17    1
    86    50    51    2
    87     2     3    1
    88     3     4    2
    89    27    28   ar
    90    27    26    1
    91    62    64   ar
    92    62    61   ar
    93    17    18    2
    94    17    22   am
    95    64    66   ar
    96    56    57    1
    97    22    23    1
    98    57    60    1
    99    57    58    1
   100    60    61    1
   101    61    63   ar
   102    71    70    2
   103    26    23    1
   104    66    67    1
   105    66    65   ar
   106    38    37    1
   107    23    24    1
   108    58    59    2
   109    70    69    1
   110    39    37    1
   111    63    65   ar
   112    75    74    1
   113    37    34    1
   114    24    25    2
   115    73    74    1
   116    73    72    1
   117    34    35    1
   118    34    33    1
   119    69    72    1
   120    69    68    1
   121    35    36    2
