@<TRIPOS>MOLECULE
tmp/5ti9C02.pdb
 111 108 0 0 0
SMALL
GASTEIGER

@<TRIPOS>ATOM
      1  N         14.5050  -50.2310   -1.9140 N.3    63  VAL63      -0.1231
      2  CA        15.2250  -51.2020   -2.7430 C.3    63  VAL63       0.1692
      3  C         15.3840  -52.5190   -1.9650 C.2    63  VAL63       0.2591
      4  O         15.8020  -53.5470   -2.5100 O.2    63  VAL63      -0.2718
      5  CB        16.6120  -50.6690   -3.1980 C.3    63  VAL63       0.0266
      6  CG1       17.5530  -50.4680   -2.0070 C.3    63  VAL63       0.0020
      7  CG2       17.2480  -51.6010   -4.2020 C.3    63  VAL63       0.0020
      8  N         15.0440  -52.5030   -0.6830 N.am   64  ARG64      -0.1980
      9  CA        15.2370  -53.7070    0.1040 C.3    64  ARG64       0.1597
     10  C         14.1120  -54.6740   -0.1980 C.2    64  ARG64       0.2287
     11  O         14.2990  -55.8940   -0.1640 O.2    64  ARG64      -0.2864
     12  CB        15.3410  -53.3760    1.5850 C.3    64  ARG64       0.0334
     13  CG        16.6910  -52.7070    1.9290 C.3    64  ARG64       0.0492
     14  CD        16.6380  -51.9680    3.2480 C.3    64  ARG64       0.2205
     15  NE        17.6290  -52.4840    4.1870 N.pl3  64  ARG64      -0.0865
     16  CZ        18.7080  -51.8200    4.5760 C.cat  64  ARG64       0.5346
     17  NH1       19.5500  -52.3820    5.4260 N.pl3  64  ARG64       0.1354
     18  NH2       18.9400  -50.5990    4.1180 N.pl3  64  ARG64       0.1354
     19  N         12.4460  -56.3760   -2.8020 N.3    66  GLU66      -0.1245
     20  CA        12.9210  -56.6840   -4.1320 C.3    66  GLU66       0.1567
     21  C         11.8530  -56.5680   -5.2020 C.2    66  GLU66       0.2260
     22  O         12.1550  -56.6580   -6.3900 O.2    66  GLU66      -0.2867
     23  CB        13.5520  -58.0660   -4.1250 C.3    66  GLU66       0.0388
     24  CG        14.5200  -58.1730   -2.9700 C.3    66  GLU66       0.1160
     25  CD        15.3230  -59.4380   -2.9680 C.2    66  GLU66       0.3649
     26  OE1       14.9880  -60.3510   -3.7480 O.co2  66  GLU66      -0.2457
     27  OE2       16.2960  -59.5100   -2.1830 O.co2  66  GLU66      -0.2457
     28  N         12.7020  -53.8830   -7.9680 N.3    69  MET69      -0.1245
     29  CA        13.8240  -53.9750   -8.8950 C.3    69  MET69       0.1570
     30  C         13.4020  -53.7400  -10.3390 C.2    69  MET69       0.2261
     31  O         14.1520  -53.1440  -11.1290 O.2    69  MET69      -0.2867
     32  CB        14.5300  -55.3360   -8.7610 C.3    69  MET69       0.0387
     33  CG        15.1890  -55.5460   -7.3870 C.3    69  MET69       0.0595
     34  SD        16.4670  -54.3140   -7.0100 S.3    69  MET69      -0.1393
     35  CE        17.5110  -54.5400   -8.4330 C.3    69  MET69       0.0692
     36  N         24.0900  -51.1770   -0.9820 N.3   159  TRP159     -0.1241
     37  CA        23.2150  -52.2760   -1.3950 C.3   159  TRP159      0.1605
     38  C         23.9840  -53.5240   -1.7820 C.2   159  TRP159      0.2264
     39  O         23.6120  -54.6420   -1.3890 O.2   159  TRP159     -0.2867
     40  CB        22.3480  -51.8210   -2.5540 C.3   159  TRP159      0.0550
     41  CG        21.5880  -52.8880   -3.2530 C.ar  159  TRP159      0.0003
     42  CD1       20.4560  -53.5090   -2.8170 C.ar  159  TRP159      0.0946
     43  CD2       21.8620  -53.4190   -4.5480 C.ar  159  TRP159      0.0152
     44  NE1       20.0190  -54.4140   -3.7490 N.ar  159  TRP159     -0.2442
     45  CE2       20.8630  -54.3830   -4.8240 C.ar  159  TRP159      0.0810
     46  CE3       22.8530  -53.1750   -5.5070 C.ar  159  TRP159      0.0012
     47  CZ2       20.8230  -55.1020   -6.0160 C.ar  159  TRP159      0.0191
     48  CZ3       22.8190  -53.9000   -6.6930 C.ar  159  TRP159      0.0001
     49  CH2       21.8120  -54.8560   -6.9340 C.ar  159  TRP159      0.0015
     50  N         25.3070  -55.6530    1.0320 N.3   162  ARG162     -0.1231
     51  CA        24.3440  -56.5360    1.7010 C.3   162  ARG162      0.1694
     52  C         23.9320  -57.7570    0.8810 C.2   162  ARG162      0.2593
     53  O         23.0070  -58.4630    1.2730 O.2   162  ARG162     -0.2718
     54  CB        23.0680  -55.7870    2.0680 C.3   162  ARG162      0.0321
     55  CG        23.2270  -54.4720    2.7760 C.3   162  ARG162      0.0489
     56  CD        21.8560  -54.0000    3.2480 C.3   162  ARG162      0.2205
     57  NE        20.9570  -53.6440    2.1420 N.pl3 162  ARG162     -0.0865
     58  CZ        20.8950  -52.4350    1.5870 C.cat 162  ARG162      0.5346
     59  NH1       21.6870  -51.4610    2.0190 N.pl3 162  ARG162      0.1354
     60  NH2       20.0550  -52.1960    0.5910 N.pl3 162  ARG162      0.1354
     61  N         24.6050  -57.9970   -0.2430 N.am  163  THR163     -0.1940
     62  CA        24.2820  -59.1080   -1.1320 C.3   163  THR163      0.2013
     63  C         24.3150  -60.4740   -0.4410 C.2   163  THR163      0.2484
     64  O         25.2990  -60.8140    0.2100 O.2   163  THR163     -0.2729
     65  CB        25.2440  -59.1390   -2.3200 C.3   163  THR163      0.1807
     66  OG1       25.2380  -57.8640   -2.9530 O.3   163  THR163     -0.2208
     67  CG2       24.8430  -60.1940   -3.3370 C.3   163  THR163      0.0379
     68  N         23.2190  -61.2550   -0.5730 N.am  164  PRO164     -0.2726
     69  CA        23.1570  -62.6090   -0.0060 C.3   164  PRO164      0.1402
     70  C         24.2780  -63.4990   -0.5240 C.2   164  PRO164      0.2269
     71  O         24.5420  -63.5170   -1.7190 O.2   164  PRO164     -0.2865
     72  CB        21.7820  -63.1370   -0.4590 C.3   164  PRO164      0.0296
     73  CG        21.2670  -62.1360   -1.4430 C.3   164  PRO164      0.0237
     74  CD        21.9220  -60.8250   -1.1240 C.3   164  PRO164      0.0939
     75  N         27.0020  -61.5570   -7.8290 N.3   230  ILE230     -0.1245
     76  CA        25.8980  -61.3950   -8.7390 C.3   230  ILE230      0.1561
     77  C         26.3400  -61.7760  -10.1510 C.2   230  ILE230      0.2260
     78  O         25.5790  -62.4130  -10.8720 O.2   230  ILE230     -0.2867
     79  CB        25.3520  -59.9550   -8.6980 C.3   230  ILE230      0.0252
     80  CG1       24.6410  -59.7160   -7.3710 C.3   230  ILE230      0.0019
     81  CG2       24.4340  -59.6650   -9.9150 C.3   230  ILE230      0.0019
     82  CD1       24.3800  -58.2700   -7.0990 C.3   230  ILE230      0.0001
     83  N         16.9300  -64.5700   -7.7250 N.3   238  ARG238     -0.1231
     84  CA        17.0940  -63.2910   -7.0260 C.3   238  ARG238      0.1694
     85  C         18.1980  -62.4060   -7.6360 C.2   238  ARG238      0.2592
     86  O         18.2610  -61.2060   -7.3770 O.2   238  ARG238     -0.2718
     87  CB        17.3680  -63.5170   -5.5530 C.3   238  ARG238      0.0321
     88  CG        16.1250  -63.9820   -4.7740 C.3   238  ARG238      0.0489
     89  CD        15.9760  -63.2220   -3.4550 C.3   238  ARG238      0.2205
     90  NE        16.7510  -63.8310   -2.3810 N.pl3 238  ARG238     -0.0865
     91  CZ        17.2340  -63.1860   -1.3180 C.cat 238  ARG238      0.5346
     92  NH1       17.9040  -63.8640   -0.3960 N.pl3 238  ARG238      0.1354
     93  NH2       17.0590  -61.8780   -1.1630 N.pl3 238  ARG238      0.1354
     94  N         19.0490  -62.9960   -8.4670 N.am  239  PHE239     -0.1976
     95  CA        20.1960  -62.2720   -9.0030 C.3   239  PHE239      0.1639
     96  C         19.9970  -61.7600  -10.4250 C.2   239  PHE239      0.2290
     97  O         20.7370  -60.8970  -10.8830 O.2   239  PHE239     -0.2864
     98  CB        21.4390  -63.1590   -8.9300 C.3   239  PHE239      0.0560
     99  CG        22.0130  -63.2640   -7.5440 C.ar  239  PHE239     -0.0200
    100  CD1       21.6580  -62.3500   -6.5670 C.ar  239  PHE239     -0.0042
    101  CD2       22.8960  -64.2760   -7.2110 C.ar  239  PHE239     -0.0042
    102  CE1       22.1930  -62.4310   -5.2800 C.ar  239  PHE239     -0.0003
    103  CE2       23.4340  -64.3580   -5.9320 C.ar  239  PHE239     -0.0003
    104  CZ        23.0850  -63.4300   -4.9710 C.ar  239  PHE239     -0.0000
    105  N         18.9130  -57.9060  -10.4640 N.3   242  PRO242     -0.2116
    106  CA        20.1280  -57.1980  -10.0160 C.3   242  PRO242      0.1372
    107  C         21.2720  -57.2340  -11.0180 C.2   242  PRO242      0.2244
    108  O         21.9750  -56.2310  -11.1830 O.2   242  PRO242     -0.2868
    109  CB        20.5180  -57.9530   -8.7500 C.3   242  PRO242      0.0268
    110  CG        19.2020  -58.4150   -8.2030 C.3   242  PRO242      0.0207
    111  CD        18.3850  -58.7860   -9.4010 C.3   242  PRO242      0.0892
@<TRIPOS>BOND
     1   108   107    2
     2    31    30    2
     3   107   106    1
     4    97    96    2
     5    78    77    2
     6   105   106    1
     7   105   111    1
     8    96    95    1
     9    30    29    1
    10    77    76    1
    11   106   109    1
    12    81    79    1
    13   111   110    1
    14    95    98    1
    15    95    94    1
    16    98    99    1
    17    29    32    1
    18    29    28    1
    19    32    33    1
    20   109   110    1
    21    76    79    1
    22    76    75    1
    23    79    80    1
    24    94    85   am
    25    35    34    1
    26    83    84    1
    27    85    86    2
    28    85    84    1
    29    99   101   ar
    30    99   100   ar
    31    33    34    1
    32    80    82    1
    33   101   103   ar
    34    84    87    1
    35    49    48   ar
    36    49    47   ar
    37    48    46   ar
    38   100   102   ar
    39    22    21    2
    40    47    45   ar
    41   103   104   ar
    42    87    88    1
    43    46    43   ar
    44   102   104   ar
    45    21    20    1
    46    45    43   ar
    47    45    44   ar
    48    88    89    1
    49    43    41   ar
    50     7     5    1
    51    20    23    1
    52    20    19    1
    53    23    24    1
    54    44    42   ar
    55    26    25   ar
    56    89    90    1
    57    67    65    1
    58    41    42   ar
    59    41    40    1
    60     5     2    1
    61     5     6    1
    62    24    25    1
    63    25    27   ar
    64    66    65    1
    65     2     3    1
    66     2     1    1
    67    40    37    1
    68     4     3    2
    69    90    91    2
    70    65    62    1
    71     3     8   am
    72    38    37    1
    73    38    39    2
    74    71    70    2
    75    73    74    1
    76    73    72    1
    77    37    36    1
    78    91    93    1
    79    91    92    1
    80    62    63    1
    81    62    61    1
    82    74    68    1
    83     8     9    1
    84    68    63   am
    85    68    69    1
    86    70    69    1
    87    72    69    1
    88    63    64    2
    89    61    52   am
    90    10    11    2
    91    10     9    1
    92     9    12    1
    93    60    58    1
    94    52    53    2
    95    52    51    1
    96    50    51    1
    97    12    13    1
    98    58    59    1
    99    58    57    2
   100    51    54    1
   101    13    14    1
   102    54    55    1
   103    57    56    1
   104    55    56    1
   105    14    15    1
   106    18    16    1
   107    15    16    2
   108    16    17    1
