@<TRIPOS>MOLECULE
tmp/5ti9C01.pdb
 99 94 0 0 0
SMALL
GASTEIGER

@<TRIPOS>ATOM
      1  N         21.6700  -24.0090  -33.2390 N.3    33  PHE33      -0.1241
      2  CA        22.5730  -24.0630  -32.1150 C.3    33  PHE33       0.1605
      3  C         21.8150  -23.8910  -30.8030 C.2    33  PHE33       0.2264
      4  O         21.9870  -24.6480  -29.8480 O.2    33  PHE33      -0.2867
      5  CB        23.6300  -22.9650  -32.2820 C.3    33  PHE33       0.0534
      6  CG        24.6940  -22.9890  -31.2530 C.ar   33  PHE33      -0.0203
      7  CD1       25.8290  -23.7770  -31.4300 C.ar   33  PHE33      -0.0042
      8  CD2       24.5780  -22.2240  -30.1000 C.ar   33  PHE33      -0.0042
      9  CE1       26.8410  -23.7970  -30.4710 C.ar   33  PHE33      -0.0003
     10  CE2       25.5880  -22.2330  -29.1370 C.ar   33  PHE33      -0.0003
     11  CZ        26.7230  -23.0260  -29.3230 C.ar   33  PHE33      -0.0000
     12  N         20.8350  -27.1830  -27.9500 N.3    37  HIS37      -0.1241
     13  CA        21.2360  -27.1350  -26.5430 C.3    37  HIS37       0.1621
     14  C         20.0170  -27.2660  -25.6680 C.2    37  HIS37       0.2264
     15  O         20.0620  -27.9090  -24.6120 O.2    37  HIS37      -0.2867
     16  CB        22.0080  -25.8450  -26.2080 C.3    37  HIS37       0.0745
     17  CG        23.4410  -25.8880  -26.6150 C.ar   37  HIS37       0.0817
     18  ND1       23.8650  -25.5720  -27.8930 N.ar   37  HIS37      -0.2268
     19  CD2       24.5540  -26.2270  -25.9230 C.ar   37  HIS37       0.1154
     20  CE1       25.1750  -25.7170  -27.9680 C.ar   37  HIS37       0.1986
     21  NE2       25.6170  -26.1190  -26.7880 N.ar   37  HIS37      -0.2212
     22  N         29.1090  -21.6270  -38.3650 N.3   101  PHE101     -0.1241
     23  CA        29.2760  -21.4750  -36.9330 C.3   101  PHE101      0.1605
     24  C         30.1330  -20.2500  -36.6750 C.2   101  PHE101      0.2264
     25  O         29.8260  -19.4150  -35.8200 O.2   101  PHE101     -0.2867
     26  CB        29.9170  -22.7120  -36.3090 C.3   101  PHE101      0.0534
     27  CG        30.1610  -22.5620  -34.8430 C.ar  101  PHE101     -0.0203
     28  CD1       29.1380  -22.1630  -34.0060 C.ar  101  PHE101     -0.0042
     29  CD2       31.4070  -22.8100  -34.3000 C.ar  101  PHE101     -0.0042
     30  CE1       29.3470  -22.0140  -32.6650 C.ar  101  PHE101     -0.0003
     31  CE2       31.6240  -22.6620  -32.9460 C.ar  101  PHE101     -0.0003
     32  CZ        30.5910  -22.2610  -32.1280 C.ar  101  PHE101     -0.0000
     33  N         29.7300  -17.2540  -33.7200 N.3   105  ARG105     -0.1245
     34  CA        30.5500  -17.6230  -32.5740 C.3   105  ARG105      0.1563
     35  C         30.9310  -16.4440  -31.6790 C.2   105  ARG105      0.2260
     36  O         30.8480  -16.5570  -30.4560 O.2   105  ARG105     -0.2867
     37  CB        31.8160  -18.3220  -33.0350 C.3   105  ARG105      0.0307
     38  CG        32.5920  -18.9160  -31.8710 C.3   105  ARG105      0.0489
     39  CD        33.6450  -19.9300  -32.2960 C.3   105  ARG105      0.2205
     40  NE        34.3190  -20.4790  -31.1260 N.pl3 105  ARG105     -0.0865
     41  CZ        35.5250  -20.1020  -30.7040 C.cat 105  ARG105      0.5346
     42  NH1       36.0640  -20.6480  -29.6120 N.pl3 105  ARG105      0.1354
     43  NH2       36.2010  -19.1890  -31.3870 N.pl3 105  ARG105      0.1354
     44  N         28.8280  -15.4470  -28.5990 N.3   108  LEU108     -0.1245
     45  CA        28.5810  -16.4510  -27.5740 C.3   108  LEU108      0.1561
     46  C         29.4340  -16.1520  -26.3780 C.2   108  LEU108      0.2260
     47  O         29.0370  -16.4160  -25.2360 O.2   108  LEU108     -0.2867
     48  CB        28.8740  -17.8600  -28.0910 C.3   108  LEU108      0.0270
     49  CG        28.0430  -18.3400  -29.2980 C.3   108  LEU108      0.0019
     50  CD1       28.4020  -19.7740  -29.6590 C.3   108  LEU108      0.0001
     51  CD2       26.5820  -18.2300  -28.9790 C.3   108  LEU108      0.0001
     52  N         30.0160  -17.3290  -22.8420 N.3   111  ALA111     -0.1231
     53  CA        29.2450  -18.5090  -22.4400 C.3   111  ALA111      0.1694
     54  C         29.8850  -19.8180  -22.9520 C.2   111  ALA111      0.2593
     55  O         30.5980  -19.8070  -23.9490 O.2   111  ALA111     -0.2718
     56  CB        27.8130  -18.3880  -22.9280 C.3   111  ALA111      0.0304
     57  N         29.6450  -20.9270  -22.2510 N.am  112  SER112     -0.1938
     58  CA        29.9980  -22.2660  -22.7510 C.3   112  SER112      0.2055
     59  C         29.2960  -23.3810  -21.9540 C.2   112  SER112      0.2643
     60  O         28.6420  -23.1210  -20.9470 O.2   112  SER112     -0.2714
     61  CB        31.5130  -22.4890  -22.7090 C.3   112  SER112      0.2130
     62  OG        31.9840  -22.6800  -21.3800 O.3   112  SER112     -0.2179
     63  N         29.4560  -24.6180  -22.4080 N.am  113  GLY113     -0.1954
     64  CA        28.8660  -25.7760  -21.7640 C.3   113  GLY113      0.1869
     65  C         29.3020  -25.9050  -20.3160 C.2   113  GLY113      0.2309
     66  O         28.5290  -26.3740  -19.4740 O.2   113  GLY113     -0.2863
     67  N         30.9980  -35.3710  -28.6980 N.3   263  HIS263     -0.1241
     68  CA        31.1860  -33.9420  -28.4480 C.3   263  HIS263      0.1621
     69  C         32.5880  -33.4790  -28.9260 C.2   263  HIS263      0.2264
     70  O         32.7240  -32.5180  -29.6730 O.2   263  HIS263     -0.2867
     71  CB        30.9710  -33.6820  -26.9570 C.3   263  HIS263      0.0745
     72  CG        31.0870  -32.2540  -26.5420 C.ar  263  HIS263      0.0817
     73  ND1       31.9910  -31.8340  -25.5870 N.ar  263  HIS263     -0.2268
     74  CD2       30.3790  -31.1570  -26.9040 C.ar  263  HIS263      0.1154
     75  CE1       31.8450  -30.5350  -25.3910 C.ar  263  HIS263      0.1986
     76  NE2       30.8820  -30.0990  -26.1870 N.ar  263  HIS263     -0.2212
     77  N         36.2930  -25.9590  -34.1740 N.3   271  LEU271     -0.1245
     78  CA        37.3030  -25.0670  -33.6200 C.3   271  LEU271      0.1561
     79  C         38.7040  -25.3440  -34.1550 C.2   271  LEU271      0.2260
     80  O         39.5450  -24.4550  -34.1620 O.2   271  LEU271     -0.2867
     81  CB        37.3290  -25.1810  -32.0840 C.3   271  LEU271      0.0270
     82  CG        36.0500  -24.7660  -31.3490 C.3   271  LEU271      0.0019
     83  CD1       36.3140  -24.4970  -29.8660 C.3   271  LEU271      0.0001
     84  CD2       35.3740  -23.5600  -32.0200 C.3   271  LEU271      0.0001
     85  N         38.5000  -22.6410  -26.4920 N.3   276  GLY276     -0.1210
     86  CA        37.0780  -22.5170  -26.2550 C.3   276  GLY276      0.1956
     87  C         36.7230  -21.2150  -25.5610 C.2   276  GLY276      0.2613
     88  O         37.4720  -20.7370  -24.7030 O.2   276  GLY276     -0.2717
     89  N         35.5770  -20.6500  -25.9410 N.am  277  THR277     -0.1938
     90  CA        34.9880  -19.4700  -25.2930 C.3   277  THR277      0.2028
     91  C         34.9880  -19.5370  -23.7510 C.2   277  THR277      0.2642
     92  O         35.0580  -18.5150  -23.0710 O.2   277  THR277     -0.2714
     93  CB        33.5160  -19.2580  -25.7580 C.3   277  THR277      0.1808
     94  OG1       32.7720  -20.4580  -25.5180 O.3   277  THR277     -0.2208
     95  CG2       33.4330  -18.8950  -27.2420 C.3   277  THR277      0.0379
     96  N         34.8840  -20.7420  -23.2060 N.am  278  GLY278     -0.1954
     97  CA        34.8530  -20.9150  -21.7720 C.3   278  GLY278      0.1869
     98  C         36.2420  -20.9180  -21.1820 C.2   278  GLY278      0.2309
     99  O         36.4010  -21.0470  -19.9710 O.2   278  GLY278     -0.2863
@<TRIPOS>BOND
     1    22    23    1
     2    23    24    1
     3    23    26    1
     4    24    25    2
     5    26    27    1
     6    27    29   ar
     7    27    28   ar
     8    29    31   ar
     9    77    78    1
    10    80    79    2
    11    79    78    1
    12    28    30   ar
    13    33    34    1
    14    78    81    1
    15     1     2    1
    16    37    34    1
    17    37    38    1
    18    31    32   ar
    19    30    32   ar
    20    34    35    1
    21    39    38    1
    22    39    40    1
    23     5     2    1
    24     5     6    1
    25     2     3    1
    26    81    82    1
    27    84    82    1
    28    35    36    2
    29     7     6   ar
    30     7     9   ar
    31    43    41    1
    32    82    83    1
    33     6     8   ar
    34    40    41    2
    35     3     4    2
    36    41    42    1
    37     9    11   ar
    38     8    10   ar
    39    70    69    2
    40    50    49    1
    41    11    10   ar
    42    49    51    1
    43    49    48    1
    44    69    68    1
    45    67    68    1
    46    44    45    1
    47    68    71    1
    48    48    45    1
    49    20    18   ar
    50    20    21   ar
    51    12    13    1
    52    18    17   ar
    53    45    46    1
    54    95    93    1
    55    71    72    1
    56    74    72   ar
    57    74    76   ar
    58    21    19   ar
    59    17    16    1
    60    17    19   ar
    61    13    16    1
    62    13    14    1
    63    72    73   ar
    64    85    86    1
    65    46    47    2
    66    86    87    1
    67    76    75   ar
    68    89    87   am
    69    89    90    1
    70    93    94    1
    71    93    90    1
    72    14    15    2
    73    73    75   ar
    74    87    88    2
    75    90    91    1
    76    55    54    2
    77    91    96   am
    78    91    92    2
    79    96    97    1
    80    54    53    1
    81    54    57   am
    82    56    53    1
    83    52    53    1
    84    58    61    1
    85    58    57    1
    86    58    59    1
    87    61    62    1
    88    63    59   am
    89    63    64    1
    90    59    60    2
    91    97    98    1
    92    64    65    1
    93    98    99    2
    94    65    66    2
