@<TRIPOS>MOLECULE
tmp/5ti9D01.pdb
 84 80 0 0 0
SMALL
GASTEIGER

@<TRIPOS>ATOM
      1  N          6.4550  -38.0780  -20.2960 N.3    34  PHE34      -0.1241
      2  CA         5.4670  -37.7820  -21.3140 C.3    34  PHE34       0.1605
      3  C          5.5560  -36.3080  -21.6970 C.2    34  PHE34       0.2264
      4  O          5.5050  -35.9560  -22.8840 O.2    34  PHE34      -0.2867
      5  CB         4.0800  -38.1700  -20.7970 C.3    34  PHE34       0.0534
      6  CG         3.0000  -38.0760  -21.8160 C.ar   34  PHE34      -0.0203
      7  CD1        2.8190  -39.0900  -22.7470 C.ar   34  PHE34      -0.0042
      8  CD2        2.1420  -36.9900  -21.8300 C.ar   34  PHE34      -0.0042
      9  CE1        1.8140  -39.0090  -23.6950 C.ar   34  PHE34      -0.0003
     10  CE2        1.1300  -36.8990  -22.7730 C.ar   34  PHE34      -0.0003
     11  CZ         0.9590  -37.9080  -23.7050 C.ar   34  PHE34      -0.0000
     12  N          7.2990  -34.6580  -25.4860 N.3    38  HIS38      -0.1241
     13  CA         6.5560  -33.7340  -26.3530 C.3    38  HIS38       0.1621
     14  C          7.2620  -32.3700  -26.5220 C.2    38  HIS38       0.2264
     15  O          7.3010  -31.7920  -27.6190 O.2    38  HIS38      -0.2867
     16  CB         5.1330  -33.5260  -25.8050 C.3    38  HIS38       0.0745
     17  CG         4.1620  -34.5870  -26.2180 C.ar   38  HIS38       0.0817
     18  ND1        3.9670  -35.7480  -25.4940 N.ar   38  HIS38      -0.2268
     19  CD2        3.3170  -34.6560  -27.2770 C.ar   38  HIS38       0.1154
     20  CE1        3.0420  -36.4840  -26.0860 C.ar   38  HIS38       0.1986
     21  NE2        2.6380  -35.8490  -27.1740 N.ar   38  HIS38      -0.2212
     22  N          1.3060  -45.6770  -18.1660 N.3   102  PHE102     -0.1241
     23  CA         0.7060  -44.5730  -18.8950 C.3   102  PHE102      0.1605
     24  C         -0.7270  -44.3960  -18.4050 C.2   102  PHE102      0.2264
     25  O         -1.1800  -43.2760  -18.2000 O.2   102  PHE102     -0.2867
     26  CB         0.7340  -44.8000  -20.4130 C.3   102  PHE102      0.0534
     27  CG        -0.0830  -43.7910  -21.1780 C.ar  102  PHE102     -0.0203
     28  CD1        0.2030  -42.4430  -21.0870 C.ar  102  PHE102     -0.0042
     29  CD2       -1.1680  -44.1870  -21.9430 C.ar  102  PHE102     -0.0042
     30  CE1       -0.5370  -41.4960  -21.7950 C.ar  102  PHE102     -0.0003
     31  CE2       -1.9280  -43.2520  -22.6290 C.ar  102  PHE102     -0.0003
     32  CZ        -1.6060  -41.8940  -22.5550 C.ar  102  PHE102     -0.0000
     33  N         -3.2970  -40.9900  -17.6090 N.3   106  ARG106     -0.1245
     34  CA        -3.9840  -40.6560  -18.8390 C.3   106  ARG106      0.1563
     35  C         -5.2160  -39.7790  -18.5890 C.2   106  ARG106      0.2260
     36  O         -5.4350  -38.8000  -19.3040 O.2   106  ARG106     -0.2867
     37  CB        -4.3780  -41.9220  -19.5790 C.3   106  ARG106      0.0307
     38  CG        -5.0590  -41.6360  -20.8910 C.3   106  ARG106      0.0489
     39  CD        -5.3770  -42.9230  -21.5830 C.3   106  ARG106      0.2205
     40  NE        -6.1150  -42.6920  -22.8170 N.pl3 106  ARG106     -0.0865
     41  CZ        -7.0880  -43.4800  -23.2550 C.cat 106  ARG106      0.5346
     42  NH1       -7.6940  -43.2070  -24.3990 N.pl3 106  ARG106      0.1354
     43  NH2       -7.4490  -44.5480  -22.5490 N.pl3 106  ARG106      0.1354
     44  N         -4.9590  -35.9400  -18.6790 N.3   109  LEU109     -0.1245
     45  CA        -4.6390  -35.2970  -19.9460 C.3   109  LEU109      0.1561
     46  C         -5.8510  -34.6970  -20.6100 C.2   109  LEU109      0.2260
     47  O         -5.7410  -33.6620  -21.2580 O.2   109  LEU109     -0.2867
     48  CB        -3.9920  -36.2950  -20.9210 C.3   109  LEU109      0.0270
     49  CG        -2.7180  -36.9200  -20.3750 C.3   109  LEU109      0.0019
     50  CD1       -2.0290  -37.7400  -21.4180 C.3   109  LEU109      0.0001
     51  CD2       -1.8260  -35.8390  -19.8460 C.3   109  LEU109      0.0001
     52  N         -6.8930  -32.7360  -23.8170 N.3   112  ALA112     -0.1231
     53  CA        -5.7640  -32.3560  -24.6810 C.3   112  ALA112      0.1694
     54  C         -5.3740  -33.5460  -25.5420 C.2   112  ALA112      0.2593
     55  O         -5.5580  -34.6910  -25.1180 O.2   112  ALA112     -0.2718
     56  CB        -4.5830  -31.8770  -23.8710 C.3   112  ALA112      0.0304
     57  N         -4.8960  -33.2730  -26.7590 N.am  113  SER113     -0.1938
     58  CA        -4.2540  -34.2960  -27.6060 C.3   113  SER113      0.2055
     59  C         -3.3110  -33.6830  -28.6340 C.2   113  SER113      0.2643
     60  O         -3.3460  -32.4650  -28.8910 O.2   113  SER113     -0.2714
     61  CB        -5.2840  -35.1330  -28.3550 C.3   113  SER113      0.2130
     62  OG        -5.7680  -34.4460  -29.5040 O.3   113  SER113     -0.2179
     63  N         -2.5250  -34.5560  -29.2590 N.am  114  GLY114     -0.1954
     64  CA        -1.5660  -34.1870  -30.2840 C.3   114  GLY114      0.1869
     65  C         -2.2510  -33.4760  -31.4250 C.2   114  GLY114      0.2309
     66  O         -1.6490  -32.6520  -32.1200 O.2   114  GLY114     -0.2863
     67  N          4.3260  -43.3850  -34.4170 N.3   286  HIS286     -0.1241
     68  CA         3.2840  -42.8460  -33.5900 C.3   286  HIS286      0.1621
     69  C          2.1870  -43.9040  -33.4260 C.2   286  HIS286      0.2264
     70  O          2.0050  -44.4480  -32.3400 O.2   286  HIS286     -0.2867
     71  CB         2.7750  -41.5740  -34.2550 C.3   286  HIS286      0.0745
     72  CG         1.6910  -40.8770  -33.5140 C.ar  286  HIS286      0.0817
     73  ND1        0.4850  -40.5630  -34.1010 N.ar  286  HIS286     -0.2268
     74  CD2        1.6400  -40.3790  -32.2590 C.ar  286  HIS286      0.1154
     75  CE1       -0.2660  -39.9080  -33.2350 C.ar  286  HIS286      0.1986
     76  NE2        0.4150  -39.7810  -32.1120 N.ar  286  HIS286     -0.2212
     77  N         -2.9590  -47.8740  -25.9220 N.3   294  LEU294     -0.1245
     78  CA        -4.3960  -47.7090  -25.8840 C.3   294  LEU294      0.1561
     79  C         -5.1630  -48.9580  -26.3720 C.2   294  LEU294      0.2260
     80  O         -6.3650  -49.0840  -26.1400 O.2   294  LEU294     -0.2867
     81  CB        -4.7820  -46.4640  -26.7050 C.3   294  LEU294      0.0270
     82  CG        -4.9710  -45.1820  -25.8820 C.3   294  LEU294      0.0019
     83  CD1       -4.0390  -45.1020  -24.6740 C.3   294  LEU294      0.0001
     84  CD2       -4.8560  -43.9230  -26.7260 C.3   294  LEU294      0.0001
@<TRIPOS>BOND
     1    67    68    1
     2    71    68    1
     3    71    72    1
     4    73    72   ar
     5    73    75   ar
     6    68    69    1
     7    72    74   ar
     8    69    70    2
     9    75    76   ar
    10    74    76   ar
    11    66    65    2
    12    65    64    1
    13    64    63    1
    14    62    61    1
    15    63    59   am
    16    60    59    2
    17    59    58    1
    18    61    58    1
    19    15    14    2
    20    58    57    1
    21    19    21   ar
    22    19    17   ar
    23    21    20   ar
    24    57    54   am
    25    84    82    1
    26    81    78    1
    27    81    82    1
    28    14    13    1
    29    79    80    2
    30    79    78    1
    31    13    16    1
    32    13    12    1
    33    17    16    1
    34    17    18   ar
    35    20    18   ar
    36    77    78    1
    37    82    83    1
    38    54    55    2
    39    54    53    1
    40    53    56    1
    41    53    52    1
    42    42    41    1
    43    11     9   ar
    44    11    10   ar
    45     9     7   ar
    46    41    40    2
    47    41    43    1
    48     4     3    2
    49    40    39    1
    50    10     8   ar
    51     7     6   ar
    52    31    32   ar
    53    31    29   ar
    54    32    30   ar
    55    29    27   ar
    56     8     6   ar
    57     6     5    1
    58    30    28   ar
    59     3     2    1
    60    39    38    1
    61    50    49    1
    62     2     5    1
    63     2     1    1
    64    47    46    2
    65    27    28   ar
    66    27    26    1
    67    48    49    1
    68    48    45    1
    69    38    37    1
    70    46    45    1
    71    26    23    1
    72    49    51    1
    73    45    44    1
    74    37    34    1
    75    36    35    2
    76    23    24    1
    77    23    22    1
    78    34    35    1
    79    34    33    1
    80    24    25    2
