@<TRIPOS>MOLECULE
tmp/5ti9A01.pdb
 89 84 0 0 0
SMALL
GASTEIGER

@<TRIPOS>ATOM
      1  N         29.0520  -64.2110  -32.1080 N.3    34  PHE34      -0.1241
      2  CA        30.3880  -63.6650  -32.2660 C.3    34  PHE34       0.1605
      3  C         30.8370  -63.8250  -33.7290 C.2    34  PHE34       0.2264
      4  O         31.3340  -62.8850  -34.3760 O.2    34  PHE34      -0.2867
      5  CB        31.3150  -64.3750  -31.2780 C.3    34  PHE34       0.0534
      6  CG        32.7130  -63.8280  -31.2120 C.ar   34  PHE34      -0.0203
      7  CD1       33.0230  -62.7640  -30.3610 C.ar   34  PHE34      -0.0042
      8  CD2       33.7410  -64.4200  -31.9540 C.ar   34  PHE34      -0.0042
      9  CE1       34.3310  -62.2840  -30.2700 C.ar   34  PHE34      -0.0003
     10  CE2       35.0540  -63.9410  -31.8670 C.ar   34  PHE34      -0.0003
     11  CZ        35.3480  -62.8860  -31.0270 C.ar   34  PHE34      -0.0000
     12  N         31.1650  -60.6410  -36.8190 N.3    38  HIS38      -0.1241
     13  CA        32.4300  -60.3850  -37.5410 C.3    38  HIS38       0.1621
     14  C         32.2500  -60.5470  -39.0480 C.2    38  HIS38       0.2264
     15  O         32.8400  -59.8110  -39.8740 O.2    38  HIS38      -0.2867
     16  CB        33.5410  -61.3150  -37.0480 C.3    38  HIS38       0.0745
     17  CG        34.1870  -60.8540  -35.7840 C.ar   38  HIS38       0.0817
     18  ND1       33.7560  -61.2590  -34.5320 N.ar   38  HIS38      -0.2268
     19  CD2       35.2050  -59.9820  -35.5730 C.ar   38  HIS38       0.1154
     20  CE1       34.4870  -60.6600  -33.6110 C.ar   38  HIS38       0.1986
     21  NE2       35.3800  -59.8900  -34.2140 N.ar   38  HIS38      -0.2212
     22  N         31.1150  -64.7850  -23.1140 N.3   102  PHE102     -0.1241
     23  CA        32.2630  -64.6840  -24.0000 C.3   102  PHE102      0.1605
     24  C         33.3810  -65.5740  -23.4690 C.2   102  PHE102      0.2264
     25  O         33.9770  -66.3790  -24.1820 O.2   102  PHE102     -0.2867
     26  CB        32.7410  -63.2300  -24.0920 C.3   102  PHE102      0.0534
     27  CG        33.9520  -63.0450  -24.9630 C.ar  102  PHE102     -0.0203
     28  CD1       33.9910  -63.5820  -26.2450 C.ar  102  PHE102     -0.0042
     29  CD2       35.0600  -62.3400  -24.5050 C.ar  102  PHE102     -0.0042
     30  CE1       35.1290  -63.4230  -27.0520 C.ar  102  PHE102     -0.0003
     31  CE2       36.2000  -62.1740  -25.3190 C.ar  102  PHE102     -0.0003
     32  CZ        36.2210  -62.7150  -26.5880 C.ar  102  PHE102     -0.0000
     33  N         36.1050  -68.0640  -25.3370 N.3   106  ARG106     -0.1245
     34  CA        37.2280  -67.2760  -25.7960 C.3   106  ARG106      0.1563
     35  C         38.4960  -68.1240  -25.9790 C.2   106  ARG106      0.2260
     36  O         39.2590  -67.9110  -26.9320 O.2   106  ARG106     -0.2867
     37  CB        37.4940  -66.1350  -24.8250 C.3   106  ARG106      0.0307
     38  CG        38.7310  -65.3620  -25.1730 C.3   106  ARG106      0.0489
     39  CD        39.1180  -64.4120  -24.0860 C.3   106  ARG106      0.2205
     40  NE        40.1850  -63.5530  -24.5630 N.pl3 106  ARG106     -0.0865
     41  CZ        41.0980  -62.9950  -23.7870 C.cat 106  ARG106      0.5346
     42  NH1       42.0310  -62.2250  -24.3260 N.pl3 106  ARG106      0.1354
     43  NH2       41.0770  -63.2080  -22.4780 N.pl3 106  ARG106      0.1354
     44  N         39.5700  -69.4120  -29.3650 N.3   109  LEU109     -0.1245
     45  CA        39.8990  -68.4260  -30.4050 C.3   109  LEU109      0.1561
     46  C         41.4060  -68.2000  -30.5590 C.2   109  LEU109      0.2260
     47  O         41.8920  -67.9100  -31.6500 O.2   109  LEU109     -0.2867
     48  CB        39.2350  -67.0710  -30.1010 C.3   109  LEU109      0.0270
     49  CG        37.7380  -67.1120  -29.8070 C.3   109  LEU109      0.0019
     50  CD1       37.1840  -65.7210  -29.5050 C.3   109  LEU109      0.0001
     51  CD2       37.0380  -67.7360  -30.9790 C.3   109  LEU109      0.0001
     52  N         43.9990  -66.3640  -32.7880 N.3   112  ALA112     -0.1231
     53  CA        43.3580  -65.5150  -33.7940 C.3   112  ALA112      0.1694
     54  C         42.8150  -64.2490  -33.1610 C.2   112  ALA112      0.2593
     55  O         42.4640  -64.2500  -31.9780 O.2   112  ALA112     -0.2718
     56  CB        42.2400  -66.2630  -34.5000 C.3   112  ALA112      0.0304
     57  N         42.7640  -63.1760  -33.9480 N.am  113  SER113     -0.1938
     58  CA        42.0030  -61.9820  -33.5810 C.3   113  SER113      0.2055
     59  C         41.8640  -61.0120  -34.7460 C.2   113  SER113      0.2643
     60  O         42.4880  -61.1850  -35.8000 O.2   113  SER113     -0.2714
     61  CB        42.6370  -61.2490  -32.3900 C.3   113  SER113      0.2130
     62  OG        43.6070  -60.3020  -32.8060 O.3   113  SER113     -0.2179
     63  N         41.0590  -59.9770  -34.5100 N.am  114  GLY114     -0.1954
     64  CA        40.6870  -58.9860  -35.5070 C.3   114  GLY114      0.1869
     65  C         41.8460  -58.2410  -36.0910 C.2   114  GLY114      0.2309
     66  O         41.7750  -57.7230  -37.1970 O.2   114  GLY114     -0.2863
     67  N         37.1980  -57.8350  -21.6680 N.3   298  LEU298     -0.1245
     68  CA        38.4960  -58.3260  -21.2410 C.3   298  LEU298      0.1561
     69  C         39.0030  -57.6730  -19.9730 C.2   298  LEU298      0.2260
     70  O         39.8400  -58.2550  -19.2840 O.2   298  LEU298     -0.2867
     71  CB        39.5370  -58.1170  -22.3350 C.3   298  LEU298      0.0270
     72  CG        39.2850  -58.8170  -23.6680 C.3   298  LEU298      0.0019
     73  CD1       40.5530  -58.7190  -24.5490 C.3   298  LEU298      0.0001
     74  CD2       38.8200  -60.2640  -23.4520 C.3   298  LEU298      0.0001
     75  N         45.2220  -59.2800  -25.0520 N.3   303  GLY303     -0.1210
     76  CA        44.4920  -59.8390  -26.1740 C.3   303  GLY303      0.1956
     77  C         44.9390  -61.2260  -26.6060 C.2   303  GLY303      0.2613
     78  O         46.1220  -61.5590  -26.4920 O.2   303  GLY303     -0.2717
     79  N         43.9970  -62.0320  -27.1000 N.am  304  THR304     -0.1938
     80  CA        44.3320  -63.2510  -27.8400 C.3   304  THR304      0.2028
     81  C         45.4300  -63.0490  -28.8990 C.2   304  THR304      0.2642
     82  O         46.1240  -63.9960  -29.2600 O.2   304  THR304     -0.2714
     83  CB        43.1140  -63.8260  -28.5850 C.3   304  THR304      0.1808
     84  OG1       42.6040  -62.8350  -29.4900 O.3   304  THR304     -0.2208
     85  CG2       42.0240  -64.2570  -27.6120 C.3   304  THR304      0.0379
     86  N         45.5600  -61.8320  -29.4220 N.am  305  GLY305     -0.1954
     87  CA        46.5190  -61.5610  -30.4730 C.3   305  GLY305      0.1869
     88  C         47.8760  -61.1500  -29.9440 C.2   305  GLY305      0.2309
     89  O         48.8200  -60.9770  -30.7160 O.2   305  GLY305     -0.2863
@<TRIPOS>BOND
     1    15    14    2
     2    14    13    1
     3    13    16    1
     4    13    12    1
     5    66    65    2
     6    16    17    1
     7    65    64    1
     8    60    59    2
     9    17    19   ar
    10    17    18   ar
    11    19    21   ar
    12    64    63    1
    13    59    63   am
    14    59    58    1
    15    18    20   ar
    16    56    53    1
    17     4     3    2
    18    21    20   ar
    19    57    58    1
    20    57    54   am
    21    53    54    1
    22    53    52    1
    23     3     2    1
    24    58    61    1
    25    54    55    2
    26    62    61    1
    27     2     1    1
    28     2     5    1
    29     8    10   ar
    30     8     6   ar
    31    10    11   ar
    32    47    46    2
    33     5     6    1
    34     6     7   ar
    35    11     9   ar
    36    51    49    1
    37    89    88    2
    38    46    45    1
    39    87    88    1
    40    87    86    1
    41    45    48    1
    42    45    44    1
    43     7     9   ar
    44    48    49    1
    45    49    50    1
    46    84    83    1
    47    86    81   am
    48    82    81    2
    49    81    80    1
    50    83    80    1
    51    83    85    1
    52    80    79    1
    53    79    77   am
    54    30    32   ar
    55    30    28   ar
    56    36    35    2
    57    77    78    2
    58    77    76    1
    59    32    31   ar
    60    28    27   ar
    61    76    75    1
    62    35    34    1
    63    34    33    1
    64    34    37    1
    65    31    29   ar
    66    38    37    1
    67    38    39    1
    68    27    29   ar
    69    27    26    1
    70    40    39    1
    71    40    41    2
    72    73    72    1
    73    42    41    1
    74    25    24    2
    75    26    23    1
    76    23    24    1
    77    23    22    1
    78    41    43    1
    79    72    74    1
    80    72    71    1
    81    71    68    1
    82    67    68    1
    83    68    69    1
    84    69    70    2
