@<TRIPOS>MOLECULE
tmp/5ti9A02.pdb
 103 101 0 0 0
SMALL
GASTEIGER

@<TRIPOS>ATOM
      1  N         37.8300  -37.8130  -62.8400 N.3    64  VAL64      -0.1231
      2  CA        37.4930  -36.7410  -61.9110 C.3    64  VAL64       0.1692
      3  C         37.7020  -35.3500  -62.5580 C.2    64  VAL64       0.2591
      4  O         37.0870  -34.3920  -62.1410 O.2    64  VAL64      -0.2718
      5  CB        38.3120  -36.8560  -60.6040 C.3    64  VAL64       0.0266
      6  CG1       39.8190  -36.4720  -60.8400 C.3    64  VAL64       0.0020
      7  CG2       37.6930  -36.0060  -59.5060 C.3    64  VAL64       0.0020
      8  N         38.5420  -35.2360  -63.5890 N.am   65  ARG65      -0.1980
      9  CA        38.7650  -33.9160  -64.1980 C.3    65  ARG65       0.1597
     10  C         37.4750  -33.4310  -64.8090 C.2    65  ARG65       0.2287
     11  O         37.2710  -32.2380  -64.9450 O.2    65  ARG65      -0.2864
     12  CB        39.8640  -33.9340  -65.2680 C.3    65  ARG65       0.0334
     13  CG        41.2040  -34.4140  -64.7700 C.3    65  ARG65       0.0492
     14  CD        42.2070  -34.6880  -65.8850 C.3    65  ARG65       0.2205
     15  NE        43.4940  -34.9310  -65.2540 N.pl3  65  ARG65      -0.0865
     16  CZ        44.2970  -33.9530  -64.8370 C.cat  65  ARG65       0.5346
     17  NH1       43.9550  -32.6650  -65.0190 N.pl3  65  ARG65       0.1354
     18  NH2       45.4340  -34.2570  -64.2330 N.pl3  65  ARG65       0.1354
     19  N         33.7100  -32.7320  -64.4980 N.3    67  GLU67      -0.1245
     20  CA        33.0340  -32.4520  -63.2450 C.3    67  GLU67       0.1567
     21  C         31.6440  -33.0810  -63.1840 C.2    67  GLU67       0.2260
     22  O         31.0240  -33.1240  -62.1220 O.2    67  GLU67      -0.2867
     23  CB        33.0450  -30.9390  -62.9930 C.3    67  GLU67       0.0388
     24  CG        34.4790  -30.5280  -62.5550 C.3    67  GLU67       0.1160
     25  CD        34.7800  -29.0450  -62.6380 C.2    67  GLU67       0.3649
     26  OE1       33.8190  -28.2360  -62.6730 O.co2  67  GLU67      -0.2457
     27  OE2       35.9990  -28.6940  -62.6460 O.co2  67  GLU67      -0.2457
     28  N         44.2950  -33.5830  -56.7310 N.3   170  TRP170     -0.1241
     29  CA        43.1640  -32.8930  -57.3240 C.3   170  TRP170      0.1605
     30  C         42.9480  -31.5430  -56.6280 C.2   170  TRP170      0.2264
     31  O         42.5500  -30.5640  -57.2660 O.2   170  TRP170     -0.2867
     32  CB        41.9290  -33.8110  -57.2620 C.3   170  TRP170      0.0550
     33  CG        40.5990  -33.1580  -57.3320 C.ar  170  TRP170      0.0003
     34  CD1       39.8870  -32.8400  -58.4640 C.ar  170  TRP170      0.0946
     35  CD2       39.7910  -32.7620  -56.2240 C.ar  170  TRP170      0.0152
     36  NE1       38.6960  -32.2460  -58.1230 N.ar  170  TRP170     -0.2442
     37  CE2       38.6010  -32.1970  -56.7550 C.ar  170  TRP170      0.0810
     38  CE3       39.9620  -32.8060  -54.8270 C.ar  170  TRP170      0.0012
     39  CZ2       37.5760  -31.7020  -55.9390 C.ar  170  TRP170      0.0191
     40  CZ3       38.9420  -32.3000  -54.0120 C.ar  170  TRP170      0.0001
     41  CH2       37.7640  -31.7600  -54.5770 C.ar  170  TRP170      0.0015
     42  N         45.1110  -28.7260  -57.9780 N.3   173  ARG173     -0.1231
     43  CA        44.6250  -28.1120  -59.2000 C.3   173  ARG173      0.1694
     44  C         43.3920  -27.2580  -59.0060 C.2   173  ARG173      0.2593
     45  O         42.8050  -26.8300  -59.9940 O.2   173  ARG173     -0.2718
     46  CB        44.2950  -29.1650  -60.2530 C.3   173  ARG173      0.0321
     47  CG        45.4020  -30.1450  -60.5450 C.3   173  ARG173      0.0489
     48  CD        45.1300  -30.9110  -61.8540 C.3   173  ARG173      0.2205
     49  NE        43.8990  -31.6760  -61.7910 N.pl3 173  ARG173     -0.0865
     50  CZ        43.7680  -32.8180  -61.1290 C.cat 173  ARG173      0.5346
     51  NH1       44.8020  -33.3310  -60.4860 N.pl3 173  ARG173      0.1354
     52  NH2       42.6070  -33.4520  -61.1180 N.pl3 173  ARG173      0.1354
     53  N         42.9750  -27.0290  -57.7630 N.am  174  THR174     -0.1940
     54  CA        41.7780  -26.2220  -57.4970 C.3   174  THR174      0.2013
     55  C         41.8260  -24.8740  -58.2020 C.2   174  THR174      0.2484
     56  O         42.7790  -24.1370  -58.0320 O.2   174  THR174     -0.2729
     57  CB        41.5770  -25.9550  -55.9830 C.3   174  THR174      0.1807
     58  OG1       41.4940  -27.1970  -55.2780 O.3   174  THR174     -0.2208
     59  CG2       40.3130  -25.1750  -55.7640 C.3   174  THR174      0.0379
     60  N         40.7990  -24.5540  -59.0070 N.am  175  PRO175     -0.2726
     61  CA        40.7630  -23.2530  -59.6770 C.3   175  PRO175      0.1402
     62  C         40.7860  -22.0790  -58.6980 C.2   175  PRO175      0.2269
     63  O         40.2050  -22.1640  -57.6080 O.2   175  PRO175     -0.2865
     64  CB        39.4550  -23.2980  -60.4770 C.3   175  PRO175      0.0296
     65  CG        38.7360  -24.5530  -60.0340 C.3   175  PRO175      0.0237
     66  CD        39.7820  -25.4730  -59.5390 C.3   175  PRO175      0.0939
     67  N         38.1930  -23.9410  -51.3900 N.3   257  ILE257     -0.1245
     68  CA        36.8820  -24.5730  -51.4860 C.3   257  ILE257      0.1561
     69  C         36.0110  -24.1790  -50.2700 C.2   257  ILE257      0.2260
     70  O         34.8510  -23.8690  -50.4670 O.2   257  ILE257     -0.2867
     71  CB        37.0170  -26.1240  -51.6560 C.3   257  ILE257      0.0252
     72  CG1       37.5470  -26.4470  -53.0640 C.3   257  ILE257      0.0019
     73  CG2       35.6800  -26.8790  -51.4020 C.3   257  ILE257      0.0019
     74  CD1       38.2340  -27.8280  -53.1480 C.3   257  ILE257      0.0001
     75  N         30.7380  -24.1770  -58.9150 N.3   265  ARG265     -0.1231
     76  CA        31.7400  -25.2210  -59.1440 C.3   265  ARG265      0.1694
     77  C         32.3330  -25.7900  -57.8670 C.2   265  ARG265      0.2592
     78  O         33.0100  -26.8090  -57.8960 O.2   265  ARG265     -0.2718
     79  CB        32.8840  -24.7030  -60.0180 C.3   265  ARG265      0.0321
     80  CG        32.5040  -24.5800  -61.4880 C.3   265  ARG265      0.0489
     81  CD        33.5810  -25.1120  -62.4300 C.3   265  ARG265      0.2205
     82  NE        34.6880  -24.1810  -62.6080 N.pl3 265  ARG265     -0.0865
     83  CZ        35.9390  -24.5690  -62.8230 C.cat 265  ARG265      0.5346
     84  NH1       36.8940  -23.6630  -62.9700 N.pl3 265  ARG265      0.1354
     85  NH2       36.2310  -25.8670  -62.8800 N.pl3 265  ARG265      0.1354
     86  N         32.1000  -25.1180  -56.7520 N.am  266  PHE266     -0.1976
     87  CA        32.6700  -25.5510  -55.4930 C.3   266  PHE266      0.1639
     88  C         31.6730  -26.2720  -54.5540 C.2   266  PHE266      0.2290
     89  O         32.0780  -26.8470  -53.5390 O.2   266  PHE266     -0.2864
     90  CB        33.2640  -24.3440  -54.7980 C.3   266  PHE266      0.0560
     91  CG        34.5690  -23.9060  -55.3720 C.ar  266  PHE266     -0.0200
     92  CD1       35.4630  -24.8440  -55.8760 C.ar  266  PHE266     -0.0042
     93  CD2       34.9170  -22.5610  -55.3950 C.ar  266  PHE266     -0.0042
     94  CE1       36.6950  -24.4510  -56.3940 C.ar  266  PHE266     -0.0003
     95  CE2       36.1340  -22.1520  -55.9170 C.ar  266  PHE266     -0.0003
     96  CZ        37.0330  -23.1040  -56.4180 C.ar  266  PHE266     -0.0000
     97  N         32.2880  -30.0660  -54.6380 N.3   269  PRO269     -0.2116
     98  CA        33.6170  -30.2700  -54.0390 C.3   269  PRO269      0.1372
     99  C         33.6520  -30.0430  -52.5250 C.2   269  PRO269      0.2244
    100  O         34.4200  -30.7020  -51.8110 O.2   269  PRO269     -0.2868
    101  CB        34.4980  -29.2420  -54.7720 C.3   269  PRO269      0.0268
    102  CG        33.8590  -29.0930  -56.1010 C.3   269  PRO269      0.0207
    103  CD        32.3620  -29.2610  -55.8800 C.3   269  PRO269      0.0892
@<TRIPOS>BOND
     1    14    15    1
     2    14    13    1
     3    12    13    1
     4    12     9    1
     5    15    16    2
     6    17    16    1
     7    11    10    2
     8    16    18    1
     9    10     9    1
    10    19    20    1
    11     9     8    1
    12     8     3   am
    13    20    21    1
    14    20    23    1
    15    21    22    2
    16    23    24    1
    17    84    83    1
    18    85    83    1
    19     1     2    1
    20    83    82    2
    21    26    25   ar
    22    27    25   ar
    23    25    24    1
    24    82    81    1
    25     3     4    2
    26     3     2    1
    27    81    80    1
    28     2     5    1
    29    48    49    1
    30    48    47    1
    31    49    50    2
    32    80    79    1
    33    50    52    1
    34    50    51    1
    35     6     5    1
    36     5     7    1
    37    47    46    1
    38    64    65    1
    39    64    61    1
    40    46    43    1
    41    65    66    1
    42    79    76    1
    43    45    44    2
    44    61    60    1
    45    61    62    1
    46    66    60    1
    47    43    44    1
    48    43    42    1
    49    76    75    1
    50    76    77    1
    51    60    55   am
    52    44    53   am
    53    62    63    2
    54    34    36   ar
    55    34    33   ar
    56    55    56    2
    57    55    54    1
    58    36    37   ar
    59    78    77    2
    60    77    86   am
    61    53    54    1
    62    54    57    1
    63    33    32    1
    64    33    35   ar
    65    29    32    1
    66    29    28    1
    67    29    30    1
    68    31    30    2
    69    37    35   ar
    70    37    39   ar
    71    86    87    1
    72    96    94   ar
    73    96    95   ar
    74    94    92   ar
    75    35    38   ar
    76   102   103    1
    77   102   101    1
    78    57    59    1
    79    57    58    1
    80    39    41   ar
    81    95    93   ar
    82   103    97    1
    83    92    91   ar
    84    87    90    1
    85    87    88    1
    86    93    91   ar
    87    91    90    1
    88    38    40   ar
    89   101    98    1
    90    97    98    1
    91    41    40   ar
    92    88    89    2
    93    98    99    1
    94    74    72    1
    95    72    71    1
    96    99   100    2
    97    71    68    1
    98    71    73    1
    99    68    67    1
   100    68    69    1
   101    70    69    2
