@<TRIPOS>MOLECULE
tmp/5tiaC01.pdb
 89 84 0 0 0
SMALL
GASTEIGER

@<TRIPOS>ATOM
      1  N         22.3530  -24.3060  -33.3730 N.3    34  PHE34      -0.1241
      2  CA        23.2970  -24.3770  -32.2680 C.3    34  PHE34       0.1605
      3  C         22.5570  -24.2700  -30.9360 C.2    34  PHE34       0.2264
      4  O         22.7530  -25.0840  -30.0250 O.2    34  PHE34      -0.2867
      5  CB        24.3290  -23.2640  -32.4190 C.3    34  PHE34       0.0534
      6  CG        25.4780  -23.3470  -31.4590 C.ar   34  PHE34      -0.0203
      7  CD1       26.5050  -24.2490  -31.6640 C.ar   34  PHE34      -0.0042
      8  CD2       25.5520  -22.4870  -30.3690 C.ar   34  PHE34      -0.0042
      9  CE1       27.5910  -24.3060  -30.7780 C.ar   34  PHE34      -0.0003
     10  CE2       26.6300  -22.5390  -29.4800 C.ar   34  PHE34      -0.0003
     11  CZ        27.6510  -23.4490  -29.6860 C.ar   34  PHE34      -0.0000
     12  N         21.5690  -27.5400  -28.0910 N.3    38  HIS38      -0.1241
     13  CA        21.9310  -27.4890  -26.6660 C.3    38  HIS38       0.1621
     14  C         20.7040  -27.5910  -25.7670 C.2    38  HIS38       0.2264
     15  O         20.7360  -28.2610  -24.7230 O.2    38  HIS38      -0.2867
     16  CB        22.7150  -26.2080  -26.3390 C.3    38  HIS38       0.0745
     17  CG        24.1410  -26.2440  -26.8020 C.ar   38  HIS38       0.0817
     18  ND1       24.5150  -25.9120  -28.0870 N.ar   38  HIS38      -0.2268
     19  CD2       25.2790  -26.6030  -26.1610 C.ar   38  HIS38       0.1154
     20  CE1       25.8230  -26.0550  -28.2150 C.ar   38  HIS38       0.1986
     21  NE2       26.3080  -26.4800  -27.0630 N.ar   38  HIS38      -0.2212
     22  N         29.8420  -22.0560  -38.5660 N.3   102  PHE102     -0.1241
     23  CA        30.0130  -21.8960  -37.1270 C.3   102  PHE102      0.1605
     24  C         30.8920  -20.6850  -36.8450 C.2   102  PHE102      0.2264
     25  O         30.6150  -19.8840  -35.9590 O.2   102  PHE102     -0.2867
     26  CB        30.6380  -23.1340  -36.4960 C.3   102  PHE102      0.0534
     27  CG        30.8880  -22.9810  -35.0270 C.ar  102  PHE102     -0.0203
     28  CD1       29.8340  -22.7000  -34.1600 C.ar  102  PHE102     -0.0042
     29  CD2       32.1630  -23.1040  -34.5090 C.ar  102  PHE102     -0.0042
     30  CE1       30.0490  -22.5520  -32.8060 C.ar  102  PHE102     -0.0003
     31  CE2       32.3870  -22.9540  -33.1590 C.ar  102  PHE102     -0.0003
     32  CZ        31.3280  -22.6680  -32.2990 C.ar  102  PHE102     -0.0000
     33  N         30.6380  -17.5880  -33.7610 N.3   106  ARG106     -0.1245
     34  CA        31.3740  -18.0050  -32.5690 C.3   106  ARG106      0.1563
     35  C         31.8070  -16.8030  -31.7260 C.2   106  ARG106      0.2260
     36  O         31.8710  -16.8960  -30.5070 O.2   106  ARG106     -0.2867
     37  CB        32.5990  -18.8420  -32.9510 C.3   106  ARG106      0.0307
     38  CG        33.3150  -19.4720  -31.7570 C.3   106  ARG106      0.0489
     39  CD        34.5080  -20.3250  -32.1820 C.3   106  ARG106      0.2205
     40  NE        35.1440  -20.9820  -31.0350 N.pl3 106  ARG106     -0.0865
     41  CZ        36.4010  -20.7680  -30.6370 C.cat 106  ARG106      0.5346
     42  NH1       36.8850  -21.4130  -29.5780 N.pl3 106  ARG106      0.1354
     43  NH2       37.1800  -19.9070  -31.2940 N.pl3 106  ARG106      0.1354
     44  N         29.8160  -15.7380  -28.6010 N.3   109  LEU109     -0.1245
     45  CA        29.5700  -16.7390  -27.5680 C.3   109  LEU109      0.1561
     46  C         30.4470  -16.5570  -26.3310 C.2   109  LEU109      0.2260
     47  O         30.0160  -16.8520  -25.2130 O.2   109  LEU109     -0.2867
     48  CB        29.7710  -18.1400  -28.1340 C.3   109  LEU109      0.0270
     49  CG        28.8390  -18.4740  -29.2950 C.3   109  LEU109      0.0019
     50  CD1       29.0110  -19.9170  -29.7020 C.3   109  LEU109      0.0001
     51  CD2       27.4120  -18.1930  -28.9210 C.3   109  LEU109      0.0001
     52  N         31.1350  -17.6330  -22.7110 N.3   112  ALA112     -0.1231
     53  CA        30.2890  -18.7560  -22.3380 C.3   112  ALA112      0.1694
     54  C         30.7970  -20.0680  -22.9310 C.2   112  ALA112      0.2593
     55  O         31.4720  -20.0740  -23.9720 O.2   112  ALA112     -0.2718
     56  CB        28.8520  -18.5020  -22.7700 C.3   112  ALA112      0.0304
     57  N         30.4710  -21.1670  -22.2510 N.am  113  SER113     -0.1938
     58  CA        30.7850  -22.5110  -22.7310 C.3   113  SER113      0.2055
     59  C         30.1130  -23.5830  -21.8900 C.2   113  SER113      0.2643
     60  O         29.5350  -23.2940  -20.8450 O.2   113  SER113     -0.2714
     61  CB        32.2900  -22.7540  -22.7190 C.3   113  SER113      0.2130
     62  OG        32.7290  -23.0250  -21.3990 O.3   113  SER113     -0.2179
     63  N         30.2320  -24.8250  -22.3440 N.am  114  GLY114     -0.1954
     64  CA        29.7170  -25.9870  -21.6370 C.3   114  GLY114      0.1869
     65  C         30.2340  -26.2010  -20.2220 C.2   114  GLY114      0.2309
     66  O         29.5960  -26.9040  -19.4450 O.2   114  GLY114     -0.2863
     67  N         36.9950  -26.5710  -34.3310 N.3   268  LEU268     -0.1245
     68  CA        37.9410  -25.6570  -33.7130 C.3   268  LEU268      0.1561
     69  C         39.3710  -25.8170  -34.2010 C.2   268  LEU268      0.2260
     70  O         40.1730  -24.8990  -34.0570 O.2   268  LEU268     -0.2867
     71  CB        37.9180  -25.8420  -32.1970 C.3   268  LEU268      0.0270
     72  CG        36.6500  -25.3280  -31.5290 C.3   268  LEU268      0.0019
     73  CD1       36.8190  -25.2750  -30.0330 C.3   268  LEU268      0.0001
     74  CD2       36.3040  -23.9650  -32.0920 C.3   268  LEU268      0.0001
     75  N         39.2530  -22.9380  -26.5010 N.3   273  GLY273     -0.1210
     76  CA        37.8140  -22.8020  -26.4100 C.3   273  GLY273      0.1956
     77  C         37.3710  -21.5200  -25.7260 C.2   273  GLY273      0.2613
     78  O         38.1230  -20.9250  -24.9520 O.2   273  GLY273     -0.2717
     79  N         36.1390  -21.0970  -26.0030 N.am  274  THR274     -0.1938
     80  CA        35.5800  -19.8820  -25.4050 C.3   274  THR274      0.2028
     81  C         35.5750  -19.9110  -23.8770 C.2   274  THR274      0.2642
     82  O         35.4770  -18.8700  -23.2350 O.2   274  THR274     -0.2714
     83  CB        34.1320  -19.6440  -25.8760 C.3   274  THR274      0.1808
     84  OG1       33.3520  -20.8220  -25.6290 O.3   274  THR274     -0.2208
     85  CG2       34.0940  -19.3260  -27.3510 C.3   274  THR274      0.0379
     86  N         35.6480  -21.1080  -23.2990 N.am  275  GLY275     -0.1954
     87  CA        35.6230  -21.2540  -21.8600 C.3   275  GLY275      0.1869
     88  C         37.0040  -21.1350  -21.2430 C.2   275  GLY275      0.2309
     89  O         37.1530  -21.1610  -20.0210 O.2   275  GLY275     -0.2863
@<TRIPOS>BOND
     1    22    23    1
     2    23    24    1
     3    23    26    1
     4    24    25    2
     5    26    27    1
     6    27    29   ar
     7    27    28   ar
     8    29    31   ar
     9    67    68    1
    10    69    70    2
    11    69    68    1
    12    28    30   ar
    13    33    34    1
    14    68    71    1
    15     1     2    1
    16    31    32   ar
    17    37    34    1
    18    37    38    1
    19    30    32   ar
    20    34    35    1
    21     5     2    1
    22     5     6    1
    23     2     3    1
    24    71    72    1
    25    39    38    1
    26    39    40    1
    27    74    72    1
    28    35    36    2
    29     7     6   ar
    30     7     9   ar
    31    72    73    1
    32     6     8   ar
    33    43    41    1
    34    40    41    2
    35     3     4    2
    36     9    11   ar
    37    41    42    1
    38     8    10   ar
    39    50    49    1
    40    11    10   ar
    41    49    51    1
    42    49    48    1
    43    44    45    1
    44    20    18   ar
    45    20    21   ar
    46    48    45    1
    47    12    13    1
    48    18    17   ar
    49    45    46    1
    50    85    83    1
    51    21    19   ar
    52    17    16    1
    53    17    19   ar
    54    13    16    1
    55    13    14    1
    56    75    76    1
    57    76    77    1
    58    46    47    2
    59    79    77   am
    60    79    80    1
    61    83    84    1
    62    83    80    1
    63    14    15    2
    64    77    78    2
    65    80    81    1
    66    55    54    2
    67    81    86   am
    68    81    82    2
    69    86    87    1
    70    54    53    1
    71    54    57   am
    72    56    53    1
    73    58    61    1
    74    58    57    1
    75    58    59    1
    76    61    62    1
    77    52    53    1
    78    63    59   am
    79    63    64    1
    80    59    60    2
    81    87    88    1
    82    64    65    1
    83    88    89    2
    84    65    66    2
