@<TRIPOS>MOLECULE
tmp/5tifA01.pdb
 103 105 0 0 0
SMALL
GASTEIGER

@<TRIPOS>ATOM
      1  N         45.5950   -7.5820   23.3910 N.3   109  ARG109     -0.1245
      2  CA        45.8130   -8.2910   24.6340 C.3   109  ARG109      0.1563
      3  C         46.1900   -9.7020   24.3090 C.2   109  ARG109      0.2260
      4  O         45.7950  -10.2280   23.2880 O.2   109  ARG109     -0.2867
      5  CB        44.5540   -8.3140   25.4890 C.3   109  ARG109      0.0307
      6  CG        44.0950   -6.9640   25.9950 C.3   109  ARG109      0.0489
      7  CD        42.8710   -7.1040   26.8770 C.3   109  ARG109      0.2205
      8  NE        41.7110   -7.4910   26.1210 N.pl3 109  ARG109     -0.0865
      9  CZ        40.8000   -6.6750   25.6150 C.cat 109  ARG109      0.5346
     10  NH1       40.9000   -5.3940   25.7830 N.pl3 109  ARG109      0.1354
     11  NH2       39.8040   -7.1310   24.8590 N.pl3 109  ARG109      0.1354
     12  N         38.7730   -0.8490   20.5370 N.3   139  PRO139     -0.2102
     13  CA        38.7060   -2.0820   21.3040 C.3   139  PRO139      0.1504
     14  C         39.1240   -3.3030   20.4970 C.2   139  PRO139      0.2576
     15  O         39.1040   -3.3180   19.2740 O.2   139  PRO139     -0.2718
     16  CB        37.2160   -2.1090   21.7320 C.3   139  PRO139      0.0282
     17  CG        36.4900   -1.3150   20.6490 C.3   139  PRO139      0.0208
     18  CD        37.4440   -0.2470   20.3010 C.3   139  PRO139      0.0893
     19  N         39.4550   -4.3210   21.2480 N.am  140  PHE140     -0.1963
     20  CA        39.9680   -5.5760   20.7240 C.3   140  PHE140      0.1771
     21  C         38.8980   -6.6450   20.7300 C.2   140  PHE140      0.2619
     22  O         38.2370   -6.8720   21.7250 O.2   140  PHE140     -0.2715
     23  CB        41.0830   -6.0220   21.6350 C.3   140  PHE140      0.0574
     24  CG        41.8800   -7.2010   21.1760 C.ar  140  PHE140     -0.0200
     25  CD1       42.4700   -7.2420   19.9410 C.ar  140  PHE140     -0.0042
     26  CD2       42.1320   -8.2360   22.0320 C.ar  140  PHE140     -0.0042
     27  CE1       43.2890   -8.2750   19.5470 C.ar  140  PHE140     -0.0003
     28  CE2       42.9320   -9.2930   21.6650 C.ar  140  PHE140     -0.0003
     29  CZ        43.5320   -9.2770   20.4340 C.ar  140  PHE140     -0.0000
     30  N         38.7430   -7.3490   19.6270 N.am  141  PHE141     -0.1974
     31  CA        37.6370   -8.2860   19.4290 C.3   141  PHE141      0.1639
     32  C         37.9720   -9.7240   19.7060 C.2   141  PHE141      0.2290
     33  O         37.0640  -10.5420   19.7290 O.2   141  PHE141     -0.2864
     34  CB        37.0330   -8.1590   18.0110 C.3   141  PHE141      0.0560
     35  CG        37.9920   -8.3990   16.9070 C.ar  141  PHE141     -0.0200
     36  CD1       38.3520   -9.6570   16.5250 C.ar  141  PHE141     -0.0042
     37  CD2       38.5410   -7.3110   16.2050 C.ar  141  PHE141     -0.0042
     38  CE1       39.2410   -9.8730   15.4910 C.ar  141  PHE141     -0.0003
     39  CE2       39.4210   -7.5260   15.1480 C.ar  141  PHE141     -0.0003
     40  CZ        39.7640   -8.8130   14.7960 C.ar  141  PHE141     -0.0000
     41  N         36.3140  -12.0970   22.5490 N.3   144  GLU144     -0.1231
     42  CA        34.9090  -12.3880   22.3150 C.3   144  GLU144      0.1699
     43  C         34.7190  -13.3650   21.1760 C.2   144  GLU144      0.2592
     44  O         33.8370  -14.2170   21.2680 O.2   144  GLU144     -0.2718
     45  CB        34.1510  -11.0990   22.0710 C.3   144  GLU144      0.0402
     46  CG        33.9040  -10.3530   23.3820 C.3   144  GLU144      0.1161
     47  CD        33.0300  -11.0670   24.4150 C.2   144  GLU144      0.3649
     48  OE1       33.6190  -11.4430   25.4320 O.co2 144  GLU144     -0.2457
     49  OE2       31.8180  -11.1560   24.2090 O.co2 144  GLU144     -0.2457
     50  N         35.4840  -13.2180   20.0920 N.am  145  VAL145     -0.1980
     51  CA        35.3590  -14.1570   18.9950 C.3   145  VAL145      0.1595
     52  C         35.7020  -15.5690   19.4250 C.2   145  VAL145      0.2287
     53  O         35.0400  -16.5050   19.0370 O.2   145  VAL145     -0.2864
     54  CB        36.1740  -13.6610   17.7840 C.3   145  VAL145      0.0276
     55  CG1       36.2210  -14.7190   16.7150 C.3   145  VAL145      0.0022
     56  CG2       35.6060  -12.3830   17.2560 C.3   145  VAL145      0.0022
     57  N         33.1300  -19.7600   15.2630 N.3   151  TRP151     -0.1241
     58  CA        33.8480  -18.6320   14.6520 C.3   151  TRP151      0.1605
     59  C         35.3560  -18.8380   14.6380 C.2   151  TRP151      0.2264
     60  O         36.0630  -17.9260   14.2530 O.2   151  TRP151     -0.2867
     61  CB        33.5110  -17.3510   15.3580 C.3   151  TRP151      0.0550
     62  CG        32.1130  -16.8950   15.2050 C.ar  151  TRP151      0.0003
     63  CD1       31.1100  -17.4180   14.4630 C.ar  151  TRP151      0.0946
     64  CD2       31.5550  -15.7670   15.8620 C.ar  151  TRP151      0.0152
     65  NE1       29.9730  -16.7080   14.6300 N.ar  151  TRP151     -0.2442
     66  CE2       30.2190  -15.6810   15.4830 C.ar  151  TRP151      0.0810
     67  CE3       32.0540  -14.8180   16.7250 C.ar  151  TRP151      0.0012
     68  CZ2       29.3710  -14.6880   15.9670 C.ar  151  TRP151      0.0191
     69  CZ3       31.2490  -13.8240   17.1980 C.ar  151  TRP151      0.0001
     70  CH2       29.9220  -13.7700   16.8420 C.ar  151  TRP151      0.0015
     71  N         30.7970  -10.9410   11.2450 N.3   166  PHE166     -0.1227
     72  CA        30.5260  -10.4120   12.5700 C.3   166  PHE166      0.1736
     73  C         31.5640   -9.3870   12.9700 C.2   166  PHE166      0.2595
     74  O         31.2470   -8.3540   13.5350 O.2   166  PHE166     -0.2718
     75  CB        30.4640  -11.5570   13.6040 C.3   166  PHE166      0.0547
     76  CG        29.3190  -12.5250   13.3290 C.ar  166  PHE166     -0.0202
     77  CD1       29.5190  -13.6960   12.6600 C.ar  166  PHE166     -0.0042
     78  CD2       28.0420  -12.2100   13.7880 C.ar  166  PHE166     -0.0042
     79  CE1       28.4870  -14.5550   12.4300 C.ar  166  PHE166     -0.0003
     80  CE2       27.0070  -13.0960   13.5730 C.ar  166  PHE166     -0.0003
     81  CZ        27.2170  -14.2760   12.8820 C.ar  166  PHE166     -0.0000
     82  N         32.8290   -9.6890   12.7260 N.am  167  ILE167     -0.1980
     83  CA        33.8800   -8.7310   13.0410 C.3   167  ILE167      0.1595
     84  C         33.7060   -7.4830   12.1990 C.2   167  ILE167      0.2287
     85  O         33.8550   -6.3700   12.7160 O.2   167  ILE167     -0.2864
     86  CB        35.2630   -9.3300   12.8560 C.3   167  ILE167      0.0276
     87  CG1       35.4840  -10.5520   13.7520 C.3   167  ILE167      0.0022
     88  CG2       36.3370   -8.2940   13.1140 C.3   167  ILE167      0.0022
     89  CD1       36.6370  -11.3940   13.3040 C.3   167  ILE167      0.0001
     90  N         30.9690   -5.3470   13.5900 N.3   170  TRP170     -0.1241
     91  CA        31.3710   -4.7440   14.8310 C.3   170  TRP170      0.1605
     92  C         32.3730   -3.6350   14.5930 C.2   170  TRP170      0.2264
     93  O         32.2660   -2.5510   15.1640 O.2   170  TRP170     -0.2867
     94  CB        31.8740   -5.8310   15.7540 C.3   170  TRP170      0.0550
     95  CG        32.2350   -5.3600   17.0950 C.ar  170  TRP170      0.0003
     96  CD1       31.3930   -5.1660   18.1430 C.ar  170  TRP170      0.0946
     97  CD2       33.5380   -5.0410   17.5720 C.ar  170  TRP170      0.0152
     98  NE1       32.0930   -4.7530   19.2400 N.ar  170  TRP170     -0.2442
     99  CE2       33.4120   -4.6990   18.9250 C.ar  170  TRP170      0.0810
    100  CE3       34.8110   -5.0610   17.0190 C.ar  170  TRP170      0.0012
    101  CZ2       34.4810   -4.3720   19.7200 C.ar  170  TRP170      0.0191
    102  CZ3       35.8710   -4.7500   17.8180 C.ar  170  TRP170      0.0001
    103  CH2       35.7190   -4.4180   19.1470 C.ar  170  TRP170      0.0015
@<TRIPOS>BOND
     1    71    72    1
     2    84    85    2
     3    84    83    1
     4    79    77   ar
     5    79    81   ar
     6    72    73    1
     7    72    75    1
     8    77    76   ar
     9    82    73   am
    10    82    83    1
    11    86    83    1
    12    86    88    1
    13    86    87    1
    14    81    80   ar
    15    73    74    2
    16    89    87    1
    17    76    75    1
    18    76    78   ar
    19    80    78   ar
    20    90    91    1
    21    60    59    2
    22    63    65   ar
    23    63    62   ar
    24    92    91    1
    25    92    93    2
    26    65    66   ar
    27    59    58    1
    28    58    57    1
    29    58    61    1
    30    40    39   ar
    31    40    38   ar
    32    91    94    1
    33    39    37   ar
    34    62    61    1
    35    62    64   ar
    36    66    64   ar
    37    66    68   ar
    38    38    36   ar
    39    94    95    1
    40    64    67   ar
    41    68    70   ar
    42    37    35   ar
    43    36    35   ar
    44    55    54    1
    45    67    69   ar
    46    70    69   ar
    47    35    34    1
    48   100    97   ar
    49   100   102   ar
    50    95    97   ar
    51    95    96   ar
    52    56    54    1
    53    97    99   ar
    54    54    51    1
    55   102   103   ar
    56    34    31    1
    57    96    98   ar
    58    99    98   ar
    59    99   101   ar
    60    51    52    1
    61    51    50    1
    62    53    52    2
    63   103   101   ar
    64    15    14    2
    65    31    30    1
    66    31    32    1
    67    27    25   ar
    68    27    29   ar
    69    30    21   am
    70    32    33    2
    71    25    24   ar
    72    50    43   am
    73    18    12    1
    74    18    17    1
    75    29    28   ar
    76    14    19   am
    77    14    13    1
    78    12    13    1
    79    17    16    1
    80    20    21    1
    81    20    19    1
    82    20    23    1
    83    21    22    2
    84    43    44    2
    85    43    42    1
    86    24    23    1
    87    24    26   ar
    88    13    16    1
    89    28    26   ar
    90    45    42    1
    91    45    46    1
    92    42    41    1
    93     4     3    2
    94    46    47    1
    95     1     2    1
    96    49    47   ar
    97     3     2    1
    98    47    48   ar
    99     2     5    1
   100    11     9    1
   101     5     6    1
   102     9    10    1
   103     9     8    2
   104     6     7    1
   105     8     7    1
