@<TRIPOS>MOLECULE
tmp/5tifA00.pdb
 144 138 0 0 0
SMALL
GASTEIGER

@<TRIPOS>ATOM
      1  N         48.1140   -7.7430   11.2190 N.3    10  ASP10      -0.1225
      2  CA        48.6160   -9.1010   11.1560 C.3    10  ASP10       0.1805
      3  C         47.4660  -10.0390   10.8080 C.2    10  ASP10       0.2598
      4  O         46.5180   -9.5990   10.1270 O.2    10  ASP10      -0.2718
      5  CB        49.3920   -9.4330   12.4120 C.3    10  ASP10       0.1424
      6  CG        48.5680   -9.2340   13.6800 C.2    10  ASP10       0.3668
      7  OD1       47.3300   -9.3430   13.5860 O.co2  10  ASP10      -0.2456
      8  OD2       49.1810   -8.9360   14.7190 O.co2  10  ASP10      -0.2456
      9  N         47.5110  -11.3120   11.1520 N.am   11  SER11      -0.1938
     10  CA        46.4350  -12.1850   10.6930 C.3    11  SER11       0.2055
     11  C         45.0770  -11.8210   11.2500 C.2    11  SER11       0.2642
     12  O         44.0720  -12.2080   10.6610 O.2    11  SER11      -0.2714
     13  CB        46.6960  -13.6600   10.9860 C.3    11  SER11       0.2130
     14  OG        46.3630  -14.0090   12.3230 O.3    11  SER11      -0.2179
     15  N         45.0180  -11.0920   12.3520 N.am   12  LEU12      -0.1977
     16  CA        43.7000  -10.7330   12.8520 C.3    12  LEU12       0.1596
     17  C         42.9370   -9.8760   11.8770 C.2    12  LEU12       0.2287
     18  O         41.7120   -9.8840   11.8810 O.2    12  LEU12      -0.2864
     19  CB        43.8280  -10.0410   14.1730 C.3    12  LEU12       0.0297
     20  CG        44.1220  -10.9430   15.3350 C.3    12  LEU12       0.0022
     21  CD1       44.2990  -10.0990   16.5880 C.3    12  LEU12       0.0001
     22  CD2       43.0300  -11.9600   15.5390 C.3    12  LEU12       0.0001
     23  N         43.5340  -15.4640    8.6690 N.3    16  TYR16      -0.1241
     24  CA        44.4920  -16.5520    8.6080 C.3    16  TYR16       0.1605
     25  C         44.0230  -17.6070    7.6360 C.2    16  TYR16       0.2264
     26  O         42.9430  -18.1630    7.8090 O.2    16  TYR16      -0.2867
     27  CB        44.7000  -17.1600    9.9680 C.3    16  TYR16       0.0534
     28  CG        45.8120  -18.1580    9.9890 C.ar   16  TYR16      -0.0201
     29  CD1       45.5720  -19.5030   10.1370 C.ar   16  TYR16      -0.0009
     30  CD2       47.1440  -17.7570    9.8780 C.ar   16  TYR16      -0.0009
     31  CE1       46.6260  -20.4080   10.1850 C.ar   16  TYR16       0.0417
     32  CE2       48.1890  -18.6620    9.9280 C.ar   16  TYR16       0.0417
     33  CZ        47.9270  -20.0020   10.0700 C.ar   16  TYR16       0.1957
     34  OH        48.9420  -20.9440   10.0900 O.3    16  TYR16      -0.2866
     35  N         49.8040  -12.1530    7.8200 N.3    44  SER44      -0.1202
     36  CA        49.8270  -13.0900    8.9080 C.3    44  SER44       0.2020
     37  C         51.2650  -13.2210    9.4580 C.2    44  SER44       0.2619
     38  O         52.2230  -13.2930    8.7220 O.2    44  SER44      -0.2717
     39  CB        49.3360  -14.4380    8.4520 C.3    44  SER44       0.2103
     40  OG        47.9680  -14.3610    8.0540 O.3    44  SER44      -0.2182
     41  N         51.3520  -13.2470   10.7820 N.am   45  GLY45      -0.1956
     42  CA        52.6170  -13.4130   11.4440 C.3    45  GLY45       0.1869
     43  C         53.4270  -12.1670   11.6310 C.2    45  GLY45       0.2309
     44  O         54.4970  -12.2430   12.2490 O.2    45  GLY45      -0.2863
     45  N         50.6490   -8.0640   18.6820 N.3    73  GLY73      -0.1210
     46  CA        50.2760   -9.3500   19.2110 C.3    73  GLY73       0.1956
     47  C         51.3160  -10.4050   18.9480 C.2    73  GLY73       0.2611
     48  O         51.5600  -11.2490   19.8120 O.2    73  GLY73      -0.2717
     49  N         51.8960  -10.4400   17.7430 N.am   74  ASN74      -0.1974
     50  CA        52.9320  -11.4490   17.5150 C.3    74  ASN74       0.1688
     51  C         54.1550  -11.2180   18.3950 C.2    74  ASN74       0.2292
     52  O         54.7150  -12.1830   18.9000 O.2    74  ASN74      -0.2864
     53  CB        53.2760  -11.5380   16.0370 C.3    74  ASN74       0.1181
     54  CG        52.1450  -12.1830   15.2870 C.2    74  ASN74       0.2629
     55  OD1       51.7080  -13.2550   15.6620 O.2    74  ASN74      -0.2716
     56  ND2       51.6800  -11.5460   14.2310 N.am   74  ASN74      -0.0877
     57  N         53.0910  -12.6900   21.7010 N.3    77  LEU77      -0.1245
     58  CA        53.0350  -14.1370   21.6370 C.3    77  LEU77       0.1561
     59  C         54.4220  -14.7630   21.6000 C.2    77  LEU77       0.2260
     60  O         54.5350  -15.9590   21.8650 O.2    77  LEU77      -0.2867
     61  CB        52.2500  -14.5780   20.3900 C.3    77  LEU77       0.0270
     62  CG        50.7720  -14.3370   20.4360 C.3    77  LEU77       0.0019
     63  CD1       50.1740  -14.5970   19.0550 C.3    77  LEU77       0.0001
     64  CD2       50.0840  -15.1180   21.5500 C.3    77  LEU77       0.0001
     65  N         45.6230   -4.3970   21.8580 N.3   108  ILE108     -0.1231
     66  CA        45.8740   -5.8130   21.7420 C.3   108  ILE108      0.1692
     67  C         46.0460   -6.3480   23.1620 C.2   108  ILE108      0.2592
     68  O         46.5900   -5.6750   24.0170 O.2   108  ILE108     -0.2718
     69  CB        47.1020   -6.1130   20.8850 C.3   108  ILE108      0.0266
     70  CG1       47.0640   -5.3630   19.5740 C.3   108  ILE108      0.0019
     71  CG2       47.2860   -7.6100   20.6670 C.3   108  ILE108      0.0020
     72  CD1       45.9460   -5.7510   18.6060 C.3   108  ILE108      0.0001
     73  N         45.5950   -7.5820   23.3910 N.am  109  ARG109     -0.1966
     74  CA        45.8130   -8.2910   24.6340 C.3   109  ARG109      0.1729
     75  C         46.1900   -9.7020   24.3090 C.2   109  ARG109      0.2616
     76  O         45.7950  -10.2280   23.2880 O.2   109  ARG109     -0.2715
     77  CB        44.5540   -8.3140   25.4890 C.3   109  ARG109      0.0348
     78  CG        44.0950   -6.9640   25.9950 C.3   109  ARG109      0.0492
     79  CD        42.8710   -7.1040   26.8770 C.3   109  ARG109      0.2205
     80  NE        41.7110   -7.4910   26.1210 N.pl3 109  ARG109     -0.0865
     81  CZ        40.8000   -6.6750   25.6150 C.cat 109  ARG109      0.5346
     82  NH1       40.9000   -5.3940   25.7830 N.pl3 109  ARG109      0.1354
     83  NH2       39.8040   -7.1310   24.8590 N.pl3 109  ARG109      0.1354
     84  N         46.9290  -10.3060   25.2100 N.am  110  LEU110     -0.1964
     85  CA        47.1270  -11.7360   25.2130 C.3   110  LEU110      0.1713
     86  C         46.0320  -12.4580   25.9870 C.2   110  LEU110      0.2458
     87  O         45.2750  -11.8590   26.7420 O.2   110  LEU110     -0.2730
     88  CB        48.5460  -12.0160   25.7080 C.3   110  LEU110      0.0310
     89  CG        49.5730  -11.1360   25.0160 C.3   110  LEU110      0.0022
     90  CD1       50.9190  -11.3020   25.6880 C.3   110  LEU110      0.0001
     91  CD2       49.6430  -11.3820   23.5200 C.3   110  LEU110      0.0001
     92  N         45.9270  -13.7690   25.7670 N.am  111  PRO111     -0.2727
     93  CA        44.8700  -14.5080   26.4100 C.3   111  PRO111      0.1402
     94  C         45.0300  -14.5860   27.9140 C.2   111  PRO111      0.2269
     95  O         46.1200  -14.3830   28.4540 O.2   111  PRO111     -0.2865
     96  CB        44.9800  -15.9030   25.8040 C.3   111  PRO111      0.0296
     97  CG        45.6550  -15.6960   24.4800 C.3   111  PRO111      0.0237
     98  CD        46.6150  -14.5710   24.7420 C.3   111  PRO111      0.0939
     99  N         39.4550   -4.3210   21.2480 N.3   140  PHE140     -0.1241
    100  CA        39.9680   -5.5760   20.7240 C.3   140  PHE140      0.1605
    101  C         38.8980   -6.6450   20.7300 C.2   140  PHE140      0.2264
    102  O         38.2370   -6.8720   21.7250 O.2   140  PHE140     -0.2867
    103  CB        41.0830   -6.0220   21.6350 C.3   140  PHE140      0.0534
    104  CG        41.8800   -7.2010   21.1760 C.ar  140  PHE140     -0.0203
    105  CD1       42.4700   -7.2420   19.9410 C.ar  140  PHE140     -0.0042
    106  CD2       42.1320   -8.2360   22.0320 C.ar  140  PHE140     -0.0042
    107  CE1       43.2890   -8.2750   19.5470 C.ar  140  PHE140     -0.0003
    108  CE2       42.9320   -9.2930   21.6650 C.ar  140  PHE140     -0.0003
    109  CZ        43.5320   -9.2770   20.4340 C.ar  140  PHE140     -0.0000
    110  N         39.2410  -10.0870   19.8350 N.3   142  LEU142     -0.1245
    111  CA        39.5680  -11.4890   19.7280 C.3   142  LEU142      0.1561
    112  C         38.9990  -12.3530   20.8280 C.2   142  LEU142      0.2260
    113  O         38.5690  -13.4610   20.5700 O.2   142  LEU142     -0.2867
    114  CB        41.0680  -11.6710   19.6040 C.3   142  LEU142      0.0270
    115  CG        41.5410  -13.1010   19.4360 C.3   142  LEU142      0.0019
    116  CD1       40.9210  -13.7390   18.2000 C.3   142  LEU142      0.0001
    117  CD2       43.0610  -13.1170   19.4140 C.3   142  LEU142      0.0001
    118  N         36.7350  -15.7100   20.2720 N.3   146  LYS146     -0.1245
    119  CA        37.1830  -17.0180   20.7080 C.3   146  LYS146      0.1561
    120  C         36.1550  -17.7360   21.5480 C.2   146  LYS146      0.2260
    121  O         36.2370  -18.9310   21.7270 O.2   146  LYS146     -0.2867
    122  CB        38.4950  -16.9020   21.4700 C.3   146  LYS146      0.0271
    123  CG        39.6990  -16.7020   20.6160 C.3   146  LYS146      0.0035
    124  CD        40.9410  -16.5570   21.4520 C.3   146  LYS146      0.0206
    125  CE        42.2200  -16.6640   20.6770 C.3   146  LYS146      0.1093
    126  NZ        43.4250  -16.4150   21.5530 N.3   146  LYS146     -0.1314
    127  N         42.9080  -20.8530   17.6650 N.3   157  ILE157     -0.1231
    128  CA        43.7490  -19.6760   17.7470 C.3   157  ILE157      0.1692
    129  C         43.2770  -18.5640   16.8060 C.2   157  ILE157      0.2592
    130  O         43.2100  -17.3840   17.1850 O.2   157  ILE157     -0.2718
    131  CB        45.2070  -20.0650   17.4470 C.3   157  ILE157      0.0266
    132  CG1       45.6830  -20.8760   18.6450 C.3   157  ILE157      0.0019
    133  CG2       46.0980  -18.8590   17.2020 C.3   157  ILE157      0.0020
    134  CD1       46.9260  -21.6690   18.3510 C.3   157  ILE157      0.0001
    135  N         42.9280  -18.9490   15.5730 N.am  158  HIS158     -0.1976
    136  CA        42.5920  -17.9740   14.5400 C.3   158  HIS158      0.1656
    137  C         41.0920  -17.9990   14.2440 C.2   158  HIS158      0.2291
    138  O         40.5400  -19.0500   13.9790 O.2   158  HIS158     -0.2864
    139  CB        43.3280  -18.2860   13.2640 C.3   158  HIS158      0.0771
    140  CG        44.8040  -18.2070   13.3920 C.ar  158  HIS158      0.0820
    141  ND1       45.6360  -19.3000   13.4810 N.ar  158  HIS158     -0.2267
    142  CD2       45.5970  -17.1270   13.3340 C.ar  158  HIS158      0.1154
    143  CE1       46.8860  -18.8870   13.5550 C.ar  158  HIS158      0.1986
    144  NE2       46.8880  -17.5740   13.4350 N.ar  158  HIS158     -0.2212
@<TRIPOS>BOND
     1    25    26    2
     2    25    24    1
     3    35    36    1
     4    40    39    1
     5    39    36    1
     6    24    23    1
     7    24    27    1
     8    38    37    2
     9    36    37    1
    10    37    41   am
    11    30    32   ar
    12    30    28   ar
    13    32    33   ar
    14    27    28    1
    15    28    29   ar
    16    33    34    1
    17    33    31   ar
    18     4     3    2
    19    29    31   ar
    20    12    11    2
    21    10    13    1
    22    10     9    1
    23    10    11    1
    24    41    42    1
    25     3     9   am
    26     3     2    1
    27    13    14    1
    28     2     1    1
    29     2     5    1
    30    11    15   am
    31    42    43    1
    32    43    44    2
    33    17    18    2
    34    17    16    1
    35    15    16    1
    36     5     6    1
    37    16    19    1
    38   139   140    1
    39   139   136    1
    40   142   140   ar
    41   142   144   ar
    42   140   141   ar
    43   144   143   ar
    44   141   143   ar
    45     7     6   ar
    46     6     8   ar
    47   138   137    2
    48    19    20    1
    49    56    54   am
    50   137   136    1
    51   136   135    1
    52    54    55    2
    53    54    53    1
    54    20    22    1
    55    20    21    1
    56   135   129   am
    57    53    50    1
    58   129   130    2
    59   129   128    1
    60   133   131    1
    61   131   128    1
    62   131   132    1
    63    50    49    1
    64    50    51    1
    65   127   128    1
    66    49    47   am
    67   116   115    1
    68   134   132    1
    69    51    52    2
    70    72    70    1
    71    45    46    1
    72    47    46    1
    73    47    48    2
    74    63    62    1
    75   117   115    1
    76   115   114    1
    77   107   105   ar
    78   107   109   ar
    79    70    69    1
    80   114   111    1
    81   111   110    1
    82   111   112    1
    83   105   104   ar
    84   118   119    1
    85    61    62    1
    86    61    58    1
    87   109   108   ar
    88    62    64    1
    89   113   112    2
    90   123   124    1
    91   123   122    1
    92    71    69    1
    93   125   124    1
    94   125   126    1
    95   119   122    1
    96   119   120    1
    97   100   101    1
    98   100    99    1
    99   100   103    1
   100   101   102    2
   101    69    66    1
   102   104   103    1
   103   104   106   ar
   104   120   121    2
   105    59    58    1
   106    59    60    2
   107    58    57    1
   108   108   106   ar
   109    66    65    1
   110    66    67    1
   111    67    73   am
   112    67    68    2
   113    76    75    2
   114    73    74    1
   115    91    89    1
   116    75    74    1
   117    75    84   am
   118    97    98    1
   119    97    96    1
   120    74    77    1
   121    98    92    1
   122    83    81    1
   123    89    90    1
   124    89    88    1
   125    84    85    1
   126    85    88    1
   127    85    86    1
   128    77    78    1
   129    81    82    1
   130    81    80    2
   131    92    86   am
   132    92    93    1
   133    96    93    1
   134    86    87    2
   135    78    79    1
   136    80    79    1
   137    93    94    1
   138    94    95    2
