@<TRIPOS>MOLECULE
tmp/5tipC04.pdb
 70 68 0 0 0
SMALL
GASTEIGER

@<TRIPOS>ATOM
      1  N          5.9540   -8.0130  -17.8980 N.3    81  GLY81      -0.1210
      2  CA         5.7390   -7.5660  -16.5330 C.3    81  GLY81       0.1956
      3  C          6.2820   -8.5560  -15.5160 C.2    81  GLY81       0.2612
      4  O          6.1050   -9.7690  -15.6370 O.2    81  GLY81      -0.2717
      5  N          6.9510   -8.0200  -14.4960 N.am   82  GLY82      -0.1942
      6  CA         7.4530   -8.8400  -13.4120 C.3    82  GLY82       0.2014
      7  C          8.6720   -9.6700  -13.7400 C.2    82  GLY82       0.2639
      8  O          8.8980  -10.6960  -13.0930 O.2    82  GLY82      -0.2714
      9  N          9.4710   -9.2590  -14.7240 N.am   83  THR83      -0.1950
     10  CA        10.6470  -10.0130  -15.1400 C.3    83  THR83       0.1897
     11  C         11.9580   -9.3600  -14.7180 C.2    83  THR83       0.2313
     12  O         13.0280   -9.8370  -15.1090 O.2    83  THR83      -0.2863
     13  CB        10.6340  -10.2230  -16.6570 C.3    83  THR83       0.1794
     14  OG1       10.5800   -8.9540  -17.3200 O.3    83  THR83      -0.2208
     15  CG2        9.4290  -11.0550  -17.0690 C.3    83  THR83       0.0378
     16  N          6.8010  -17.8250   -6.6960 N.3   284  CYS284     -0.1221
     17  CA         7.4080  -18.5390   -7.8110 C.3   284  CYS284      0.1808
     18  C          6.7300  -18.0960   -9.0980 C.2   284  CYS284      0.2602
     19  O          5.7020  -17.4150   -9.0820 O.2   284  CYS284     -0.2717
     20  CB         7.3050  -20.0570   -7.6320 C.3   284  CYS284      0.0970
     21  SG         5.6770  -20.7420   -8.0030 S.3   284  CYS284     -0.0800
     22  N          7.3280  -18.4890  -10.2180 N.am  285  SER285     -0.1938
     23  CA         6.8010  -18.1180  -11.5240 C.3   285  SER285      0.2055
     24  C          5.4830  -18.8380  -11.7890 C.2   285  SER285      0.2644
     25  O          5.4030  -20.0670  -11.6930 O.2   285  SER285     -0.2714
     26  CB         7.8180  -18.4460  -12.6150 C.3   285  SER285      0.2130
     27  OG         7.3450  -18.0540  -13.8920 O.3   285  SER285     -0.2179
     28  N          4.4480  -18.0700  -12.1200 N.am  286  GLY286     -0.1939
     29  CA         3.1510  -18.6440  -12.4260 C.3   286  GLY286      0.2014
     30  C          2.4570  -19.3040  -11.2570 C.2   286  GLY286      0.2638
     31  O          1.6790  -20.2420  -11.4570 O.2   286  GLY286     -0.2714
     32  N          2.7200  -18.8400  -10.0370 N.am  287  ALA287     -0.1977
     33  CA         2.1240  -19.4490   -8.8560 C.3   287  ALA287      0.1597
     34  C          0.6060  -19.3240   -8.8910 C.2   287  ALA287      0.2287
     35  O          0.0580  -18.3150   -9.3430 O.2   287  ALA287     -0.2864
     36  CB         2.6760  -18.7980   -7.5880 C.3   287  ALA287      0.0319
     37  N         -1.3820  -21.0630  -10.7440 N.3   289  THR289     -0.1218
     38  CA        -1.8870  -21.4850  -12.0430 C.3   289  THR289      0.1862
     39  C         -1.2780  -22.8340  -12.4140 C.2   289  THR289      0.2287
     40  O         -0.4770  -23.4090  -11.6720 O.2   289  THR289     -0.2866
     41  CB        -1.5780  -20.4390  -13.1200 C.3   289  THR289      0.1770
     42  OG1       -0.1590  -20.3410  -13.3000 O.3   289  THR289     -0.2211
     43  CG2       -2.1260  -19.0800  -12.7190 C.3   289  THR289      0.0375
     44  N         11.7150  -18.0260   -9.8980 N.3   297  PRO297     -0.2102
     45  CA        11.0000  -17.0570   -9.0660 C.3   297  PRO297      0.1504
     46  C         10.0910  -16.1610   -9.8940 C.2   297  PRO297      0.2576
     47  O         10.2020  -16.0630  -11.1170 O.2   297  PRO297     -0.2718
     48  CB        12.1250  -16.2340   -8.4210 C.3   297  PRO297      0.0282
     49  CG        13.4050  -16.9480   -8.7610 C.3   297  PRO297      0.0208
     50  CD        13.1430  -17.6990  -10.0160 C.3   297  PRO297      0.0893
     51  N          9.1730  -15.5020   -9.1900 N.am  298  ASP298     -0.1960
     52  CA         8.4560  -14.3490   -9.7300 C.3   298  ASP298      0.1840
     53  C          9.3930  -13.1600   -9.5740 C.2   298  ASP298      0.2622
     54  O          9.4110  -12.4880   -8.5430 O.2   298  ASP298     -0.2715
     55  CB         7.1310  -14.1420   -9.0050 C.3   298  ASP298      0.1450
     56  CG         6.2890  -13.0310   -9.6170 C.2   298  ASP298      0.3671
     57  OD1        6.7600  -12.3640  -10.5630 O.co2 298  ASP298     -0.2456
     58  OD2        5.1470  -12.8300   -9.1540 O.co2 298  ASP298     -0.2456
     59  N         10.1930  -12.9120  -10.6170 N.am  299  TYR299     -0.1974
     60  CA        11.3360  -12.0090  -10.5010 C.3   299  TYR299      0.1639
     61  C         10.9310  -10.6490   -9.9470 C.2   299  TYR299      0.2290
     62  O         11.5890  -10.1110   -9.0510 O.2   299  TYR299     -0.2864
     63  CB        12.0200  -11.8490  -11.8600 C.3   299  TYR299      0.0560
     64  CG        12.7080  -13.0980  -12.3640 C.ar  299  TYR299     -0.0198
     65  CD1       13.8920  -13.5420  -11.7890 C.ar  299  TYR299     -0.0009
     66  CD2       12.1840  -13.8240  -13.4250 C.ar  299  TYR299     -0.0009
     67  CE1       14.5290  -14.6790  -12.2510 C.ar  299  TYR299      0.0417
     68  CE2       12.8150  -14.9630  -13.8940 C.ar  299  TYR299      0.0417
     69  CZ        13.9870  -15.3860  -13.3030 C.ar  299  TYR299      0.1957
     70  OH        14.6170  -16.5190  -13.7650 O.3   299  TYR299     -0.2866
@<TRIPOS>BOND
     1     1     2    1
     2    14    13    1
     3    15    13    1
     4    13    10    1
     5     2     3    1
     6     4     3    2
     7     3     5   am
     8    10     9    1
     9    10    11    1
    10    12    11    2
    11     9     7   am
    12     5     6    1
    13    68    66   ar
    14    68    69   ar
    15    27    26    1
    16    70    69    1
    17     7     6    1
    18     7     8    2
    19    66    64   ar
    20    69    67   ar
    21    42    41    1
    22    41    43    1
    23    41    38    1
    24    26    23    1
    25    29    28    1
    26    29    30    1
    27    39    38    1
    28    39    40    2
    29    64    63    1
    30    64    65   ar
    31    67    65   ar
    32    28    24   am
    33    38    37    1
    34    63    60    1
    35    24    25    2
    36    24    23    1
    37    23    22    1
    38    31    30    2
    39    30    32   am
    40    47    46    2
    41    59    60    1
    42    59    53   am
    43    57    56   ar
    44    60    61    1
    45    22    18   am
    46    32    33    1
    47    50    44    1
    48    50    49    1
    49    61    62    2
    50    44    45    1
    51    46    51   am
    52    46    45    1
    53    52    53    1
    54    52    51    1
    55    52    55    1
    56    56    58   ar
    57    56    55    1
    58    53    54    2
    59    35    34    2
    60    18    19    2
    61    18    17    1
    62    45    48    1
    63    34    33    1
    64    33    36    1
    65    49    48    1
    66    21    20    1
    67    17    20    1
    68    17    16    1
