@<TRIPOS>MOLECULE
tmp/5tisW11.pdb
 90 90 0 0 0
SMALL
GASTEIGER

@<TRIPOS>ATOM
      1  N       -127.5890  -15.3850  324.5050 N.3   181  THR181     -0.1203
      2  CA      -127.6140  -14.0730  325.1360 C.3   181  THR181      0.1994
      3  C       -127.9040  -13.0110  324.0820 C.2   181  THR181      0.2618
      4  O       -127.1080  -12.8060  323.1590 O.2   181  THR181     -0.2717
      5  CB      -126.2920  -13.7910  325.8440 C.3   181  THR181      0.1784
      6  OG1     -126.0470  -14.8160  326.8150 O.3   181  THR181     -0.2211
      7  CG2     -126.3440  -12.4420  326.5450 C.3   181  THR181      0.0376
      8  N       -129.0510  -12.3450  324.2170 N.am  182  LEU182     -0.1965
      9  CA      -129.4570  -11.3000  323.2920 C.3   182  LEU182      0.1728
     10  C       -129.3500   -9.9030  323.8800 C.2   182  LEU182      0.2616
     11  O       -129.4480   -8.9270  323.1280 O.2   182  LEU182     -0.2715
     12  CB      -130.8990  -11.5400  322.8220 C.3   182  LEU182      0.0311
     13  CG      -131.1680  -12.8870  322.1480 C.3   182  LEU182      0.0022
     14  CD1     -132.6390  -13.0180  321.7840 C.3   182  LEU182      0.0001
     15  CD2     -130.2890  -13.0550  320.9190 C.3   182  LEU182      0.0001
     16  N       -129.1560   -9.7830  325.1890 N.am  183  ASP183     -0.1958
     17  CA      -129.0430   -8.4870  325.8420 C.3   183  ASP183      0.1825
     18  C       -127.8820   -7.7010  325.2410 C.2   183  ASP183      0.2464
     19  O       -126.7250   -8.1320  325.3580 O.2   183  ASP183     -0.2730
     20  CB      -128.8420   -8.6770  327.3460 C.3   183  ASP183      0.1450
     21  CG      -128.9400   -7.3760  328.1280 C.2   183  ASP183      0.3671
     22  OD1     -129.0280   -6.2960  327.5090 O.co2 183  ASP183     -0.2456
     23  OD2     -128.9340   -7.4370  329.3750 O.co2 183  ASP183     -0.2456
     24  N       -128.1380   -6.5620  324.5880 N.am  184  PRO184     -0.2715
     25  CA      -127.0310   -5.7960  323.9960 C.3   184  PRO184      0.1536
     26  C       -126.1140   -5.1620  325.0260 C.2   184  PRO184      0.2598
     27  O       -124.9970   -4.7650  324.6720 O.2   184  PRO184     -0.2715
     28  CB      -127.7490   -4.7350  323.1510 C.3   184  PRO184      0.0310
     29  CG      -129.0840   -4.5800  323.8020 C.3   184  PRO184      0.0237
     30  CD      -129.4480   -5.9340  324.3430 C.3   184  PRO184      0.0939
     31  N       -126.5460   -5.0500  326.2850 N.am  185  ARG185     -0.1978
     32  CA      -125.6450   -4.5790  327.3300 C.3   185  ARG185      0.1597
     33  C       -124.5490   -5.5950  327.6150 C.2   185  ARG185      0.2287
     34  O       -123.4310   -5.2160  327.9840 O.2   185  ARG185     -0.2864
     35  CB      -126.4290   -4.2760  328.6040 C.3   185  ARG185      0.0334
     36  CG      -127.5400   -3.2600  328.4200 C.3   185  ARG185      0.0492
     37  CD      -128.4260   -3.2090  329.6470 C.3   185  ARG185      0.2205
     38  NE      -128.9710   -4.5250  329.9650 N.pl3 185  ARG185     -0.0865
     39  CZ      -129.7970   -4.7650  330.9770 C.cat 185  ARG185      0.5346
     40  NH1     -130.1770   -3.7760  331.7740 N.pl3 185  ARG185      0.1354
     41  NH2     -130.2440   -5.9950  331.1930 N.pl3 185  ARG185      0.1354
     42  N       -122.6670   -6.0860  323.5510 N.3   188  PHE188     -0.1241
     43  CA      -121.8200   -4.9460  323.2260 C.3   188  PHE188      0.1605
     44  C       -120.9960   -4.4610  324.4110 C.2   188  PHE188      0.2264
     45  O       -120.1100   -3.6190  324.2270 O.2   188  PHE188     -0.2867
     46  CB      -122.6670   -3.7920  322.6800 C.3   188  PHE188      0.0534
     47  CG      -123.3320   -4.0970  321.3690 C.ar  188  PHE188     -0.0203
     48  CD1     -124.6530   -4.5100  321.3270 C.ar  188  PHE188     -0.0042
     49  CD2     -122.6330   -3.9780  320.1790 C.ar  188  PHE188     -0.0042
     50  CE1     -125.2680   -4.7940  320.1210 C.ar  188  PHE188     -0.0003
     51  CE2     -123.2420   -4.2610  318.9690 C.ar  188  PHE188     -0.0003
     52  CZ      -124.5600   -4.6700  318.9410 C.ar  188  PHE188     -0.0000
     53  N       -125.5890  -14.0370  316.6180 N.3   216  ILE216     -0.1231
     54  CA      -126.9290  -13.6550  316.1810 C.3   216  ILE216      0.1692
     55  C       -126.9610  -12.1770  315.8120 C.2   216  ILE216      0.2592
     56  O       -127.4880  -11.7930  314.7610 O.2   216  ILE216     -0.2718
     57  CB      -127.9710  -13.9870  317.2650 C.3   216  ILE216      0.0266
     58  CG1     -128.1210  -15.5000  317.4200 C.3   216  ILE216      0.0019
     59  CG2     -129.3130  -13.3530  316.9300 C.3   216  ILE216      0.0020
     60  CD1     -129.1890  -15.9080  318.4140 C.3   216  ILE216      0.0001
     61  N       -126.3970  -11.3270  316.6720 N.am  217  TRP217     -0.1976
     62  CA      -126.3130   -9.9050  316.3570 C.3   217  TRP217      0.1640
     63  C       -125.4920   -9.6730  315.0950 C.2   217  TRP217      0.2290
     64  O       -125.8950   -8.9100  314.2100 O.2   217  TRP217     -0.2864
     65  CB      -125.7180   -9.1390  317.5390 C.3   217  TRP217      0.0576
     66  CG      -126.7180   -8.8360  318.6020 C.ar  217  TRP217      0.0006
     67  CD1     -127.0340   -9.6130  319.6770 C.ar  217  TRP217      0.0946
     68  CD2     -127.5470   -7.6720  318.6890 C.ar  217  TRP217      0.0152
     69  NE1     -128.0070   -9.0030  320.4320 N.ar  217  TRP217     -0.2442
     70  CE2     -128.3390   -7.8090  319.8470 C.ar  217  TRP217      0.0810
     71  CE3     -127.6950   -6.5250  317.9020 C.ar  217  TRP217      0.0012
     72  CZ2     -129.2650   -6.8430  320.2360 C.ar  217  TRP217      0.0191
     73  CZ3     -128.6140   -5.5680  318.2910 C.ar  217  TRP217      0.0001
     74  CH2     -129.3880   -5.7330  319.4470 C.ar  217  TRP217      0.0015
     75  N       -127.4570  -10.5090  311.8910 N.3   220  LEU220     -0.1231
     76  CA      -128.4680   -9.5120  311.5600 C.3   220  LEU220      0.1693
     77  C       -127.8320   -8.1960  311.1320 C.2   220  LEU220      0.2591
     78  O       -128.3620   -7.5020  310.2550 O.2   220  LEU220     -0.2718
     79  CB      -129.4020   -9.2980  312.7500 C.3   220  LEU220      0.0284
     80  CG      -130.1480  -10.5450  313.2310 C.3   220  LEU220      0.0019
     81  CD1     -131.0740  -10.2200  314.3970 C.3   220  LEU220      0.0001
     82  CD2     -130.9220  -11.1800  312.0870 C.3   220  LEU220      0.0001
     83  N       -126.6940   -7.8380  311.7330 N.am  221  ILE221     -0.1980
     84  CA      -126.0380   -6.5790  311.3900 C.3   221  ILE221      0.1595
     85  C       -125.4730   -6.6330  309.9750 C.2   221  ILE221      0.2287
     86  O       -125.5940   -5.6720  309.2050 O.2   221  ILE221     -0.2864
     87  CB      -124.9490   -6.2430  312.4260 C.3   221  ILE221      0.0276
     88  CG1     -125.5880   -5.8250  313.7510 C.3   221  ILE221      0.0022
     89  CG2     -124.0370   -5.1400  311.9130 C.3   221  ILE221      0.0022
     90  CD1     -126.4940   -4.6230  313.6330 C.3   221  ILE221      0.0001
@<TRIPOS>BOND
     1    86    85    2
     2    85    84    1
     3    78    77    2
     4    77    76    1
     5    77    83   am
     6    84    83    1
     7    84    87    1
     8    76    75    1
     9    76    79    1
    10    89    87    1
    11    82    80    1
    12    87    88    1
    13    79    80    1
    14    80    81    1
    15    90    88    1
    16    64    63    2
    17    56    55    2
    18    63    62    1
    19    55    54    1
    20    55    61   am
    21    54    53    1
    22    54    57    1
    23    62    61    1
    24    62    65    1
    25    59    57    1
    26    57    58    1
    27    58    60    1
    28    65    66    1
    29    71    73   ar
    30    71    68   ar
    31    73    74   ar
    32    66    68   ar
    33    66    67   ar
    34    68    70   ar
    35    52    51   ar
    36    52    50   ar
    37    51    49   ar
    38    74    72   ar
    39    67    69   ar
    40    70    72   ar
    41    70    69   ar
    42    50    48   ar
    43    49    47   ar
    44    15    13    1
    45    48    47   ar
    46    47    46    1
    47    14    13    1
    48    13    12    1
    49    46    43    1
    50    12     9    1
    51    11    10    2
    52    28    29    1
    53    28    25    1
    54     4     3    2
    55    43    42    1
    56    43    44    1
    57     9    10    1
    58     9     8    1
    59    29    30    1
    60    10    16   am
    61    25    24    1
    62    25    26    1
    63     3     8   am
    64     3     2    1
    65    45    44    2
    66    30    24    1
    67     1     2    1
    68    24    18   am
    69    27    26    2
    70    26    31   am
    71     2     5    1
    72    16    17    1
    73    18    19    2
    74    18    17    1
    75    17    20    1
    76     5     7    1
    77     5     6    1
    78    31    32    1
    79    32    33    1
    80    32    35    1
    81    20    21    1
    82    22    21   ar
    83    33    34    2
    84    21    23   ar
    85    36    35    1
    86    36    37    1
    87    37    38    1
    88    38    39    2
    89    39    41    1
    90    39    40    1
