@<TRIPOS>MOLECULE
tmp/5tisU14.pdb
 79 75 0 0 0
SMALL
GASTEIGER

@<TRIPOS>ATOM
      1  N        -87.2000   11.6050  331.8530 N.3    39  VAL39      -0.1231
      2  CA       -86.0730   12.3620  332.3920 C.3    39  VAL39       0.1692
      3  C        -86.1840   12.4800  333.9060 C.2    39  VAL39       0.2591
      4  O        -85.2000   12.2910  334.6320 O.2    39  VAL39      -0.2718
      5  CB       -85.9800   13.7450  331.7200 C.3    39  VAL39       0.0266
      6  CG1      -84.9760   14.6210  332.4490 C.3    39  VAL39       0.0020
      7  CG2      -85.5880   13.5970  330.2560 C.3    39  VAL39       0.0020
      8  N        -87.3860   12.7730  334.4070 N.am   40  ILE40      -0.1980
      9  CA       -87.5790   12.9030  335.8480 C.3    40  ILE40       0.1595
     10  C        -87.3880   11.5600  336.5410 C.2    40  ILE40       0.2287
     11  O        -86.7490   11.4780  337.5960 O.2    40  ILE40      -0.2864
     12  CB       -88.9670   13.5020  336.1430 C.3    40  ILE40       0.0276
     13  CG1      -89.0790   14.9070  335.5490 C.3    40  ILE40       0.0022
     14  CG2      -89.2320   13.5280  337.6420 C.3    40  ILE40       0.0022
     15  CD1      -90.4590   15.5200  335.6830 C.3    40  ILE40       0.0001
     16  N        -83.7320   10.3270  336.8690 N.3    43  ILE43      -0.1231
     17  CA       -82.8970   11.0790  337.8010 C.3    43  ILE43       0.1692
     18  C        -83.2820   10.8120  339.2530 C.2    43  ILE43       0.2591
     19  O        -82.4060   10.6180  340.1000 O.2    43  ILE43      -0.2718
     20  CB       -82.9650   12.5840  337.4650 C.3    43  ILE43       0.0266
     21  CG1      -82.2760   12.8620  336.1280 C.3    43  ILE43       0.0019
     22  CG2      -82.3370   13.4150  338.5750 C.3    43  ILE43       0.0020
     23  CD1      -82.4700   14.2750  335.6190 C.3    43  ILE43       0.0001
     24  N        -84.5810   10.7790  339.5780 N.am   44  ALA44      -0.1980
     25  CA       -84.9950   10.8360  340.9760 C.3    44  ALA44       0.1597
     26  C        -86.0700    9.8280  341.3800 C.2    44  ALA44       0.2287
     27  O        -86.5980    9.9370  342.4930 O.2    44  ALA44      -0.2864
     28  CB       -85.4820   12.2500  341.3140 C.3    44  ALA44       0.0319
     29  N        -87.7450    6.6400  343.0060 N.3    46  PRO46      -0.2116
     30  CA       -87.2990    5.7380  344.0770 C.3    46  PRO46       0.1372
     31  C        -87.2640    4.2970  343.5980 C.2    46  PRO46       0.2244
     32  O        -87.7180    4.0010  342.4830 O.2    46  PRO46      -0.2868
     33  CB       -88.3610    5.9480  345.1690 C.3    46  PRO46       0.0268
     34  CG       -89.5830    6.3510  344.4210 C.3    46  PRO46       0.0207
     35  CD       -89.1070    7.1510  343.2380 C.3    46  PRO46       0.0892
     36  N        -80.0860    9.6210  341.5600 N.3    62  LEU62      -0.1231
     37  CA       -80.0500   10.0840  342.9430 C.3    62  LEU62       0.1693
     38  C        -80.0080    8.9450  343.9510 C.2    62  LEU62       0.2592
     39  O        -79.7020    9.1910  345.1220 O.2    62  LEU62      -0.2718
     40  CB       -81.2550   10.9820  343.2330 C.3    62  LEU62       0.0284
     41  CG       -81.1480   12.4160  342.7120 C.3    62  LEU62       0.0019
     42  CD1      -82.3600   13.2380  343.1230 C.3    62  LEU62       0.0001
     43  CD2      -79.8640   13.0600  343.2120 C.3    62  LEU62       0.0001
     44  N        -80.3000    7.7140  343.5330 N.am   63  TYR63      -0.1976
     45  CA       -80.2900    6.5610  344.4240 C.3    63  TYR63       0.1639
     46  C        -79.0910    5.6500  344.1700 C.2    63  TYR63       0.2290
     47  O        -79.1860    4.4310  344.3290 O.2    63  TYR63      -0.2864
     48  CB       -81.5970    5.7810  344.3000 C.3    63  TYR63       0.0560
     49  CG       -82.7540    6.4250  345.0270 C.ar   63  TYR63      -0.0198
     50  CD1      -83.4700    7.4670  344.4500 C.ar   63  TYR63      -0.0009
     51  CD2      -83.1270    5.9950  346.2930 C.ar   63  TYR63      -0.0009
     52  CE1      -84.5280    8.0610  345.1120 C.ar   63  TYR63       0.0417
     53  CE2      -84.1850    6.5840  346.9650 C.ar   63  TYR63       0.0417
     54  CZ       -84.8820    7.6150  346.3700 C.ar   63  TYR63       0.1957
     55  OH       -85.9330    8.2030  347.0360 O.3    63  TYR63      -0.2866
     56  N        -99.1000    8.7720  344.9420 N.3    92  LEU92      -0.1231
     57  CA       -97.9320    8.7580  344.0670 C.3    92  LEU92       0.1693
     58  C        -96.8540    7.8270  344.6060 C.2    92  LEU92       0.2592
     59  O        -96.1610    7.1550  343.8310 O.2    92  LEU92      -0.2718
     60  CB       -97.3800   10.1740  343.8960 C.3    92  LEU92       0.0284
     61  CG       -98.0800   11.0600  342.8660 C.3    92  LEU92       0.0019
     62  CD1      -97.4620   12.4490  342.8510 C.3    92  LEU92       0.0001
     63  CD2      -98.0100   10.4270  341.4860 C.3    92  LEU92       0.0001
     64  N        -96.7030    7.7690  345.9320 N.am   93  ASP93      -0.1974
     65  CA       -95.6980    6.8950  346.5310 C.3    93  ASP93       0.1709
     66  C        -95.9450    5.4370  346.1630 C.2    93  ASP93       0.2293
     67  O        -95.0110    4.7140  345.7980 O.2    93  ASP93      -0.2864
     68  CB       -95.6900    7.0750  348.0500 C.3    93  ASP93       0.1436
     69  CG       -95.3910    8.5040  348.4680 C.2    93  ASP93       0.3671
     70  OD1      -94.4880    9.1290  347.8740 O.co2  93  ASP93      -0.2456
     71  OD2      -96.0630    9.0040  349.3920 O.co2  93  ASP93      -0.2456
     72  N        -95.1020    4.9810  342.4620 N.3    96  LEU96      -0.1245
     73  CA       -93.6660    4.9010  342.2050 C.3    96  LEU96       0.1561
     74  C        -93.0970    3.5590  342.6490 C.2    96  LEU96       0.2260
     75  O        -92.2490    2.9800  341.9600 O.2    96  LEU96      -0.2867
     76  CB       -92.9430    6.0500  342.9060 C.3    96  LEU96       0.0270
     77  CG       -93.2190    7.4470  342.3480 C.3    96  LEU96       0.0019
     78  CD1      -92.6230    8.5140  343.2520 C.3    96  LEU96       0.0001
     79  CD2      -92.6690    7.5690  340.9350 C.3    96  LEU96       0.0001
@<TRIPOS>BOND
     1     7     5    1
     2     5     2    1
     3     5     6    1
     4     1     2    1
     5     2     3    1
     6     3     8   am
     7     3     4    2
     8     8     9    1
     9    13    15    1
    10    13    12    1
    11    23    21    1
    12     9    12    1
    13     9    10    1
    14    21    20    1
    15    12    14    1
    16    10    11    2
    17    16    17    1
    18    20    17    1
    19    20    22    1
    20    17    18    1
    21    18    24   am
    22    18    19    2
    23    24    25    1
    24    79    77    1
    25    25    28    1
    26    25    26    1
    27    26    27    2
    28    63    61    1
    29    36    37    1
    30    75    74    2
    31    73    72    1
    32    73    74    1
    33    73    76    1
    34    77    76    1
    35    77    78    1
    36    32    31    2
    37    41    42    1
    38    41    43    1
    39    41    40    1
    40    62    61    1
    41    61    60    1
    42    37    40    1
    43    37    38    1
    44    29    35    1
    45    29    30    1
    46    35    34    1
    47    44    38   am
    48    44    45    1
    49    31    30    1
    50    59    58    2
    51    60    57    1
    52    38    39    2
    53    57    58    1
    54    57    56    1
    55    30    33    1
    56    46    47    2
    57    46    45    1
    58    48    45    1
    59    48    49    1
    60    34    33    1
    61    50    49   ar
    62    50    52   ar
    63    58    64   am
    64    49    51   ar
    65    52    54   ar
    66    67    66    2
    67    64    65    1
    68    66    65    1
    69    51    53   ar
    70    54    53   ar
    71    54    55    1
    72    65    68    1
    73    70    69   ar
    74    68    69    1
    75    69    71   ar
