@<TRIPOS>MOLECULE
tmp/5tisB14.pdb
 105 105 0 0 0
SMALL
GASTEIGER

@<TRIPOS>ATOM
      1  N        -83.1120   22.9720  344.5160 N.3    38  LEU38      -0.1245
      2  CA       -83.0010   21.5310  344.3090 C.3    38  LEU38       0.1561
      3  C        -81.7470   20.9770  344.9700 C.2    38  LEU38       0.2260
      4  O        -81.7750   19.8930  345.5650 O.2    38  LEU38      -0.2867
      5  CB       -83.0090   21.2110  342.8140 C.3    38  LEU38       0.0270
      6  CG       -84.3300   21.4590  342.0800 C.3    38  LEU38       0.0019
      7  CD1      -84.1730   21.2170  340.5880 C.3    38  LEU38       0.0001
      8  CD2      -85.4370   20.5860  342.6540 C.3    38  LEU38       0.0001
      9  N        -82.3920   20.8910  348.7660 N.3    41  LEU41      -0.1231
     10  CA       -83.3010   19.8160  349.1570 C.3    41  LEU41       0.1693
     11  C        -82.6110   18.4570  349.1540 C.2    41  LEU41       0.2592
     12  O        -82.9590   17.5870  349.9610 O.2    41  LEU41      -0.2718
     13  CB       -84.5160   19.7850  348.2300 C.3    41  LEU41       0.0284
     14  CG       -85.5540   20.8930  348.4070 C.3    41  LEU41       0.0019
     15  CD1      -86.6480   20.7660  347.3610 C.3    41  LEU41       0.0001
     16  CD2      -86.1410   20.8520  349.8070 C.3    41  LEU41       0.0001
     17  N        -81.6420   18.2520  348.2600 N.am   42  ALA42      -0.1966
     18  CA       -80.9500   16.9730  348.1800 C.3    42  ALA42       0.1728
     19  C        -79.9340   16.7790  349.2980 C.2    42  ALA42       0.2617
     20  O        -79.5070   15.6440  349.5360 O.2    42  ALA42      -0.2715
     21  CB       -80.2530   16.8310  346.8250 C.3    42  ALA42       0.0334
     22  N        -79.5390   17.8500  349.9870 N.am   43  THR43      -0.1937
     23  CA       -78.5560   17.7610  351.0570 C.3    43  THR43       0.2028
     24  C        -79.1000   18.1830  352.4150 C.2    43  THR43       0.2642
     25  O        -78.3430   18.1790  353.3940 O.2    43  THR43      -0.2714
     26  CB       -77.3190   18.6110  350.7240 C.3    43  THR43       0.1808
     27  OG1      -77.7060   19.9780  350.5430 O.3    43  THR43      -0.2208
     28  CG2      -76.6500   18.1090  349.4520 C.3    43  THR43       0.0379
     29  N        -80.3790   18.5390  352.5120 N.am   44  PHE44      -0.1959
     30  CA       -80.9550   19.0210  353.7610 C.3    44  PHE44       0.1771
     31  C        -81.4190   17.8500  354.6160 C.2    44  PHE44       0.2620
     32  O        -82.0470   16.9110  354.1150 O.2    44  PHE44      -0.2715
     33  CB       -82.1220   19.9720  353.4890 C.3    44  PHE44       0.0574
     34  CG       -82.8030   20.4750  354.7330 C.ar   44  PHE44      -0.0200
     35  CD1      -82.1050   21.2200  355.6690 C.ar   44  PHE44      -0.0042
     36  CD2      -84.1460   20.2180  354.9570 C.ar   44  PHE44      -0.0042
     37  CE1      -82.7310   21.6880  356.8120 C.ar   44  PHE44      -0.0003
     38  CE2      -84.7770   20.6850  356.0950 C.ar   44  PHE44      -0.0003
     39  CZ       -84.0690   21.4210  357.0240 C.ar   44  PHE44      -0.0000
     40  N        -81.0960   17.9110  355.9080 N.am   45  ASP45      -0.1958
     41  CA       -81.5490   16.9300  356.8820 C.3    45  ASP45       0.1825
     42  C        -82.6440   17.5610  357.7280 C.2    45  ASP45       0.2464
     43  O        -82.3480   18.4500  358.5420 O.2    45  ASP45      -0.2730
     44  CB       -80.3830   16.4730  357.7600 C.3    45  ASP45       0.1450
     45  CG       -80.7870   15.4270  358.7870 C.2    45  ASP45       0.3671
     46  OD1      -81.9220   14.9080  358.7230 O.co2  45  ASP45      -0.2456
     47  OD2      -79.9560   15.1240  359.6700 O.co2  45  ASP45      -0.2456
     48  N        -83.9050   17.1630  357.5710 N.am   46  PRO46      -0.2727
     49  CA       -84.9970   17.7800  358.3370 C.3    46  PRO46       0.1402
     50  C        -85.3390   17.0920  359.6510 C.2    46  PRO46       0.2269
     51  O        -86.3720   17.4230  360.2390 O.2    46  PRO46      -0.2865
     52  CB       -86.1730   17.6630  357.3590 C.3    46  PRO46       0.0296
     53  CG       -85.9160   16.3630  356.6680 C.3    46  PRO46       0.0237
     54  CD       -84.4120   16.2310  356.5470 C.3    46  PRO46       0.0939
     55  N        -93.0160   17.7710  349.5490 N.3    74  TRP74      -0.1227
     56  CA       -93.8200   16.6610  349.0500 C.3    74  TRP74       0.1737
     57  C        -93.4630   15.3460  349.7290 C.2    74  TRP74       0.2596
     58  O        -94.2630   14.4050  349.6950 O.2    74  TRP74      -0.2718
     59  CB       -93.6460   16.5210  347.5370 C.3    74  TRP74       0.0564
     60  CG       -94.3300   17.5870  346.7500 C.ar   74  TRP74       0.0003
     61  CD1      -95.3260   18.4140  347.1800 C.ar   74  TRP74       0.0946
     62  CD2      -94.0690   17.9480  345.3890 C.ar   74  TRP74       0.0152
     63  NE1      -95.7030   19.2660  346.1710 N.ar   74  TRP74      -0.2442
     64  CE2      -94.9450   19.0010  345.0610 C.ar   74  TRP74       0.0810
     65  CE3      -93.1790   17.4820  344.4150 C.ar   74  TRP74       0.0012
     66  CZ2      -94.9570   19.5970  343.8010 C.ar   74  TRP74       0.0191
     67  CZ3      -93.1930   18.0750  343.1650 C.ar   74  TRP74       0.0001
     68  CH2      -94.0760   19.1210  342.8690 C.ar   74  TRP74       0.0015
     69  N        -92.2810   15.2650  350.3430 N.am   75  SER75      -0.1952
     70  CA       -91.8360   14.0570  351.0230 C.3    75  SER75       0.1924
     71  C        -92.5820   13.8010  352.3270 C.2    75  SER75       0.2314
     72  O        -92.4800   12.6950  352.8700 O.2    75  SER75      -0.2863
     73  CB       -90.3340   14.1470  351.2920 C.3    75  SER75       0.2116
     74  OG       -89.7770   12.8650  351.5070 O.3    75  SER75      -0.2180
     75  N        -92.4650   15.9360  355.2470 N.3    77  TRP77      -0.1241
     76  CA       -91.9160   16.6150  356.4100 C.3    77  TRP77       0.1605
     77  C        -92.0600   18.1250  356.2690 C.2    77  TRP77       0.2264
     78  O        -92.2590   18.6560  355.1720 O.2    77  TRP77      -0.2867
     79  CB       -90.4410   16.2490  356.6200 C.3    77  TRP77       0.0550
     80  CG       -89.5620   16.5340  355.4340 C.ar   77  TRP77       0.0003
     81  CD1      -89.1380   15.6380  354.4960 C.ar   77  TRP77       0.0946
     82  CD2      -89.0000   17.8000  355.0610 C.ar   77  TRP77       0.0152
     83  NE1      -88.3470   16.2650  353.5650 N.ar   77  TRP77      -0.2442
     84  CE2      -88.2470   17.5930  353.8890 C.ar   77  TRP77       0.0810
     85  CE3      -89.0590   19.0870  355.6060 C.ar   77  TRP77       0.0012
     86  CZ2      -87.5610   18.6230  353.2510 C.ar   77  TRP77       0.0191
     87  CZ3      -88.3780   20.1090  354.9710 C.ar   77  TRP77       0.0001
     88  CH2      -87.6380   19.8710  353.8070 C.ar   77  TRP77       0.0015
     89  N        -90.3090   21.6510  346.6420 N.3    93  GLU93      -0.1245
     90  CA       -90.1680   21.1000  345.2990 C.3    93  GLU93       0.1567
     91  C        -91.0400   21.8520  344.3020 C.2    93  GLU93       0.2260
     92  O        -90.6290   22.0880  343.1600 O.2    93  GLU93      -0.2867
     93  CB       -90.5210   19.6110  345.3010 C.3    93  GLU93       0.0388
     94  CG       -89.6540   18.7470  346.2100 C.3    93  GLU93       0.1160
     95  CD       -90.1240   18.7420  347.6560 C.2    93  GLU93       0.3649
     96  OE1      -91.2300   19.2540  347.9310 O.co2  93  GLU93      -0.2457
     97  OE2      -89.3850   18.2230  348.5180 O.co2  93  GLU93      -0.2457
     98  N        -88.0130   26.8880  337.6200 N.3   100  ILE100     -0.1245
     99  CA       -87.3710   26.2170  336.4920 C.3   100  ILE100      0.1561
    100  C        -88.2100   26.3760  335.2280 C.2   100  ILE100      0.2260
    101  O        -87.6940   26.7290  334.1600 O.2   100  ILE100     -0.2867
    102  CB       -87.1230   24.7330  336.8180 C.3   100  ILE100      0.0252
    103  CG1      -86.0430   24.5890  337.8930 C.3   100  ILE100      0.0019
    104  CG2      -86.7410   23.9630  335.5600 C.3   100  ILE100      0.0019
    105  CD1      -84.7060   25.1470  337.4900 C.3   100  ILE100      0.0001
@<TRIPOS>BOND
     1   101   100    2
     2   100    99    1
     3   104   102    1
     4    99   102    1
     5    99    98    1
     6   102   103    1
     7   105   103    1
     8     7     6    1
     9     6     8    1
    10     6     5    1
    11     5     2    1
    12    68    67   ar
    13    68    66   ar
    14    92    91    2
    15    67    65   ar
    16    66    64   ar
    17    91    90    1
    18     2     1    1
    19     2     3    1
    20    65    62   ar
    21     3     4    2
    22    64    62   ar
    23    64    63   ar
    24    90    93    1
    25    90    89    1
    26    93    94    1
    27    62    60   ar
    28    63    61   ar
    29    94    95    1
    30    60    61   ar
    31    60    59    1
    32    21    18    1
    33    15    14    1
    34    59    56    1
    35    95    96   ar
    36    95    97   ar
    37    18    17    1
    38    18    19    1
    39    13    14    1
    40    13    10    1
    41    17    11   am
    42    14    16    1
    43     9    10    1
    44    56    55    1
    45    56    57    1
    46    11    10    1
    47    11    12    2
    48    19    20    2
    49    19    22   am
    50    28    26    1
    51    58    57    2
    52    57    69   am
    53    22    23    1
    54    69    70    1
    55    27    26    1
    56    26    23    1
    57    70    73    1
    58    70    71    1
    59    23    24    1
    60    73    74    1
    61    71    72    2
    62    24    29   am
    63    24    25    2
    64    29    30    1
    65    86    88   ar
    66    86    84   ar
    67    33    30    1
    68    33    34    1
    69    83    84   ar
    70    83    81   ar
    71    30    31    1
    72    88    87   ar
    73    84    82   ar
    74    32    31    2
    75    81    80   ar
    76    31    40   am
    77    34    36   ar
    78    34    35   ar
    79    36    38   ar
    80    87    85   ar
    81    82    80   ar
    82    82    85   ar
    83    78    77    2
    84    75    76    1
    85    80    79    1
    86    35    37   ar
    87    40    41    1
    88    38    39   ar
    89    77    76    1
    90    76    79    1
    91    54    53    1
    92    54    48    1
    93    53    52    1
    94    37    39   ar
    95    41    42    1
    96    41    44    1
    97    52    49    1
    98    48    42   am
    99    48    49    1
   100    42    43    2
   101    44    45    1
   102    49    50    1
   103    46    45   ar
   104    45    47   ar
   105    50    51    2
