@<TRIPOS>MOLECULE
tmp/5tisC12.pdb
 92 89 0 0 0
SMALL
GASTEIGER

@<TRIPOS>ATOM
      1  N        -12.8850   73.3200  360.6120 N.3    39  VAL39      -0.1245
      2  CA       -12.0390   73.5480  361.7780 C.3    39  VAL39       0.1561
      3  C        -12.8120   74.2850  362.8640 C.2    39  VAL39       0.2260
      4  O        -12.5820   74.0630  364.0600 O.2    39  VAL39      -0.2867
      5  CB       -10.7650   74.3110  361.3710 C.3    39  VAL39       0.0252
      6  CG1       -9.7260   74.2310  362.4670 C.3    39  VAL39       0.0019
      7  CG2      -10.2020   73.7500  360.0820 C.3    39  VAL39       0.0019
      8  N         -3.7530   61.9050  375.3990 N.3    75  TRP75      -0.1241
      9  CA        -3.7670   63.1880  376.0880 C.3    75  TRP75       0.1605
     10  C         -4.8770   63.2160  377.1290 C.2    75  TRP75       0.2264
     11  O         -6.0350   62.9190  376.8180 O.2    75  TRP75      -0.2867
     12  CB        -3.9580   64.3410  375.1020 C.3    75  TRP75       0.0550
     13  CG        -2.6970   64.7970  374.4430 C.ar   75  TRP75       0.0003
     14  CD1       -1.5370   65.1620  375.0600 C.ar   75  TRP75       0.0946
     15  CD2       -2.4750   64.9650  373.0370 C.ar   75  TRP75       0.0152
     16  NE1       -0.6010   65.5340  374.1260 N.ar   75  TRP75      -0.2442
     17  CE2       -1.1520   65.4240  372.8760 C.ar   75  TRP75       0.0810
     18  CE3       -3.2640   64.7680  371.9000 C.ar   75  TRP75       0.0012
     19  CZ2       -0.6010   65.6880  371.6250 C.ar   75  TRP75       0.0191
     20  CZ3       -2.7150   65.0300  370.6580 C.ar   75  TRP75       0.0001
     21  CH2       -1.3960   65.4850  370.5300 C.ar   75  TRP75       0.0015
     22  N         -6.2740   65.1820  383.4630 N.3    85  ASP85      -0.1239
     23  CA        -5.9140   66.5570  383.1190 C.3    85  ASP85       0.1674
     24  C         -6.7670   66.9780  381.9300 C.2    85  ASP85       0.2266
     25  O         -6.5850   66.4560  380.8270 O.2    85  ASP85      -0.2867
     26  CB        -4.4260   66.6620  382.7990 C.3    85  ASP85       0.1410
     27  CG        -3.9760   68.0910  382.5500 C.2    85  ASP85       0.3668
     28  OD1       -4.7480   69.0290  382.8420 O.co2  85  ASP85      -0.2456
     29  OD2       -2.8430   68.2750  382.0590 O.co2  85  ASP85      -0.2456
     30  N         -6.8050   70.0340  380.6650 N.3    87  PHE87      -0.1228
     31  CA        -6.2020   71.1360  379.9210 C.3    87  PHE87       0.1721
     32  C         -5.8320   70.7740  378.4850 C.2    87  PHE87       0.2437
     33  O         -6.0380   71.6220  377.5980 O.2    87  PHE87      -0.2733
     34  CB        -4.9800   71.6690  380.6800 C.3    87  PHE87       0.0547
     35  CG        -4.5000   73.0030  380.1880 C.ar   87  PHE87      -0.0202
     36  CD1       -5.1790   74.1630  380.5250 C.ar   87  PHE87      -0.0042
     37  CD2       -3.3740   73.1000  379.3880 C.ar   87  PHE87      -0.0042
     38  CE1       -4.7440   75.3950  380.0740 C.ar   87  PHE87      -0.0003
     39  CE2       -2.9320   74.3310  378.9360 C.ar   87  PHE87      -0.0003
     40  CZ        -3.6200   75.4790  379.2770 C.ar   87  PHE87      -0.0000
     41  N         -5.2860   69.5900  378.1770 N.am   88  PRO88      -0.2729
     42  CA        -5.0610   69.2580  376.7590 C.3    88  PRO88       0.1401
     43  C         -6.3340   69.2560  375.9320 C.2    88  PRO88       0.2269
     44  O         -6.2850   69.5770  374.7380 O.2    88  PRO88      -0.2865
     45  CB        -4.4160   67.8640  376.8170 C.3    88  PRO88       0.0296
     46  CG        -4.7010   67.3510  378.1890 C.3    88  PRO88       0.0237
     47  CD        -4.7220   68.5570  379.0630 C.3    88  PRO88       0.0939
     48  N         -6.8350   72.9390  375.0700 N.3    91  VAL91      -0.1231
     49  CA        -5.8850   73.4800  374.1010 C.3    91  VAL91       0.1692
     50  C         -6.2840   73.1030  372.6810 C.2    91  VAL91       0.2591
     51  O         -6.2410   73.9380  371.7680 O.2    91  VAL91      -0.2718
     52  CB        -4.4590   73.0020  374.4290 C.3    91  VAL91       0.0266
     53  CG1       -3.4940   73.4390  373.3410 C.3    91  VAL91       0.0020
     54  CG2       -4.0250   73.5370  375.7760 C.3    91  VAL91       0.0020
     55  N         -6.6710   71.8440  372.4670 N.am   92  VAL92      -0.1980
     56  CA        -7.0740   71.4030  371.1340 C.3    92  VAL92       0.1595
     57  C         -8.2700   72.2080  370.6400 C.2    92  VAL92       0.2287
     58  O         -8.3210   72.6230  369.4760 O.2    92  VAL92      -0.2864
     59  CB        -7.3720   69.8920  371.1420 C.3    92  VAL92       0.0276
     60  CG1       -8.0120   69.4710  369.8350 C.3    92  VAL92       0.0022
     61  CG2       -6.0950   69.1030  371.3910 C.3    92  VAL92       0.0022
     62  N         -7.1350   75.9930  369.7770 N.3    95  VAL95      -0.1231
     63  CA        -6.2580   76.1380  368.6180 C.3    95  VAL95       0.1692
     64  C         -7.0250   75.8840  367.3240 C.2    95  VAL95       0.2592
     65  O         -6.8830   76.6290  366.3470 O.2    95  VAL95      -0.2718
     66  CB        -5.0360   75.2110  368.7460 C.3    95  VAL95       0.0266
     67  CG1       -4.1780   75.2920  367.4940 C.3    95  VAL95       0.0020
     68  CG2       -4.2190   75.5900  369.9710 C.3    95  VAL95       0.0020
     69  N         -7.8420   74.8240  367.2910 N.am   96  HIS96      -0.1976
     70  CA        -8.7020   74.6030  366.1310 C.3    96  HIS96       0.1656
     71  C         -9.6450   75.7860  365.9180 C.2    96  HIS96       0.2291
     72  O         -9.8470   76.2330  364.7830 O.2    96  HIS96      -0.2864
     73  CB        -9.5010   73.3010  366.2900 C.3    96  HIS96       0.0771
     74  CG        -8.8270   72.0820  365.7230 C.ar   96  HIS96       0.0820
     75  ND1       -7.9620   71.2980  366.4560 N.ar   96  HIS96      -0.2267
     76  CD2       -8.9180   71.4960  364.5020 C.ar   96  HIS96       0.1154
     77  CE1       -7.5380   70.2920  365.7090 C.ar   96  HIS96       0.1986
     78  NE2       -8.1020   70.3870  364.5180 N.ar   96  HIS96      -0.2212
     79  N         -7.7510   78.9330  364.6570 N.3    99  SER99      -0.1217
     80  CA        -7.2750   78.7210  363.2950 C.3    99  SER99       0.1889
     81  C         -8.3830   78.8660  362.2600 C.2    99  SER99       0.2288
     82  O         -8.0880   79.1280  361.0900 O.2    99  SER99      -0.2866
     83  CB        -6.6300   77.3410  363.1660 C.3    99  SER99       0.2089
     84  OG        -5.5050   77.2190  364.0170 O.3    99  SER99      -0.2183
     85  N         -8.5310   80.7630  358.2460 N.3   103  LEU103     -0.1245
     86  CA        -9.0940   80.1550  357.0440 C.3   103  LEU103      0.1561
     87  C        -10.3480   80.8910  356.5910 C.2   103  LEU103      0.2260
     88  O        -10.6040   81.0110  355.3870 O.2   103  LEU103     -0.2867
     89  CB        -9.3990   78.6790  357.2960 C.3   103  LEU103      0.0270
     90  CG        -8.2160   77.7810  357.6600 C.3   103  LEU103      0.0019
     91  CD1       -8.7070   76.3900  358.0180 C.3   103  LEU103      0.0001
     92  CD2       -7.2130   77.7190  356.5180 C.3   103  LEU103      0.0001
@<TRIPOS>BOND
     1    88    87    2
     2    92    90    1
     3    87    86    1
     4    86    89    1
     5    86    85    1
     6    89    90    1
     7    90    91    1
     8     7     5    1
     9     1     2    1
    10    82    81    2
    11     5     2    1
    12     5     6    1
    13     2     3    1
    14    81    80    1
    15     3     4    2
    16    83    80    1
    17    83    84    1
    18    80    79    1
    19    76    78   ar
    20    76    74   ar
    21    78    77   ar
    22    72    71    2
    23    77    75   ar
    24    74    73    1
    25    74    75   ar
    26    71    70    1
    27    70    73    1
    28    70    69    1
    29    65    64    2
    30    69    64   am
    31    64    63    1
    32    67    66    1
    33    63    66    1
    34    63    62    1
    35    66    68    1
    36    58    57    2
    37    60    59    1
    38    21    20   ar
    39    21    19   ar
    40    57    56    1
    41    20    18   ar
    42    56    59    1
    43    56    55    1
    44    59    61    1
    45    19    17   ar
    46    51    50    2
    47    18    15   ar
    48    55    50   am
    49    50    49    1
    50    17    15   ar
    51    17    16   ar
    52    15    13   ar
    53    53    52    1
    54    49    52    1
    55    49    48    1
    56    16    14   ar
    57    52    54    1
    58    13    14   ar
    59    13    12    1
    60    44    43    2
    61    12     9    1
    62     8     9    1
    63    43    42    1
    64     9    10    1
    65    42    45    1
    66    42    41    1
    67    45    46    1
    68    11    10    2
    69    33    32    2
    70    41    32   am
    71    41    47    1
    72    46    47    1
    73    32    31    1
    74    39    40   ar
    75    39    37   ar
    76    40    38   ar
    77    37    35   ar
    78    31    30    1
    79    31    34    1
    80    38    36   ar
    81    35    36   ar
    82    35    34    1
    83    25    24    2
    84    24    23    1
    85    29    27   ar
    86    27    26    1
    87    27    28   ar
    88    26    23    1
    89    23    22    1
