@<TRIPOS>MOLECULE
tmp/5tisA00.pdb
 80 79 0 0 0
SMALL
GASTEIGER

@<TRIPOS>ATOM
      1  N        -41.5480   58.9880  356.8710 N.3   190  LEU190     -0.1245
      2  CA       -41.2100   59.6080  355.5940 C.3   190  LEU190      0.1561
      3  C        -41.3000   58.6110  354.4480 C.2   190  LEU190      0.2260
      4  O        -41.5840   59.0000  353.3100 O.2   190  LEU190     -0.2867
      5  CB       -39.8090   60.2170  355.6530 C.3   190  LEU190      0.0270
      6  CG       -39.6520   61.5190  356.4370 C.3   190  LEU190      0.0019
      7  CD1      -38.1920   61.9360  356.4650 C.3   190  LEU190      0.0001
      8  CD2      -40.5130   62.6130  355.8270 C.3   190  LEU190      0.0001
      9  N        -45.0360   58.3960  353.6590 N.3   193  ALA193     -0.1231
     10  CA       -45.3960   59.5590  352.8540 C.3   193  ALA193      0.1694
     11  C        -44.8250   59.4600  351.4460 C.2   193  ALA193      0.2592
     12  O        -45.3720   60.0560  350.5100 O.2   193  ALA193     -0.2718
     13  CB       -44.9220   60.8460  353.5320 C.3   193  ALA193      0.0304
     14  N        -43.7290   58.7150  351.2810 N.am  194  GLY194     -0.1957
     15  CA       -43.1790   58.5000  349.9530 C.3   194  GLY194      0.1869
     16  C        -44.0120   57.5430  349.1200 C.2   194  GLY194      0.2309
     17  O        -44.2210   57.7690  347.9240 O.2   194  GLY194     -0.2863
     18  N        -40.4300   66.0470  336.9010 N.3   263  PHE263     -0.1227
     19  CA       -39.3360   65.9460  337.8620 C.3   263  PHE263      0.1736
     20  C        -39.8650   65.7560  339.2770 C.2   263  PHE263      0.2595
     21  O        -39.2930   64.9910  340.0640 O.2   263  PHE263     -0.2718
     22  CB       -38.4370   67.1800  337.7960 C.3   263  PHE263      0.0547
     23  CG       -37.5260   67.3180  338.9840 C.ar  263  PHE263     -0.0202
     24  CD1      -36.4240   66.4920  339.1280 C.ar  263  PHE263     -0.0042
     25  CD2      -37.7790   68.2630  339.9640 C.ar  263  PHE263     -0.0042
     26  CE1      -35.5910   66.6080  340.2240 C.ar  263  PHE263     -0.0003
     27  CE2      -36.9480   68.3850  341.0620 C.ar  263  PHE263     -0.0003
     28  CZ       -35.8540   67.5560  341.1920 C.ar  263  PHE263     -0.0000
     29  N        -40.9540   66.4500  339.6190 N.am  264  PHE264     -0.1976
     30  CA       -41.5730   66.2700  340.9280 C.3   264  PHE264      0.1639
     31  C        -42.0670   64.8410  341.1090 C.2   264  PHE264      0.2290
     32  O        -41.9040   64.2510  342.1840 O.2   264  PHE264     -0.2864
     33  CB       -42.7200   67.2670  341.1000 C.3   264  PHE264      0.0560
     34  CG       -43.4250   67.1700  342.4250 C.ar  264  PHE264     -0.0200
     35  CD1      -42.8900   67.7660  343.5550 C.ar  264  PHE264     -0.0042
     36  CD2      -44.6330   66.5010  342.5350 C.ar  264  PHE264     -0.0042
     37  CE1      -43.5420   67.6840  344.7750 C.ar  264  PHE264     -0.0003
     38  CE2      -45.2890   66.4160  343.7510 C.ar  264  PHE264     -0.0003
     39  CZ       -44.7430   67.0080  344.8720 C.ar  264  PHE264     -0.0000
     40  N        -38.9970   62.9180  342.0400 N.3   267  ALA267     -0.1231
     41  CA       -38.2900   63.2550  343.2720 C.3   267  ALA267      0.1694
     42  C        -39.0150   62.7280  344.5050 C.2   267  ALA267      0.2592
     43  O        -38.3820   62.1700  345.4100 O.2   267  ALA267     -0.2718
     44  CB       -38.0980   64.7670  343.3680 C.3   267  ALA267      0.0304
     45  N        -40.3420   62.8850  344.5590 N.am  268  TRP268     -0.1976
     46  CA       -41.0720   62.5900  345.7920 C.3   268  TRP268      0.1640
     47  C        -40.9410   61.1340  346.2300 C.2   268  TRP268      0.2290
     48  O        -40.4960   60.8880  347.3650 O.2   268  TRP268     -0.2864
     49  CB       -42.5360   63.0170  345.6420 C.3   268  TRP268      0.0576
     50  CG       -43.3330   62.7900  346.8840 C.ar  268  TRP268      0.0006
     51  CD1      -43.8480   61.6050  347.3270 C.ar  268  TRP268      0.0946
     52  CD2      -43.7040   63.7750  347.8530 C.ar  268  TRP268      0.0152
     53  NE1      -44.5140   61.7910  348.5120 N.ar  268  TRP268     -0.2442
     54  CE2      -44.4430   63.1160  348.8560 C.ar  268  TRP268      0.0810
     55  CE3      -43.4850   65.1510  347.9700 C.ar  268  TRP268      0.0012
     56  CZ2      -44.9640   63.7860  349.9600 C.ar  268  TRP268      0.0191
     57  CZ3      -44.0040   65.8130  349.0670 C.ar  268  TRP268      0.0001
     58  CH2      -44.7340   65.1300  350.0470 C.ar  268  TRP268      0.0015
     59  N        -37.0120   60.1180  346.9740 N.3   271  VAL271     -0.1231
     60  CA       -36.4420   60.6430  348.2120 C.3   271  VAL271      0.1692
     61  C        -37.0820   59.9730  349.4210 C.2   271  VAL271      0.2592
     62  O        -36.3970   59.6350  350.3960 O.2   271  VAL271     -0.2718
     63  CB       -36.5920   62.1750  348.2610 C.3   271  VAL271      0.0266
     64  CG1      -36.1700   62.7110  349.6210 C.3   271  VAL271      0.0020
     65  CG2      -35.7690   62.8220  347.1550 C.3   271  VAL271      0.0020
     66  N        -38.3990   59.7590  349.3750 N.am  272  GLY272     -0.1957
     67  CA       -39.0710   59.1000  350.4830 C.3   272  GLY272      0.1869
     68  C        -38.5750   57.6850  350.7130 C.2   272  GLY272      0.2309
     69  O        -38.4780   57.2300  351.8560 O.2   272  GLY272     -0.2863
     70  N        -35.1080   57.6660  352.4290 N.3   275  PHE275     -0.1241
     71  CA       -35.2100   57.8170  353.8770 C.3   275  PHE275      0.1605
     72  C        -35.5930   56.5070  354.5530 C.2   275  PHE275      0.2264
     73  O        -35.0090   56.1370  355.5790 O.2   275  PHE275     -0.2867
     74  CB       -36.2240   58.9050  354.2220 C.3   275  PHE275      0.0534
     75  CG       -35.6520   60.2880  354.2140 C.ar  275  PHE275     -0.0203
     76  CD1      -34.8460   60.7180  355.2540 C.ar  275  PHE275     -0.0042
     77  CD2      -35.9230   61.1600  353.1750 C.ar  275  PHE275     -0.0042
     78  CE1      -34.3170   61.9920  355.2550 C.ar  275  PHE275     -0.0003
     79  CE2      -35.3980   62.4340  353.1720 C.ar  275  PHE275     -0.0003
     80  CZ       -34.5960   62.8510  354.2140 C.ar  275  PHE275     -0.0000
@<TRIPOS>BOND
     1    18    19    1
     2    22    19    1
     3    22    23    1
     4    19    20    1
     5    23    24   ar
     6    23    25   ar
     7    24    26   ar
     8    20    29   am
     9    20    21    2
    10    29    30    1
    11    25    27   ar
    12    26    28   ar
    13    30    33    1
    14    30    31    1
    15    27    28   ar
    16    33    34    1
    17    31    32    2
    18    40    41    1
    19    34    36   ar
    20    34    35   ar
    21    36    38   ar
    22    41    44    1
    23    41    42    1
    24    35    37   ar
    25    38    39   ar
    26    42    45   am
    27    42    43    2
    28    45    46    1
    29    37    39   ar
    30    49    46    1
    31    49    50    1
    32    46    47    1
    33    47    48    2
    34    50    51   ar
    35    50    52   ar
    36    59    60    1
    37    65    63    1
    38    51    53   ar
    39    52    55   ar
    40    52    54   ar
    41    17    16    2
    42    55    57   ar
    43    60    63    1
    44    60    61    1
    45    63    64    1
    46    53    54   ar
    47    54    56   ar
    48    57    58   ar
    49    16    15    1
    50    66    61   am
    51    66    67    1
    52    61    62    2
    53    15    14    1
    54    56    58   ar
    55    67    68    1
    56    12    11    2
    57    68    69    2
    58    14    11   am
    59    11    10    1
    60    70    71    1
    61    10    13    1
    62    10     9    1
    63    79    77   ar
    64    79    80   ar
    65    77    75   ar
    66     4     3    2
    67    71    74    1
    68    71    72    1
    69    75    74    1
    70    75    76   ar
    71    80    78   ar
    72     3     2    1
    73    72    73    2
    74    76    78   ar
    75     2     5    1
    76     2     1    1
    77     5     6    1
    78     8     6    1
    79     6     7    1
