@<TRIPOS>MOLECULE
tmp/5tiuA00.pdb
 148 139 0 0 0
SMALL
GASTEIGER

@<TRIPOS>ATOM
      1  N          1.4210   -3.3370   -8.6060 N.3    15  LEU15      -0.1231
      2  CA         1.6900   -2.7360   -9.9120 C.3    15  LEU15       0.1693
      3  C          2.1630   -1.2880   -9.7270 C.2    15  LEU15       0.2592
      4  O          3.0780   -0.8430  -10.4230 O.2    15  LEU15      -0.2718
      5  CB         0.3980   -2.7590  -10.7510 C.3    15  LEU15       0.0284
      6  CG         0.1520   -3.9010  -11.7500 C.3    15  LEU15       0.0019
      7  CD1        0.5470   -5.2750  -11.2040 C.3    15  LEU15       0.0001
      8  CD2       -1.2860   -3.9180  -12.1550 C.3    15  LEU15       0.0001
      9  N          1.5230   -0.5800   -8.7950 N.am   16  GLY16      -0.1957
     10  CA         1.8190    0.8070   -8.4570 C.3    16  GLY16       0.1869
     11  C          1.3600    1.1750   -7.0600 C.2    16  GLY16       0.2309
     12  O          0.4230    0.5750   -6.5270 O.2    16  GLY16      -0.2863
     13  N         -2.4360   -0.1000   -6.7470 N.3    18  VAL18      -0.1245
     14  CA        -3.0220   -0.7490   -7.9420 C.3    18  VAL18       0.1561
     15  C         -2.5190   -2.1850   -7.9490 C.2    18  VAL18       0.2260
     16  O         -1.3110   -2.4120   -7.8830 O.2    18  VAL18      -0.2867
     17  CB        -2.6720   -0.0250   -9.2770 C.3    18  VAL18       0.0252
     18  CG1       -3.3360   -0.7170  -10.4730 C.3    18  VAL18       0.0019
     19  CG2       -3.0590    1.4400   -9.2250 C.3    18  VAL18       0.0019
     20  N         -7.1660   -4.7130  -13.4400 N.3    33  ALA33      -0.1245
     21  CA        -6.2840   -3.8930  -12.6300 C.3    33  ALA33       0.1562
     22  C         -7.2220   -3.2640  -11.6260 C.2    33  ALA33       0.2260
     23  O         -8.3120   -2.7950  -11.9870 O.2    33  ALA33      -0.2867
     24  CB        -5.5880   -2.8300  -13.4670 C.3    33  ALA33       0.0290
     25  N         -7.7800   -0.6700   -8.3510 N.3    35  LYS35      -0.1245
     26  CA        -7.3510    0.4370   -7.5020 C.3    35  LYS35       0.1561
     27  C         -7.9400    0.1620   -6.1230 C.2    35  LYS35       0.2260
     28  O         -9.1610    0.0260   -5.9820 O.2    35  LYS35      -0.2867
     29  CB        -7.8320    1.7870   -8.0440 C.3    35  LYS35       0.0271
     30  CG        -6.8220    2.4170   -8.9630 C.3    35  LYS35       0.0035
     31  CD        -7.0250    3.9330   -9.0750 C.3    35  LYS35       0.0206
     32  CE        -6.2950    4.4570  -10.2870 C.3    35  LYS35       0.1093
     33  NZ        -6.4730    5.9290  -10.4410 N.3    35  LYS35      -0.1314
     34  N         -9.4800    3.6430  -20.6900 N.3    60  VAL60      -0.1245
     35  CA        -9.5710    2.4570  -19.8250 C.3    60  VAL60       0.1561
     36  C        -11.0120    2.3000  -19.3340 C.2    60  VAL60       0.2260
     37  O        -11.6010    3.2450  -18.7920 O.2    60  VAL60      -0.2867
     38  CB        -8.5920    2.5730  -18.6370 C.3    60  VAL60       0.0252
     39  CG1       -8.8620    1.4860  -17.5760 C.3    60  VAL60       0.0019
     40  CG2       -7.1360    2.4980  -19.1340 C.3    60  VAL60       0.0019
     41  N        -10.8590   -2.2800  -13.0550 N.3    75  MET75      -0.1230
     42  CA       -10.6940   -1.7950  -14.4320 C.3    75  MET75       0.1702
     43  C        -10.1900   -2.8870  -15.3310 C.2    75  MET75       0.2592
     44  O         -9.5540   -3.8180  -14.8390 O.2    75  MET75      -0.2718
     45  CB        -9.6150   -0.7070  -14.4490 C.3    75  MET75       0.0401
     46  CG       -10.0440    0.5120  -13.6860 C.3    75  MET75       0.0596
     47  SD        -8.6620    1.6360  -13.4820 S.3    75  MET75      -0.1393
     48  CE        -7.7390    0.8440  -12.2470 C.3    75  MET75       0.0692
     49  N        -10.3510   -2.7170  -16.6490 N.am   76  GLU76      -0.1966
     50  CA        -9.6850   -3.6280  -17.5780 C.3    76  GLU76       0.1733
     51  C         -8.1520   -3.4460  -17.3630 C.2    76  GLU76       0.2616
     52  O         -7.7090   -2.3730  -16.9080 O.2    76  GLU76      -0.2715
     53  CB       -10.0840   -3.3330  -19.0230 C.3    76  GLU76       0.0429
     54  CG        -9.5850   -1.9890  -19.4940 C.3    76  GLU76       0.1163
     55  CD        -9.7690   -1.7560  -20.9730 C.2    76  GLU76       0.3649
     56  OE1       -9.3010   -2.5790  -21.7940 O.co2  76  GLU76      -0.2457
     57  OE2      -10.3310   -0.6970  -21.3080 O.co2  76  GLU76      -0.2457
     58  N         -7.3660   -4.5150  -17.5890 N.am   77  MET77      -0.1963
     59  CA        -5.9290   -4.4570  -17.3750 C.3    77  MET77       0.1736
     60  C         -5.2330   -4.0020  -18.6590 C.2    77  MET77       0.2616
     61  O         -5.5420   -4.5270  -19.7270 O.2    77  MET77      -0.2715
     62  CB        -5.4400   -5.8670  -16.9600 C.3    77  MET77       0.0427
     63  CG        -3.9330   -6.0380  -17.0620 C.3    77  MET77       0.0599
     64  SD        -3.0670   -4.9480  -15.9070 S.3    77  MET77      -0.1393
     65  CE        -3.2790   -5.8380  -14.4660 C.3    77  MET77       0.0692
     66  N         -4.3250   -3.0510  -18.5510 N.am   78  ALA78      -0.1963
     67  CA        -3.4880   -2.6220  -19.6920 C.3    78  ALA78       0.1728
     68  C         -2.1530   -3.2360  -19.3270 C.2    78  ALA78       0.2616
     69  O         -1.4030   -2.7130  -18.5140 O.2    78  ALA78      -0.2715
     70  CB        -3.4130   -1.0920  -19.7500 C.3    78  ALA78       0.0334
     71  N         -1.9250   -4.4700  -19.8390 N.am   79  GLU79      -0.1963
     72  CA        -0.8070   -5.3260  -19.4510 C.3    79  GLU79       0.1733
     73  C          0.5830   -4.7380  -19.4440 C.2    79  GLU79       0.2616
     74  O          1.4040   -5.1330  -18.6010 O.2    79  GLU79      -0.2715
     75  CB        -0.7940   -6.6360  -20.2680 C.3    79  GLU79       0.0429
     76  CG        -1.9990   -7.5120  -20.0120 C.3    79  GLU79       0.1163
     77  CD        -2.0050   -8.4010  -18.7780 C.2    79  GLU79       0.3649
     78  OE1       -2.9700   -9.1810  -18.6290 O.co2  79  GLU79      -0.2457
     79  OE2       -1.0940   -8.2850  -17.9390 O.co2  79  GLU79      -0.2457
     80  N          0.8670   -3.8150  -20.3850 N.am   80  LEU80      -0.1963
     81  CA         2.2220   -3.2610  -20.4920 C.3    80  LEU80       0.1728
     82  C          2.4890   -2.0620  -19.5660 C.2    80  LEU80       0.2617
     83  O          3.6370   -1.6280  -19.4280 O.2    80  LEU80      -0.2715
     84  CB         2.5700   -2.9390  -21.9570 C.3    80  LEU80       0.0311
     85  CG         2.9690   -4.1250  -22.8750 C.3    80  LEU80       0.0022
     86  CD1        1.9110   -5.1780  -22.9510 C.3    80  LEU80       0.0001
     87  CD2        3.2020   -3.6500  -24.2750 C.3    80  LEU80       0.0001
     88  N          1.4270   -1.5670  -18.9080 N.am   81  GLY81      -0.1941
     89  CA         1.5820   -0.5130  -17.9290 C.3    81  GLY81       0.1998
     90  C          1.7690    0.8830  -18.4770 C.2    81  GLY81       0.2480
     91  O          1.5400    1.1380  -19.6530 O.2    81  GLY81      -0.2729
     92  N          2.2150    1.7940  -17.6050 N.am   82  PRO82      -0.2726
     93  CA         2.3450    3.2060  -18.0190 C.3    82  PRO82       0.1402
     94  C          3.3540    3.4690  -19.1270 C.2    82  PRO82       0.2269
     95  O          4.4580    2.8800  -19.1960 O.2    82  PRO82      -0.2865
     96  CB         2.6960    3.9480  -16.7290 C.3    82  PRO82       0.0296
     97  CG         2.3700    2.9820  -15.6200 C.3    82  PRO82       0.0237
     98  CD         2.4990    1.6130  -16.1710 C.3    82  PRO82       0.0939
     99  N          7.0720    4.6930  -18.2410 N.3    85  LYS85      -0.1245
    100  CA         7.9340    3.6030  -17.7580 C.3    85  LYS85       0.1561
    101  C          8.2530    2.6500  -18.8970 C.2    85  LYS85       0.2260
    102  O          9.4130    2.2030  -19.0270 O.2    85  LYS85      -0.2867
    103  CB         7.2670    2.8770  -16.5910 C.3    85  LYS85       0.0271
    104  CG         7.3260    3.6730  -15.2960 C.3    85  LYS85       0.0035
    105  CD         6.5270    3.0140  -14.1940 C.3    85  LYS85       0.0206
    106  CE         6.7200    3.6840  -12.8510 C.3    85  LYS85       0.1093
    107  NZ         5.4610    3.6820  -12.0510 N.3    85  LYS85      -0.1314
    108  N          2.3860    9.1890  -17.5290 N.3   125  ARG125     -0.1231
    109  CA         2.1920    8.1650  -16.4990 C.3   125  ARG125      0.1694
    110  C          0.7330    7.6680  -16.4850 C.2   125  ARG125      0.2592
    111  O          0.4490    6.6480  -15.8540 O.2   125  ARG125     -0.2718
    112  CB         2.5220    8.7250  -15.1060 C.3   125  ARG125      0.0321
    113  CG         1.7200    9.9810  -14.7300 C.3   125  ARG125      0.0489
    114  CD         2.0530   10.5140  -13.3230 C.3   125  ARG125      0.2205
    115  NE         1.3040   11.7470  -13.0550 N.pl3 125  ARG125     -0.0865
    116  CZ         1.6870   12.9550  -13.4700 C.cat 125  ARG125      0.5346
    117  NH1        2.8620   13.1190  -14.0760 N.pl3 125  ARG125      0.1354
    118  NH2        0.9100   14.0150  -13.2590 N.pl3 125  ARG125      0.1354
    119  N         -0.2040    8.4690  -17.0910 N.am  126  ASN126     -0.1974
    120  CA        -1.6240    8.1570  -17.1470 C.3   126  ASN126      0.1688
    121  C         -2.1050    7.7120  -18.5000 C.2   126  ASN126      0.2292
    122  O         -3.2980    7.7750  -18.7920 O.2   126  ASN126     -0.2864
    123  CB        -2.4270    9.3050  -16.5700 C.3   126  ASN126      0.1181
    124  CG        -2.0870    9.5410  -15.1190 C.2   126  ASN126      0.2629
    125  OD1       -1.7200    8.6150  -14.3710 O.2   126  ASN126     -0.2716
    126  ND2       -2.2890   10.7500  -14.6330 N.am  126  ASN126     -0.0877
    127  N         -1.7660    4.1720  -20.6030 N.3   128  LEU128     -0.1245
    128  CA        -1.3990    2.7890  -20.3300 C.3   128  LEU128      0.1561
    129  C         -1.3820    2.0300  -21.6300 C.2   128  LEU128      0.2260
    130  O         -2.1710    2.2950  -22.5310 O.2   128  LEU128     -0.2867
    131  CB        -2.4200    2.1680  -19.3790 C.3   128  LEU128      0.0270
    132  CG        -2.6740    2.9200  -18.0940 C.3   128  LEU128      0.0019
    133  CD1       -3.6220    2.2010  -17.2870 C.3   128  LEU128      0.0001
    134  CD2       -1.4000    3.2750  -17.3170 C.3   128  LEU128      0.0001
    135  N         -5.9760    6.6410  -18.7190 N.3   138  SER138     -0.1202
    136  CA        -6.4590    6.1510  -17.4390 C.3   138  SER138      0.2020
    137  C         -6.4610    7.3080  -16.4320 C.2   138  SER138      0.2618
    138  O         -6.1170    8.4430  -16.7670 O.2   138  SER138     -0.2717
    139  CB        -5.4980    5.0680  -16.9390 C.3   138  SER138      0.2103
    140  OG        -4.1780    5.5700  -16.7750 O.3   138  SER138     -0.2182
    141  N         -6.7540    6.9680  -15.1570 N.am  139  ASP139     -0.1973
    142  CA        -6.5650    7.8320  -14.0010 C.3   139  ASP139      0.1709
    143  C         -7.3890    9.0930  -14.0630 C.2   139  ASP139      0.2293
    144  O         -6.8750   10.2140  -14.2580 O.2   139  ASP139     -0.2864
    145  CB        -5.0680    8.0810  -13.7540 C.3   139  ASP139      0.1436
    146  CG        -4.3400    6.7790  -13.4530 C.2   139  ASP139      0.3671
    147  OD1       -4.5150    6.2490  -12.3390 O.co2 139  ASP139     -0.2456
    148  OD2       -3.7250    6.2200  -14.3770 O.co2 139  ASP139     -0.2456
@<TRIPOS>BOND
     1    87    85    1
     2    86    85    1
     3    85    84    1
     4   130   129    2
     5    84    81    1
     6    56    55   ar
     7   129   128    1
     8    57    55   ar
     9    55    54    1
    10    34    35    1
    11   127   128    1
    12    81    80    1
    13    81    82    1
    14    80    73   am
    15   128   131    1
    16    75    76    1
    17    75    72    1
    18    76    77    1
    19    71    72    1
    20    71    68   am
    21    35    36    1
    22    35    38    1
    23    70    67    1
    24    61    60    2
    25    67    68    1
    26    67    66    1
    27    91    90    2
    28    82    83    2
    29    82    88   am
    30    54    53    1
    31    72    73    1
    32    73    74    2
    33   131   132    1
    34    36    37    2
    35    68    69    2
    36    95    94    2
    37    40    38    1
    38    94    93    1
    39   102   101    2
    40    53    50    1
    41    88    89    1
    42   101   100    1
    43   122   121    2
    44    77    78   ar
    45    77    79   ar
    46   135   136    1
    47    60    66   am
    48    60    59    1
    49    38    39    1
    50   121   120    1
    51    90    89    1
    52    90    92   am
    53    99   100    1
    54   132   134    1
    55   132   133    1
    56    93    92    1
    57    93    96    1
    58   100   103    1
    59    92    98    1
    60    58    59    1
    61    58    51   am
    62    50    51    1
    63    50    49    1
    64   108   109    1
    65   136   139    1
    66   136   137    1
    67    59    62    1
    68    51    52    2
    69   120   119    1
    70   120   123    1
    71   119   110   am
    72    63    62    1
    73    63    64    1
    74   139   140    1
    75   138   137    2
    76    96    97    1
    77    49    43   am
    78   103   104    1
    79   123   124    1
    80   109   110    1
    81   109   112    1
    82   110   111    2
    83   137   141   am
    84    98    97    1
    85    64    65    1
    86    43    44    2
    87    43    42    1
    88   104   105    1
    89   141   142    1
    90   124   126   am
    91   124   125    2
    92   112   113    1
    93   113   114    1
    94    45    42    1
    95    45    46    1
    96    42    41    1
    97   148   146   ar
    98   144   143    2
    99   105   106    1
   100   117   116    1
   101   143   142    1
   102   142   145    1
   103   145   146    1
   104    46    47    1
   105    47    48    1
   106   116   118    1
   107   116   115    2
   108    24    21    1
   109   146   147   ar
   110    20    21    1
   111   114   115    1
   112   106   107    1
   113    21    22    1
   114     8     6    1
   115    23    22    2
   116     6     7    1
   117     6     5    1
   118     5     2    1
   119    18    17    1
   120    33    32    1
   121     4     3    2
   122    32    31    1
   123     2     3    1
   124     2     1    1
   125     3     9   am
   126    17    19    1
   127    17    14    1
   128    31    30    1
   129    30    29    1
   130     9    10    1
   131    10    11    1
   132    25    26    1
   133    29    26    1
   134    15    14    1
   135    15    16    2
   136    14    13    1
   137    26    27    1
   138    11    12    2
   139    27    28    2
