@<TRIPOS>MOLECULE
tmp/5tixA01.pdb
 197 187 0 0 0
SMALL
GASTEIGER

@<TRIPOS>ATOM
      1  N         40.1090  -11.9460   12.4710 N.3    11  PRO11      -0.2116
      2  CA        41.2090  -11.6380   13.3890 C.3    11  PRO11       0.1372
      3  C         41.7150  -10.2190   13.1870 C.2    11  PRO11       0.2244
      4  O         41.6690   -9.6650   12.0850 O.2    11  PRO11      -0.2868
      5  CB        42.2840  -12.6790   13.0380 C.3    11  PRO11       0.0268
      6  CG        41.8710  -13.2760   11.7510 C.3    11  PRO11       0.0207
      7  CD        40.3780  -13.1680   11.6980 C.3    11  PRO11       0.0892
      8  N         40.8100  -17.7920   19.3530 N.3    33  MET33      -0.1230
      9  CA        41.9970  -18.5090   18.9000 C.3    33  MET33       0.1702
     10  C         42.9560  -18.7760   20.0530 C.2    33  MET33       0.2592
     11  O         43.6160  -19.8210   20.0860 O.2    33  MET33      -0.2718
     12  CB        42.7040  -17.7270   17.7880 C.3    33  MET33       0.0401
     13  CG        43.9090  -18.4560   17.1880 C.3    33  MET33       0.0596
     14  SD        43.4700  -19.9530   16.2640 S.3    33  MET33      -0.1393
     15  CE        43.2340  -19.2950   14.6180 C.3    33  MET33       0.0692
     16  N         43.0380  -17.8540   21.0170 N.am   34  TYR34      -0.1976
     17  CA        43.9550  -18.0120   22.1390 C.3    34  TYR34       0.1639
     18  C         43.5320  -19.1350   23.0750 C.2    34  TYR34       0.2290
     19  O         44.3750  -19.6700   23.8000 O.2    34  TYR34      -0.2864
     20  CB        44.1100  -16.6820   22.8910 C.3    34  TYR34       0.0560
     21  CG        44.8570  -15.6170   22.1030 C.ar   34  TYR34      -0.0198
     22  CD1       45.1250  -14.3710   22.6570 C.ar   34  TYR34      -0.0009
     23  CD2       45.2950  -15.8600   20.8050 C.ar   34  TYR34      -0.0009
     24  CE1       45.8140  -13.3970   21.9360 C.ar   34  TYR34       0.0417
     25  CE2       45.9750  -14.9010   20.0840 C.ar   34  TYR34       0.0417
     26  CZ        46.2330  -13.6740   20.6480 C.ar   34  TYR34       0.1957
     27  OH        46.9150  -12.7370   19.9010 O.3    34  TYR34      -0.2866
     28  N         45.4600  -21.8960   21.2370 N.3    37  ILE37      -0.1231
     29  CA        46.9150  -21.8140   21.3470 C.3    37  ILE37       0.1692
     30  C         47.3620  -22.0890   22.7750 C.2    37  ILE37       0.2592
     31  O         48.2840  -22.8780   23.0140 O.2    37  ILE37      -0.2718
     32  CB        47.4150  -20.4500   20.8370 C.3    37  ILE37       0.0266
     33  CG1       47.1970  -20.3530   19.3250 C.3    37  ILE37       0.0019
     34  CG2       48.8950  -20.2530   21.1680 C.3    37  ILE37       0.0020
     35  CD1       47.3930  -18.9630   18.7600 C.3    37  ILE37       0.0001
     36  N         46.7150  -21.4490   23.7430 N.am   38  PHE38      -0.1976
     37  CA        47.2160  -21.4490   25.1090 C.3    38  PHE38       0.1639
     38  C         46.5400  -22.4680   26.0200 C.2    38  PHE38       0.2290
     39  O         47.0520  -22.7200   27.1150 O.2    38  PHE38      -0.2864
     40  CB        47.1000  -20.0410   25.7090 C.3    38  PHE38       0.0560
     41  CG        47.9370  -19.0210   24.9990 C.ar   38  PHE38      -0.0200
     42  CD1       49.3010  -18.9370   25.2340 C.ar   38  PHE38      -0.0042
     43  CD2       47.3680  -18.1580   24.0830 C.ar   38  PHE38      -0.0042
     44  CE1       50.0740  -18.0050   24.5750 C.ar   38  PHE38      -0.0003
     45  CE2       48.1390  -17.2210   23.4210 C.ar   38  PHE38      -0.0003
     46  CZ        49.4950  -17.1450   23.6660 C.ar   38  PHE38      -0.0000
     47  N         36.7520  -14.6580   16.7700 N.3    80  ASP80      -0.1225
     48  CA        37.9920  -14.8750   16.0280 C.3    80  ASP80       0.1805
     49  C         37.9000  -16.0950   15.1180 C.2    80  ASP80       0.2597
     50  O         36.9030  -16.8280   15.1420 O.2    80  ASP80      -0.2718
     51  CB        39.1780  -15.0150   16.9900 C.3    80  ASP80       0.1424
     52  CG        40.5160  -14.6920   16.3360 C.2    80  ASP80       0.3668
     53  OD1       40.5550  -14.5140   15.1000 O.co2  80  ASP80      -0.2456
     54  OD2       41.5350  -14.6260   17.0590 O.co2  80  ASP80      -0.2456
     55  N         38.9240  -16.3010   14.2960 N.am   81  LEU81      -0.1979
     56  CA        39.0980  -17.5650   13.6000 C.3    81  LEU81       0.1596
     57  C         39.5120  -18.6030   14.6360 C.2    81  LEU81       0.2287
     58  O         40.0470  -18.2460   15.6880 O.2    81  LEU81      -0.2864
     59  CB        40.1810  -17.4560   12.5280 C.3    81  LEU81       0.0297
     60  CG        39.7800  -16.8280   11.1930 C.3    81  LEU81       0.0022
     61  CD1       41.0020  -16.6610   10.3090 C.3    81  LEU81       0.0001
     62  CD2       38.7350  -17.6610   10.4780 C.3    81  LEU81       0.0001
     63  N         51.0840   -9.7810   12.9920 N.3   116  VAL116     -0.1231
     64  CA        50.7810  -10.7720   14.0140 C.3   116  VAL116      0.1692
     65  C         50.3770  -12.1110   13.4150 C.2   116  VAL116      0.2592
     66  O         50.7840  -13.1670   13.9160 O.2   116  VAL116     -0.2718
     67  CB        49.6850  -10.2490   14.9690 C.3   116  VAL116      0.0266
     68  CG1       49.2350  -11.3370   15.9550 C.3   116  VAL116      0.0020
     69  CG2       50.1810   -9.0220   15.7130 C.3   116  VAL116      0.0020
     70  N         49.5780  -12.0980   12.3520 N.am  117  VAL117     -0.1966
     71  CA        48.8580  -13.2760   11.8980 C.3   117  VAL117      0.1727
     72  C         49.4030  -13.8160   10.5830 C.2   117  VAL117      0.2616
     73  O         49.5650  -15.0290   10.4310 O.2   117  VAL117     -0.2715
     74  CB        47.3460  -12.9760   11.7930 C.3   117  VAL117      0.0290
     75  CG1       46.6240  -14.0890   11.0580 C.3   117  VAL117      0.0023
     76  CG2       46.7390  -12.7940   13.1810 C.3   117  VAL117      0.0023
     77  N         49.6750  -12.9430    9.6110 N.am  118  LEU118     -0.1977
     78  CA        49.9010  -13.3720    8.2300 C.3   118  LEU118      0.1596
     79  C         50.9510  -12.4860    7.5740 C.2   118  LEU118      0.2287
     80  O         50.6670  -11.7600    6.6150 O.2   118  LEU118     -0.2864
     81  CB        48.5880  -13.3240    7.4480 C.3   118  LEU118      0.0297
     82  CG        48.5360  -14.0450    6.1000 C.3   118  LEU118      0.0022
     83  CD1       48.5670  -15.5500    6.3110 C.3   118  LEU118      0.0001
     84  CD2       47.2890  -13.6320    5.3340 C.3   118  LEU118      0.0001
     85  N         57.9900  -14.9520   14.2490 N.3   129  ILE129     -0.1245
     86  CA        56.7140  -15.4880   14.7250 C.3   129  ILE129      0.1561
     87  C         56.8110  -16.9990   14.8880 C.2   129  ILE129      0.2260
     88  O         56.4450  -17.5580   15.9280 O.2   129  ILE129     -0.2867
     89  CB        55.5680  -15.0800   13.7820 C.3   129  ILE129      0.0252
     90  CG1       55.4040  -13.5560   13.7940 C.3   129  ILE129      0.0019
     91  CG2       54.2620  -15.7810   14.1810 C.3   129  ILE129      0.0019
     92  CD1       54.3290  -13.0220   12.8590 C.3   129  ILE129      0.0001
     93  N         58.8940  -18.1030   17.8530 N.3   132  GLY132     -0.1210
     94  CA        58.1780  -17.8800   19.0960 C.3   132  GLY132      0.1956
     95  C         57.0500  -18.8730   19.2930 C.2   132  GLY132      0.2611
     96  O         56.8580  -19.3960   20.3940 O.2   132  GLY132     -0.2717
     97  N         56.2870  -19.1460   18.2280 N.am  133  ASP133     -0.1973
     98  CA        55.2220  -20.1390   18.3060 C.3   133  ASP133      0.1709
     99  C         55.7630  -21.5140   18.6750 C.2   133  ASP133      0.2293
    100  O         55.0880  -22.2820   19.3680 O.2   133  ASP133     -0.2864
    101  CB        54.4890  -20.2310   16.9660 C.3   133  ASP133      0.1436
    102  CG        53.6520  -19.0030   16.6620 C.2   133  ASP133      0.3671
    103  OD1       53.3680  -18.2140   17.5860 O.co2 133  ASP133     -0.2456
    104  OD2       53.2690  -18.8380   15.4840 O.co2 133  ASP133     -0.2456
    105  N         55.7050  -22.2540   22.1970 N.3   136  LEU136     -0.1245
    106  CA        54.3640  -22.5600   22.6720 C.3   136  LEU136      0.1561
    107  C         53.8770  -23.9360   22.2400 C.2   136  LEU136      0.2260
    108  O         52.7700  -24.3290   22.6240 O.2   136  LEU136     -0.2867
    109  CB        53.3830  -21.4970   22.1660 C.3   136  LEU136      0.0270
    110  CG        53.6410  -20.0640   22.6330 C.3   136  LEU136      0.0019
    111  CD1       52.6690  -19.0960   21.9840 C.3   136  LEU136      0.0001
    112  CD2       53.5560  -19.9620   24.1470 C.3   136  LEU136      0.0001
    113  N         53.3530  -24.7270   19.0370 N.3   138  ILE138     -0.1245
    114  CA        52.6050  -24.5670   17.7970 C.3   138  ILE138      0.1561
    115  C         53.4930  -24.9840   16.6300 C.2   138  ILE138      0.2260
    116  O         54.6560  -24.5690   16.5440 O.2   138  ILE138     -0.2867
    117  CB        52.1360  -23.1100   17.6540 C.3   138  ILE138      0.0252
    118  CG1       50.9880  -22.8130   18.6270 C.3   138  ILE138      0.0019
    119  CG2       51.7470  -22.7840   16.2160 C.3   138  ILE138      0.0019
    120  CD1       49.6970  -23.5680   18.3470 C.3   138  ILE138      0.0001
    121  N         48.9930  -26.3120   13.1060 N.3   142  PHE142     -0.1227
    122  CA        48.2370  -25.1130   13.4440 C.3   142  PHE142      0.1736
    123  C         48.1720  -24.1540   12.2640 C.2   142  PHE142      0.2595
    124  O         47.1110  -23.5980   11.9590 O.2   142  PHE142     -0.2718
    125  CB        48.8830  -24.4130   14.6330 C.3   142  PHE142      0.0547
    126  CG        48.2620  -23.0870   14.9520 C.ar  142  PHE142     -0.0202
    127  CD1       47.1640  -23.0060   15.7910 C.ar  142  PHE142     -0.0042
    128  CD2       48.7620  -21.9240   14.3980 C.ar  142  PHE142     -0.0042
    129  CE1       46.5870  -21.7900   16.0770 C.ar  142  PHE142     -0.0003
    130  CE2       48.1850  -20.7030   14.6810 C.ar  142  PHE142     -0.0003
    131  CZ        47.1000  -20.6360   15.5200 C.ar  142  PHE142     -0.0000
    132  N         49.3120  -23.9190   11.6090 N.am  143  TYR143     -0.1976
    133  CA        49.3440  -22.9620   10.5080 C.3   143  TYR143      0.1639
    134  C         48.4380  -23.4030    9.3680 C.2   143  TYR143      0.2290
    135  O         47.7800  -22.5710    8.7310 O.2   143  TYR143     -0.2864
    136  CB        50.7760  -22.7790   10.0110 C.3   143  TYR143      0.0560
    137  CG        51.7060  -22.1900   11.0440 C.ar  143  TYR143     -0.0198
    138  CD1       51.4570  -20.9440   11.5990 C.ar  143  TYR143     -0.0009
    139  CD2       52.8420  -22.8750   11.4550 C.ar  143  TYR143     -0.0009
    140  CE1       52.3100  -20.3990   12.5440 C.ar  143  TYR143      0.0417
    141  CE2       53.6990  -22.3380   12.3980 C.ar  143  TYR143      0.0417
    142  CZ        53.4270  -21.1000   12.9390 C.ar  143  TYR143      0.1957
    143  OH        54.2750  -20.5590   13.8770 O.3   143  TYR143     -0.2866
    144  N         44.7310  -22.8380   10.6300 N.3   146  SER146     -0.1202
    145  CA        44.4150  -21.4170   10.6740 C.3   146  SER146      0.2020
    146  C         44.3100  -20.8370    9.2670 C.2   146  SER146      0.2618
    147  O         43.3530  -20.1210    8.9470 O.2   146  SER146     -0.2717
    148  CB        45.4690  -20.6900   11.5110 C.3   146  SER146      0.2103
    149  OG        46.7750  -20.9670   11.0470 O.3   146  SER146     -0.2182
    150  N         45.2790  -21.1480    8.4030 N.am  147  GLU147     -0.1979
    151  CA        45.2290  -20.6530    7.0310 C.3   147  GLU147      0.1602
    152  C         43.9840  -21.1620    6.3120 C.2   147  GLU147      0.2287
    153  O         43.2800  -20.3950    5.6480 O.2   147  GLU147     -0.2864
    154  CB        46.4980  -21.0580    6.2790 C.3   147  GLU147      0.0415
    155  CG        46.5250  -20.6120    4.8280 C.3   147  GLU147      0.1163
    156  CD        47.8390  -20.9360    4.1450 C.2   147  GLU147      0.3649
    157  OE1       48.9030  -20.5780    4.6940 O.co2 147  GLU147     -0.2457
    158  OE2       47.8050  -21.5530    3.0590 O.co2 147  GLU147     -0.2457
    159  N         40.9600  -19.1880    7.3530 N.3   150  LEU150     -0.1245
    160  CA        40.8890  -17.8790    6.7140 C.3   150  LEU150      0.1561
    161  C         40.4010  -18.0020    5.2750 C.2   150  LEU150      0.2260
    162  O         39.5320  -17.2390    4.8340 O.2   150  LEU150     -0.2867
    163  CB        42.2660  -17.2190    6.7630 C.3   150  LEU150      0.0270
    164  CG        42.4000  -15.8140    6.1720 C.3   150  LEU150      0.0019
    165  CD1       41.5800  -14.8050    6.9450 C.3   150  LEU150      0.0001
    166  CD2       43.8710  -15.4080    6.1590 C.3   150  LEU150      0.0001
    167  N         51.9830   -8.0960   20.9810 N.3   222  MET222     -0.1245
    168  CA        52.2570   -9.3970   20.3800 C.3   222  MET222      0.1570
    169  C         53.6930   -9.4690   19.8830 C.2   222  MET222      0.2261
    170  O         54.3490  -10.5090   20.0050 O.2   222  MET222     -0.2867
    171  CB        51.2850   -9.6780   19.2310 C.3   222  MET222      0.0387
    172  CG        49.8640  -10.0850   19.6450 C.3   222  MET222      0.0595
    173  SD        49.7720  -11.2370   21.0350 S.3   222  MET222     -0.1393
    174  CE        49.5500  -10.0500   22.3430 C.3   222  MET222      0.0692
    175  N         55.6950  -10.1780   22.8800 N.3   225  LEU225     -0.1231
    176  CA        55.5180  -11.5610   23.3120 C.3   225  LEU225      0.1693
    177  C         56.3980  -12.5020   22.5020 C.2   225  LEU225      0.2592
    178  O         57.1250  -13.3320   23.0640 O.2   225  LEU225     -0.2718
    179  CB        54.0450  -11.9610   23.1930 C.3   225  LEU225      0.0284
    180  CG        53.7090  -13.3930   23.6120 C.3   225  LEU225      0.0019
    181  CD1       54.0070  -13.6090   25.0880 C.3   225  LEU225      0.0001
    182  CD2       52.2470  -13.7050   23.3120 C.3   225  LEU225      0.0001
    183  N         56.3450  -12.3870   21.1770 N.am  226  THR226     -0.1953
    184  CA        57.1900  -13.2090   20.3190 C.3   226  THR226      0.1897
    185  C         58.6550  -13.0780   20.7180 C.2   226  THR226      0.2313
    186  O         59.3670  -14.0790   20.8520 O.2   226  THR226     -0.2863
    187  CB        56.9830  -12.7930   18.8610 C.3   226  THR226      0.1794
    188  OG1       55.6500  -13.1260   18.4550 O.3   226  THR226     -0.2208
    189  CG2       57.9700  -13.4870   17.9360 C.3   226  THR226      0.0378
    190  N         59.3840  -14.7920   24.0500 N.3   229  LEU229     -0.1245
    191  CA        59.3640  -16.2440   23.9040 C.3   229  LEU229      0.1561
    192  C         60.6650  -16.7500   23.2930 C.2   229  LEU229      0.2260
    193  O         61.2220  -17.7560   23.7480 O.2   229  LEU229     -0.2867
    194  CB        58.1830  -16.6680   23.0340 C.3   229  LEU229      0.0270
    195  CG        56.7860  -16.5640   23.6560 C.3   229  LEU229      0.0019
    196  CD1       55.7170  -16.7340   22.5870 C.3   229  LEU229      0.0001
    197  CD2       56.6050  -17.6000   24.7390 C.3   229  LEU229      0.0001
@<TRIPOS>BOND
     1   158   156   ar
     2   156   157   ar
     3   156   155    1
     4   155   154    1
     5   162   161    2
     6   161   160    1
     7    84    82    1
     8   153   152    2
     9    82    83    1
    10    82    81    1
    11   166   164    1
    12   164   163    1
    13   164   165    1
    14   154   151    1
    15   152   151    1
    16    80    79    2
    17   160   163    1
    18   160   159    1
    19   151   150    1
    20    81    78    1
    21    79    78    1
    22    78    77    1
    23   150   146   am
    24   135   134    2
    25   147   146    2
    26   146   145    1
    27   134   133    1
    28    77    72   am
    29   136   133    1
    30   136   137    1
    31    61    60    1
    32    73    72    2
    33    62    60    1
    34   133   132    1
    35    72    71    1
    36   144   145    1
    37   145   148    1
    38   137   139   ar
    39   137   138   ar
    40   149   148    1
    41    75    74    1
    42    60    59    1
    43   139   141   ar
    44   138   140   ar
    45   132   123   am
    46     7     6    1
    47     7     1    1
    48     6     5    1
    49    74    71    1
    50    74    76    1
    51    71    70    1
    52   124   123    2
    53     4     3    2
    54   123   122    1
    55    70    65   am
    56   141   142   ar
    57     1     2    1
    58    59    56    1
    59   140   142   ar
    60    92    90    1
    61   142   143    1
    62    63    64    1
    63     5     2    1
    64   121   122    1
    65     3     2    1
    66    65    66    2
    67    65    64    1
    68   122   125    1
    69    56    55    1
    70    56    57    1
    71    89    90    1
    72    89    91    1
    73    89    86    1
    74    64    67    1
    75    85    86    1
    76    55    49   am
    77   128   130   ar
    78   128   126   ar
    79    15    14    1
    80   125   126    1
    81    57    58    2
    82   130   131   ar
    83    86    87    1
    84    87    88    2
    85   126   127   ar
    86    67    69    1
    87    67    68    1
    88    53    52   ar
    89    49    50    2
    90    49    48    1
    91   104   102   ar
    92   131   129   ar
    93   127   129   ar
    94    48    47    1
    95    48    51    1
    96   119   117    1
    97    14    13    1
    98    52    51    1
    99    52    54   ar
   100   116   115    2
   101   115   114    1
   102   102   101    1
   103   102   103   ar
   104   101    98    1
   105    13    12    1
   106   117   114    1
   107   117   118    1
   108    12     9    1
   109   114   113    1
   110    93    94    1
   111   189   187    1
   112    97    98    1
   113    97    95   am
   114    98    99    1
   115   120   118    1
   116   188   187    1
   117    99   100    2
   118    35    33    1
   119   187   184    1
   120     9     8    1
   121     9    10    1
   122    94    95    1
   123   171   172    1
   124   171   168    1
   125    95    96    2
   126    33    32    1
   127   172   173    1
   128   169   170    2
   129   169   168    1
   130    27    26    1
   131    10    11    2
   132    10    16   am
   133    25    26   ar
   134    25    23   ar
   135   184   185    1
   136   184   183    1
   137   168   167    1
   138    26    24   ar
   139   185   186    2
   140    23    21   ar
   141    32    34    1
   142    32    29    1
   143    16    17    1
   144   173   174    1
   145   183   177   am
   146    28    29    1
   147    29    30    1
   148    24    22   ar
   149   111   110    1
   150    21    22   ar
   151    21    20    1
   152    17    20    1
   153    17    18    1
   154   109   110    1
   155   109   106    1
   156   105   106    1
   157   107   108    2
   158   107   106    1
   159   177   178    2
   160   177   176    1
   161   196   195    1
   162   110   112    1
   163    30    31    2
   164    30    36   am
   165   175   176    1
   166   194   195    1
   167   194   191    1
   168    18    19    2
   169   179   176    1
   170   179   180    1
   171   192   193    2
   172   192   191    1
   173   182   180    1
   174    45    46   ar
   175    45    43   ar
   176   180   181    1
   177   195   197    1
   178    46    44   ar
   179    36    37    1
   180   191   190    1
   181    43    41   ar
   182    44    42   ar
   183    41    42   ar
   184    41    40    1
   185    37    40    1
   186    37    38    1
   187    38    39    2
