@<TRIPOS>MOLECULE
tmp/5tixA00.pdb
 159 156 0 0 0
SMALL
GASTEIGER

@<TRIPOS>ATOM
      1  N         40.1090  -11.9460   12.4710 N.3    11  PRO11      -0.2102
      2  CA        41.2090  -11.6380   13.3890 C.3    11  PRO11       0.1504
      3  C         41.7150  -10.2190   13.1870 C.2    11  PRO11       0.2576
      4  O         41.6690   -9.6650   12.0850 O.2    11  PRO11      -0.2718
      5  CB        42.2840  -12.6790   13.0380 C.3    11  PRO11       0.0282
      6  CG        41.8710  -13.2760   11.7510 C.3    11  PRO11       0.0208
      7  CD        40.3780  -13.1680   11.6980 C.3    11  PRO11       0.0893
      8  N         42.1960   -9.6380   14.2820 N.am   12  ARG12      -0.1966
      9  CA        42.7480   -8.2880   14.3310 C.3    12  ARG12       0.1729
     10  C         41.6880   -7.1950   14.2020 C.2    12  ARG12       0.2617
     11  O         42.0090   -6.0720   13.8030 O.2    12  ARG12      -0.2715
     12  CB        43.8800   -8.0850   13.3140 C.3    12  ARG12       0.0348
     13  CG        44.9540   -9.1770   13.3370 C.3    12  ARG12       0.0492
     14  CD        45.4670   -9.4680   14.7430 C.3    12  ARG12       0.2205
     15  NE        46.1260   -8.3200   15.3620 N.pl3  12  ARG12      -0.0865
     16  CZ        46.5240   -8.2770   16.6330 C.cat  12  ARG12       0.5346
     17  NH1       46.3130   -9.3100   17.4340 N.pl3  12  ARG12       0.1354
     18  NH2       47.1260   -7.1950   17.1140 N.pl3  12  ARG12       0.1354
     19  N         40.4330   -7.4910   14.5560 N.am   13  THR13      -0.1937
     20  CA        39.3540   -6.5050   14.5690 C.3    13  THR13       0.2028
     21  C         38.8290   -6.2560   15.9780 C.2    13  THR13       0.2643
     22  O         37.7400   -5.6970   16.1440 O.2    13  THR13      -0.2714
     23  CB        38.1960   -6.9320   13.6620 C.3    13  THR13       0.1808
     24  OG1       37.6170   -8.1470   14.1540 O.3    13  THR13      -0.2208
     25  CG2       38.6570   -7.1240   12.2190 C.3    13  THR13       0.0379
     26  N         39.5730   -6.6770   16.9930 N.am   14  GLY14      -0.1939
     27  CA        39.1440   -6.5600   18.3670 C.3    14  GLY14       0.2014
     28  C         38.4780   -7.7870   18.9490 C.2    14  GLY14       0.2640
     29  O         37.7170   -7.6500   19.9120 O.2    14  GLY14      -0.2714
     30  N         38.7600   -8.9800   18.4210 N.am   15  THR15      -0.1936
     31  CA        38.0580  -10.1770   18.8740 C.3    15  THR15       0.2028
     32  C         38.4350  -10.5440   20.3050 C.2    15  THR15       0.2642
     33  O         37.5910  -11.0400   21.0620 O.2    15  THR15      -0.2714
     34  CB        38.3310  -11.3400   17.9160 C.3    15  THR15       0.1808
     35  OG1       39.7340  -11.6290   17.8890 O.3    15  THR15      -0.2208
     36  CG2       37.8510  -10.9970   16.5110 C.3    15  THR15       0.0379
     37  N         39.6930  -10.3170   20.6980 N.am   16  ASN16      -0.1957
     38  CA        40.1010  -10.6730   22.0550 C.3    16  ASN16       0.1819
     39  C         39.4420   -9.7630   23.0850 C.2    16  ASN16       0.2622
     40  O         39.0170  -10.2260   24.1480 O.2    16  ASN16      -0.2715
     41  CB        41.6230  -10.6360   22.1970 C.3    16  ASN16       0.1195
     42  CG        42.0960  -11.3190   23.4640 C.2    16  ASN16       0.2630
     43  OD1       42.4050  -10.6650   24.4610 O.2    16  ASN16      -0.2716
     44  ND2       42.1300  -12.6460   23.4390 N.am   16  ASN16      -0.0877
     45  N         39.3460   -8.4670   22.7870 N.am   17  SER17      -0.1950
     46  CA        38.6280   -7.5640   23.6750 C.3    17  SER17       0.1924
     47  C         37.1520   -7.9380   23.7480 C.2    17  SER17       0.2314
     48  O         36.5470   -7.9140   24.8270 O.2    17  SER17      -0.2863
     49  CB        38.8160   -6.1240   23.2030 C.3    17  SER17       0.2116
     50  OG        40.1640   -5.7160   23.3860 O.3    17  SER17      -0.2180
     51  N         37.9890  -18.3710   21.5290 N.3    32  HIS32      -0.1241
     52  CA        38.8820  -17.4820   20.7940 C.3    32  HIS32       0.1621
     53  C         40.0500  -18.3290   20.3110 C.2    32  HIS32       0.2264
     54  O         40.2540  -19.4500   20.7850 O.2    32  HIS32      -0.2867
     55  CB        39.3770  -16.3350   21.6910 C.3    32  HIS32       0.0745
     56  CG        40.1200  -15.2530   20.9640 C.ar   32  HIS32       0.0817
     57  ND1       41.4950  -15.2250   20.8640 N.ar   32  HIS32      -0.2268
     58  CD2       39.6780  -14.1410   20.3310 C.ar   32  HIS32       0.1154
     59  CE1       41.8660  -14.1550   20.1840 C.ar   32  HIS32       0.1986
     60  NE2       40.7820  -13.4800   19.8470 N.ar   32  HIS32      -0.2212
     61  N         36.7520  -14.6580   16.7700 N.3    80  ASP80      -0.1239
     62  CA        37.9920  -14.8750   16.0280 C.3    80  ASP80       0.1674
     63  C         37.9000  -16.0950   15.1180 C.2    80  ASP80       0.2266
     64  O         36.9030  -16.8280   15.1420 O.2    80  ASP80      -0.2867
     65  CB        39.1780  -15.0150   16.9900 C.3    80  ASP80       0.1410
     66  CG        40.5160  -14.6920   16.3360 C.2    80  ASP80       0.3668
     67  OD1       40.5550  -14.5140   15.1000 O.co2  80  ASP80      -0.2456
     68  OD2       41.5350  -14.6260   17.0590 O.co2  80  ASP80      -0.2456
     69  N         36.8360   -2.6180   11.6450 N.3   104  ARG104     -0.1245
     70  CA        37.7500   -1.4950   11.8050 C.3   104  ARG104      0.1563
     71  C         38.1910   -1.0330   10.4210 C.2   104  ARG104      0.2260
     72  O         37.8720   -1.6540    9.4040 O.2   104  ARG104     -0.2867
     73  CB        38.9670   -1.8880   12.6450 C.3   104  ARG104      0.0307
     74  CG        40.0030   -2.7000   11.8710 C.3   104  ARG104      0.0489
     75  CD        41.1000   -3.2340   12.7630 C.3   104  ARG104      0.2205
     76  NE        42.0120   -2.1890   13.2280 N.pl3 104  ARG104     -0.0865
     77  CZ        43.1220   -2.4230   13.9190 C.cat 104  ARG104      0.5346
     78  NH1       43.4720   -3.6660   14.2250 N.pl3 104  ARG104      0.1354
     79  NH2       43.8870   -1.4150   14.3080 N.pl3 104  ARG104      0.1354
     80  N         44.2820   -0.1940    8.6570 N.3   108  ASP108     -0.1239
     81  CA        44.7640   -0.5790    9.9780 C.3   108  ASP108      0.1674
     82  C         44.6780   -2.0880   10.1660 C.2   108  ASP108      0.2266
     83  O         45.5720   -2.7010   10.7580 O.2   108  ASP108     -0.2867
     84  CB        43.9520    0.1250   11.0650 C.3   108  ASP108      0.1410
     85  CG        44.1320    1.6270   11.0500 C.2   108  ASP108      0.3668
     86  OD1       45.1240    2.1050   10.4630 O.co2 108  ASP108     -0.2456
     87  OD2       43.2800    2.3270   11.6410 O.co2 108  ASP108     -0.2456
     88  N         47.8570   -4.6930   10.9220 N.3   112  SER112     -0.1217
     89  CA        47.8530   -5.5330   12.1140 C.3   112  SER112      0.1889
     90  C         47.9860   -7.0060   11.7460 C.2   112  SER112      0.2288
     91  O         48.6850   -7.7670   12.4240 O.2   112  SER112     -0.2866
     92  CB        46.5480   -5.2990   12.8770 C.3   112  SER112      0.2089
     93  OG        46.5480   -5.9550   14.1330 O.3   112  SER112     -0.2183
     94  N         35.7940   -0.5650   16.1660 N.3   192  LEU192     -0.1231
     95  CA        36.8480   -0.4730   17.1600 C.3   192  LEU192      0.1693
     96  C         36.7100    0.8300   17.9430 C.2   192  LEU192      0.2592
     97  O         36.5970    1.9120   17.3590 O.2   192  LEU192     -0.2718
     98  CB        38.2040   -0.5430   16.4550 C.3   192  LEU192      0.0284
     99  CG        39.3670   -1.2320   17.1630 C.3   192  LEU192      0.0019
    100  CD1       38.9810   -2.6020   17.7180 C.3   192  LEU192      0.0001
    101  CD2       40.5270   -1.3690   16.1840 C.3   192  LEU192      0.0001
    102  N         36.6980    0.7190   19.2700 N.am  193  GLY193     -0.1957
    103  CA        36.5070    1.8610   20.1420 C.3   193  GLY193      0.1869
    104  C         35.0720    2.1410   20.5440 C.2   193  GLY193      0.2309
    105  O         34.8350    3.0990   21.2910 O.2   193  GLY193     -0.2863
    106  N         35.8540   -1.0000   29.1720 N.3   213  TYR213     -0.1228
    107  CA        35.8150   -1.9470   28.0620 C.3   213  TYR213      0.1721
    108  C         37.2260   -2.4530   27.7730 C.2   213  TYR213      0.2437
    109  O         38.1630   -1.6500   27.7030 O.2   213  TYR213     -0.2733
    110  CB        35.2260   -1.3030   26.8080 C.3   213  TYR213      0.0547
    111  CG        35.0020   -2.3100   25.7040 C.ar  213  TYR213     -0.0200
    112  CD1       33.8120   -3.0190   25.6180 C.ar  213  TYR213     -0.0009
    113  CD2       35.9930   -2.5790   24.7700 C.ar  213  TYR213     -0.0009
    114  CE1       33.6060   -3.9550   24.6230 C.ar  213  TYR213      0.0417
    115  CE2       35.7980   -3.5130   23.7700 C.ar  213  TYR213      0.0417
    116  CZ        34.6040   -4.2010   23.7040 C.ar  213  TYR213      0.1957
    117  OH        34.4050   -5.1310   22.7120 O.3   213  TYR213     -0.2866
    118  N         37.4220   -3.7620   27.5970 N.am  214  PRO214     -0.2718
    119  CA        38.7840   -4.2870   27.4400 C.3   214  PRO214      0.1535
    120  C         39.5040   -3.7010   26.2330 C.2   214  PRO214      0.2599
    121  O         38.8960   -3.3560   25.2160 O.2   214  PRO214     -0.2715
    122  CB        38.5670   -5.7960   27.2780 C.3   214  PRO214      0.0310
    123  CG        37.2450   -6.0570   27.9180 C.3   214  PRO214      0.0237
    124  CD        36.4220   -4.8470   27.6320 C.3   214  PRO214      0.0939
    125  N         40.8420   -3.6120   26.3580 N.am  215  CYS215     -0.1954
    126  CA        41.7170   -3.0650   25.3180 C.3   215  CYS215      0.1843
    127  C         42.9390   -3.9850   25.2660 C.2   215  CYS215      0.2625
    128  O         44.0100   -3.6740   25.7910 O.2   215  CYS215     -0.2714
    129  CB        42.1000   -1.6170   25.6260 C.3   215  CYS215      0.0997
    130  SG        42.6670   -0.6810   24.1900 S.3   215  CYS215     -0.0797
    131  N         42.7730   -5.1420   24.6300 N.am  216  ALA216     -0.1963
    132  CA        43.7550   -6.2130   24.7010 C.3   216  ALA216      0.1728
    133  C         44.3120   -6.5470   23.3240 C.2   216  ALA216      0.2616
    134  O         43.6900   -6.2790   22.2930 O.2   216  ALA216     -0.2715
    135  CB        43.1250   -7.4780   25.3030 C.3   216  ALA216      0.0334
    136  N         45.5120   -7.1340   23.3290 N.am  217  ASN217     -0.1958
    137  CA        46.0370   -7.8390   22.1630 C.3   217  ASN217      0.1819
    138  C         46.5350   -6.9300   21.0410 C.2   217  ASN217      0.2622
    139  O         46.3220   -7.2330   19.8620 O.2   217  ASN217     -0.2715
    140  CB        44.9460   -8.7680   21.6270 C.3   217  ASN217      0.1195
    141  CG        45.5020   -9.9110   20.8020 C.2   217  ASN217      0.2630
    142  OD1       46.6660  -10.2930   20.9510 O.2   217  ASN217     -0.2716
    143  ND2       44.6730  -10.4680   19.9280 N.am  217  ASN217     -0.0877
    144  N         47.2200   -5.8410   21.3740 N.am  218  SER218     -0.1936
    145  CA        47.7710   -4.9650   20.3470 C.3   218  SER218      0.2055
    146  C         48.9720   -5.6210   19.6720 C.2   218  SER218      0.2643
    147  O         49.6500   -6.4750   20.2520 O.2   218  SER218     -0.2714
    148  CB        48.2140   -3.6410   20.9750 C.3   218  SER218      0.2130
    149  OG        49.3580   -3.8230   21.7940 O.3   218  SER218     -0.2179
    150  N         49.2440   -5.2120   18.4280 N.am  219  HIS219     -0.1973
    151  CA        50.3850   -5.7890   17.7250 C.3   219  HIS219      0.1656
    152  C         51.6930   -5.4360   18.4190 C.2   219  HIS219      0.2291
    153  O         52.6590   -6.2030   18.3500 O.2   219  HIS219     -0.2864
    154  CB        50.3940   -5.3710   16.2490 C.3   219  HIS219      0.0771
    155  CG        50.7820   -3.9430   16.0140 C.ar  219  HIS219      0.0820
    156  ND1       52.0830   -3.4990   16.1080 N.ar  219  HIS219     -0.2267
    157  CD2       50.0400   -2.8640   15.6680 C.ar  219  HIS219      0.1154
    158  CE1       52.1250   -2.2060   15.8430 C.ar  219  HIS219      0.1986
    159  NE2       50.8990   -1.7960   15.5720 N.ar  219  HIS219     -0.2212
@<TRIPOS>BOND
     1    80    81    1
     2    72    71    2
     3    81    82    1
     4    81    84    1
     5    82    83    2
     6    71    70    1
     7    86    85   ar
     8    88    89    1
     9    85    84    1
    10    85    87   ar
    11    69    70    1
    12     7     6    1
    13     7     1    1
    14    90    89    1
    15    90    91    2
    16     6     5    1
    17    70    73    1
    18    74    73    1
    19    74    75    1
    20     4     3    2
    21    89    92    1
    22    25    23    1
    23     1     2    1
    24    75    76    1
    25    92    93    1
    26     5     2    1
    27     3     2    1
    28     3     8   am
    29    76    77    2
    30    12    13    1
    31    12     9    1
    32    13    14    1
    33    23    24    1
    34    23    20    1
    35    11    10    2
    36    77    78    1
    37    77    79    1
    38    10     9    1
    39    10    19   am
    40     8     9    1
    41    19    20    1
    42    20    21    1
    43    14    15    1
    44    67    66   ar
    45    63    64    2
    46    63    62    1
    47    15    16    2
    48   159   157   ar
    49   159   158   ar
    50   157   155   ar
    51   158   156   ar
    52    21    22    2
    53    21    26   am
    54   155   156   ar
    55   155   154    1
    56    62    61    1
    57    62    65    1
    58    94    95    1
    59   101    99    1
    60   154   151    1
    61    66    65    1
    62    66    68   ar
    63    98    95    1
    64    98    99    1
    65    36    34    1
    66    16    18    1
    67    16    17    1
    68    26    27    1
    69    95    96    1
    70    99   100    1
    71    97    96    2
    72   151   152    1
    73   151   150    1
    74    35    34    1
    75    34    31    1
    76    96   102   am
    77   153   152    2
    78    27    28    1
    79    30    31    1
    80    30    28   am
    81   150   146   am
    82    31    32    1
    83    28    29    2
    84   102   103    1
    85   146   147    2
    86   146   145    1
    87    60    59   ar
    88    60    58   ar
    89   139   138    2
    90   143   141   am
    91   103   104    1
    92    59    57   ar
    93    32    37   am
    94    32    33    2
    95    53    54    2
    96    53    52    1
    97    58    56   ar
    98   145   148    1
    99   145   144    1
   100   104   105    2
   101    37    38    1
   102    52    51    1
   103    52    55    1
   104   141   142    2
   105   141   140    1
   106    57    56   ar
   107    56    55    1
   108   148   149    1
   109   138   144   am
   110   138   137    1
   111   140   137    1
   112    38    41    1
   113    38    39    1
   114   137   136    1
   115    41    42    1
   116   134   133    2
   117   117   116    1
   118    45    39   am
   119    45    46    1
   120    39    40    2
   121    49    50    1
   122    49    46    1
   123   133   136   am
   124   133   132    1
   125    44    42   am
   126    42    43    2
   127    46    47    1
   128   116   115   ar
   129   116   114   ar
   130    47    48    2
   131   115   113   ar
   132   130   129    1
   133   114   112   ar
   134   131   132    1
   135   131   127   am
   136   132   135    1
   137   113   111   ar
   138   121   120    2
   139   127   126    1
   140   127   128    2
   141   126   129    1
   142   126   125    1
   143   112   111   ar
   144   111   110    1
   145   120   125   am
   146   120   119    1
   147   110   107    1
   148   122   119    1
   149   122   123    1
   150   119   118    1
   151   118   124    1
   152   118   108   am
   153   124   123    1
   154   109   108    2
   155   108   107    1
   156   107   106    1
