@<TRIPOS>MOLECULE
tmp/5tizA00.pdb
 132 129 0 0 0
SMALL
GASTEIGER

@<TRIPOS>ATOM
      1  N         18.0880   14.3700   20.6040 N.3    12  ARG12      -0.1245
      2  CA        19.5190   14.1800   20.8250 C.3    12  ARG12       0.1563
      3  C         20.3010   14.0250   19.5250 C.2    12  ARG12       0.2260
      4  O         21.4340   13.5310   19.5390 O.2    12  ARG12      -0.2867
      5  CB        19.7900   12.9810   21.7410 C.3    12  ARG12       0.0307
      6  CG        19.0110   13.0040   23.0540 C.3    12  ARG12       0.0489
      7  CD        19.1720   14.3200   23.8090 C.3    12  ARG12       0.2205
      8  NE        20.5610   14.6060   24.1520 N.pl3  12  ARG12      -0.0865
      9  CZ        20.9710   15.7190   24.7530 C.cat  12  ARG12       0.5346
     10  NH1       20.1030   16.6680   25.0750 N.pl3  12  ARG12       0.1354
     11  NH2       22.2560   15.8900   25.0280 N.pl3  12  ARG12       0.1354
     12  N         20.7200   16.8900   17.7940 N.3    14  GLY14      -0.1210
     13  CA        21.0340   18.2910   17.5920 C.3    14  GLY14       0.1956
     14  C         19.8000   19.1190   17.2960 C.2    14  GLY14       0.2613
     15  O         19.8580   20.0790   16.5210 O.2    14  GLY14      -0.2717
     16  N         18.6780   18.7640   17.9270 N.am   15  THR15      -0.1938
     17  CA        17.4000   19.3830   17.5940 C.3    15  THR15       0.2028
     18  C         17.2470   20.7700   18.2060 C.2    15  THR15       0.2642
     19  O         16.5700   21.6230   17.6230 O.2    15  THR15      -0.2714
     20  CB        16.2420   18.4940   18.0540 C.3    15  THR15       0.1808
     21  OG1       16.1500   18.5270   19.4830 O.3    15  THR15      -0.2208
     22  CG2       16.4430   17.0530   17.5870 C.3    15  THR15       0.0379
     23  N         17.8460   21.0180   19.3730 N.am   16  LEU16      -0.1963
     24  CA        17.7740   22.3530   19.9550 C.3    16  LEU16       0.1728
     25  C         18.7240   23.3150   19.2500 C.2    16  LEU16       0.2616
     26  O         18.3740   24.4770   19.0200 O.2    16  LEU16      -0.2715
     27  CB        18.0850   22.3040   21.4520 C.3    16  LEU16       0.0311
     28  CG        17.8510   23.6270   22.1930 C.3    16  LEU16       0.0022
     29  CD1       16.3650   23.8680   22.3890 C.3    16  LEU16       0.0001
     30  CD2       18.5810   23.6640   23.5310 C.3    16  LEU16       0.0001
     31  N         19.9280   22.8530   18.9060 N.am   17  SER17      -0.1950
     32  CA        20.8480   23.6960   18.1480 C.3    17  SER17       0.1924
     33  C         20.2700   24.0440   16.7810 C.2    17  SER17       0.2314
     34  O         20.3990   25.1830   16.3170 O.2    17  SER17      -0.2863
     35  CB        22.2020   23.0010   18.0040 C.3    17  SER17       0.2116
     36  OG        22.9550   23.1080   19.2000 O.3    17  SER17      -0.2180
     37  N          9.4590   23.2600   19.5220 N.3    32  HIS32      -0.1241
     38  CA        10.3770   22.3140   20.1430 C.3    32  HIS32       0.1621
     39  C          9.6960   21.7480   21.3790 C.2    32  HIS32       0.2264
     40  O          8.7640   22.3490   21.9200 O.2    32  HIS32      -0.2867
     41  CB        11.7060   22.9880   20.5090 C.3    32  HIS32       0.0745
     42  CG        12.7970   22.0320   20.8840 C.ar   32  HIS32       0.0817
     43  ND1       13.0880   21.7080   22.1910 N.ar   32  HIS32      -0.2268
     44  CD2       13.6820   21.3460   20.1220 C.ar   32  HIS32       0.1154
     45  CE1       14.0970   20.8570   22.2190 C.ar   32  HIS32       0.1986
     46  NE2       14.4760   20.6200   20.9770 N.ar   32  HIS32      -0.2212
     47  N         23.3300   11.8280   13.6000 N.3   106  ARG106     -0.1245
     48  CA        24.6400   11.6760   14.2110 C.3   106  ARG106      0.1563
     49  C         24.9800   10.1930   14.2180 C.2   106  ARG106      0.2260
     50  O         24.1940    9.3550   13.7670 O.2   106  ARG106     -0.2867
     51  CB        24.6640   12.2610   15.6260 C.3   106  ARG106      0.0307
     52  CG        23.9610   11.3940   16.6560 C.3   106  ARG106      0.0489
     53  CD        23.7920   12.1210   17.9760 C.3   106  ARG106      0.2205
     54  NE        25.0520   12.2700   18.6960 N.pl3 106  ARG106     -0.0865
     55  CZ        25.1590   12.8380   19.8920 C.cat 106  ARG106      0.5346
     56  NH1       24.0820   13.3130   20.5010 N.pl3 106  ARG106      0.1354
     57  NH2       26.3410   12.9340   20.4840 N.pl3 106  ARG106      0.1354
     58  N         23.7370    8.9560   24.4910 N.3   114  SER114     -0.1217
     59  CA        23.1140   10.2380   24.8040 C.3   114  SER114      0.1889
     60  C         21.6130   10.0760   25.0140 C.2   114  SER114      0.2288
     61  O         21.0500   10.5770   25.9950 O.2   114  SER114     -0.2866
     62  CB        23.3910   11.2440   23.6860 C.3   114  SER114      0.2089
     63  OG        22.7240   12.4710   23.9300 O.3   114  SER114     -0.2183
     64  N         26.0060   16.2800   12.5740 N.3   194  LEU194     -0.1231
     65  CA        26.5580   17.0830   13.6590 C.3   194  LEU194      0.1693
     66  C         27.8640   17.7320   13.2310 C.2   194  LEU194      0.2592
     67  O         28.8200   17.0460   12.8580 O.2   194  LEU194     -0.2718
     68  CB        26.7850   16.2200   14.9040 C.3   194  LEU194      0.0284
     69  CG        25.6800   16.0590   15.9580 C.3   194  LEU194      0.0019
     70  CD1       26.3190   15.7470   17.3060 C.3   194  LEU194      0.0001
     71  CD2       24.7740   17.2770   16.0870 C.3   194  LEU194      0.0001
     72  N         27.8960   19.0620   13.2820 N.am  195  GLY195     -0.1957
     73  CA        29.0840   19.8240   12.9640 C.3   195  GLY195      0.1869
     74  C         29.1420   20.3710   11.5550 C.2   195  GLY195      0.2309
     75  O         30.1250   21.0390   11.2110 O.2   195  GLY195     -0.2863
     76  N         27.5360   28.8730   14.6920 N.3   215  TYR215     -0.1228
     77  CA        26.4940   27.8580   14.7030 C.3   215  TYR215      0.1721
     78  C         26.3250   27.3130   16.1240 C.2   215  TYR215      0.2437
     79  O         27.3270   27.0150   16.7860 O.2   215  TYR215     -0.2733
     80  CB        26.8290   26.7150   13.7430 C.3   215  TYR215      0.0547
     81  CG        25.6920   25.7310   13.5750 C.ar  215  TYR215     -0.0200
     82  CD1       24.7870   25.8590   12.5300 C.ar  215  TYR215     -0.0009
     83  CD2       25.5120   24.6850   14.4720 C.ar  215  TYR215     -0.0009
     84  CE1       23.7420   24.9700   12.3770 C.ar  215  TYR215      0.0417
     85  CE2       24.4700   23.7920   14.3280 C.ar  215  TYR215      0.0417
     86  CZ        23.5870   23.9380   13.2790 C.ar  215  TYR215      0.1957
     87  OH        22.5460   23.0490   13.1320 O.3   215  TYR215     -0.2866
     88  N         25.0930   27.1710   16.6190 N.am  216  PRO216     -0.2718
     89  CA        24.9170   26.7870   18.0260 C.3   216  PRO216      0.1535
     90  C         25.4900   25.4130   18.3380 C.2   216  PRO216      0.2599
     91  O         25.5500   24.5240   17.4850 O.2   216  PRO216     -0.2715
     92  CB        23.3940   26.7970   18.2100 C.3   216  PRO216      0.0310
     93  CG        22.8740   27.6340   17.1030 C.3   216  PRO216      0.0237
     94  CD        23.7990   27.4070   15.9570 C.3   216  PRO216      0.0939
     95  N         25.9110   25.2490   19.6030 N.am  217  HIS217     -0.1960
     96  CA        26.2290   23.9470   20.1850 C.3   217  HIS217      0.1787
     97  C         25.6150   23.9670   21.5860 C.2   217  HIS217      0.2620
     98  O         26.3020   24.1780   22.5890 O.2   217  HIS217     -0.2715
     99  CB        27.7320   23.6780   20.2160 C.3   217  HIS217      0.0785
    100  CG        28.0840   22.2710   20.5920 C.ar  217  HIS217      0.0821
    101  ND1       29.2920   21.6920   20.2660 N.ar  217  HIS217     -0.2267
    102  CD2       27.3830   21.3250   21.2630 C.ar  217  HIS217      0.1154
    103  CE1       29.3200   20.4520   20.7220 C.ar  217  HIS217      0.1986
    104  NE2       28.1740   20.2050   21.3290 N.ar  217  HIS217     -0.2212
    105  N         24.3010   23.7540   21.6460 N.am  218  VAL218     -0.1963
    106  CA        23.5400   23.8530   22.8820 C.3   218  VAL218      0.1727
    107  C         22.9590   22.4840   23.2190 C.2   218  VAL218      0.2616
    108  O         22.9400   21.5660   22.3980 O.2   218  VAL218     -0.2715
    109  CB        22.4230   24.9110   22.7960 C.3   218  VAL218      0.0290
    110  CG1       23.0170   26.3020   22.6540 C.3   218  VAL218      0.0023
    111  CG2       21.4850   24.6100   21.6340 C.3   218  VAL218      0.0023
    112  N         22.4790   22.3640   24.4570 N.am  219  ASN219     -0.1958
    113  CA        21.8350   21.1450   24.9410 C.3   219  ASN219      0.1819
    114  C         22.8270   19.9850   25.0250 C.2   219  ASN219      0.2621
    115  O         22.4770   18.8320   24.7700 O.2   219  ASN219     -0.2715
    116  CB        20.6420   20.7660   24.0610 C.3   219  ASN219      0.1195
    117  CG        19.4790   20.2300   24.8630 C.2   219  ASN219      0.2630
    118  OD1       19.2240   20.6780   25.9800 O.2   219  ASN219     -0.2716
    119  ND2       18.7680   19.2600   24.3000 N.am  219  ASN219     -0.0877
    120  N         24.0680   20.2890   25.3920 N.am  220  ALA220     -0.1963
    121  CA        25.0810   19.2570   25.5280 C.3   220  ALA220      0.1728
    122  C         24.8890   18.4830   26.8300 C.2   220  ALA220      0.2616
    123  O         24.2610   18.9570   27.7810 O.2   220  ALA220     -0.2715
    124  CB        26.4790   19.8700   25.4830 C.3   220  ALA220      0.0334
    125  N         25.4470   17.2700   26.8590 N.am  221  LEU221     -0.1977
    126  CA        25.3370   16.4110   28.0360 C.3   221  LEU221      0.1596
    127  C         25.6940   17.1680   29.3130 C.2   221  LEU221      0.2287
    128  O         24.9440   17.1480   30.2950 O.2   221  LEU221     -0.2864
    129  CB        26.2460   15.1930   27.8610 C.3   221  LEU221      0.0297
    130  CG        26.2860   14.1570   28.9870 C.3   221  LEU221      0.0022
    131  CD1       25.1750   13.1320   28.8250 C.3   221  LEU221      0.0001
    132  CD2       27.6480   13.4840   29.0280 C.3   221  LEU221      0.0001
@<TRIPOS>BOND
     1    75    74    2
     2    74    73    1
     3    84    82   ar
     4    84    86   ar
     5    82    81   ar
     6    64    65    1
     7    67    66    2
     8    73    72    1
     9    87    86    1
    10    66    72   am
    11    66    65    1
    12    86    85   ar
    13    81    80    1
    14    81    83   ar
    15    47    48    1
    16    65    68    1
    17    80    77    1
    18    50    49    2
    19    48    49    1
    20    48    51    1
    21    85    83   ar
    22    76    77    1
    23    77    78    1
    24    68    69    1
    25    51    52    1
    26    94    88    1
    27    94    93    1
    28    69    71    1
    29    69    70    1
    30    78    88   am
    31    78    79    2
    32    34    33    2
    33    15    14    2
    34    88    89    1
    35    52    53    1
    36    33    32    1
    37    93    92    1
    38    14    13    1
    39    14    16   am
    40    91    90    2
    41    22    20    1
    42    13    12    1
    43    17    16    1
    44    17    20    1
    45    17    18    1
    46    19    18    2
    47    53    54    1
    48    35    32    1
    49    35    36    1
    50    89    92    1
    51    89    90    1
    52    20    21    1
    53    32    31    1
    54    18    23   am
    55    90    95   am
    56    54    55    2
    57    31    25   am
    58    26    25    2
    59    25    24    1
    60    23    24    1
    61    37    38    1
    62     3     4    2
    63     3     2    1
    64    95    96    1
    65    55    57    1
    66    55    56    1
    67    24    27    1
    68    44    42   ar
    69    44    46   ar
    70    38    41    1
    71    38    39    1
    72    96    99    1
    73    96    97    1
    74    99   100    1
    75   101   100   ar
    76   101   103   ar
    77    41    42    1
    78   100   102   ar
    79     1     2    1
    80   103   104   ar
    81     2     5    1
    82    42    43   ar
    83    46    45   ar
    84   102   104   ar
    85    39    40    2
    86    27    28    1
    87    97   105   am
    88    97    98    2
    89   111   109    1
    90   105   106    1
    91     5     6    1
    92    43    45   ar
    93    28    29    1
    94    28    30    1
    95   108   107    2
    96   110   109    1
    97   109   106    1
    98   106   107    1
    99     6     7    1
   100   107   112   am
   101    62    63    1
   102    62    59    1
   103     7     8    1
   104   116   117    1
   105   116   113    1
   106     8     9    2
   107   119   117   am
   108   112   113    1
   109    58    59    1
   110     9    11    1
   111     9    10    1
   112   115   114    2
   113    59    60    1
   114   117   118    2
   115   113   114    1
   116    60    61    2
   117   114   120   am
   118   120   121    1
   119   124   121    1
   120   121   122    1
   121   122   125   am
   122   122   123    2
   123   125   126    1
   124   129   126    1
   125   129   130    1
   126   126   127    1
   127   131   130    1
   128   130   132    1
   129   127   128    2
