@<TRIPOS>MOLECULE
tmp/5tj4E00.pdb
 167 165 0 0 0
SMALL
GASTEIGER

@<TRIPOS>ATOM
      1  N         23.5460  -12.4720  -94.7470 N.3    12  ASN12      -0.1240
      2  CA        22.7730  -12.7180  -93.5130 C.3    12  ASN12       0.1653
      3  C         21.3230  -12.2610  -93.6030 C.2    12  ASN12       0.2266
      4  O         21.0040  -11.3420  -94.3550 O.2    12  ASN12      -0.2867
      5  CB        23.4520  -12.0920  -92.2870 C.3    12  ASN12       0.1155
      6  CG        23.0690  -12.7840  -90.9760 C.2    12  ASN12       0.2627
      7  OD1       22.9520  -14.0040  -90.9150 O.2    12  ASN12      -0.2716
      8  ND2       22.9040  -12.0050  -89.9220 N.am   12  ASN12      -0.0877
      9  N         19.3030  -10.6640  -91.4320 N.3    14  ASP14      -0.1225
     10  CA        18.9500   -9.3220  -90.9200 C.3    14  ASP14       0.1805
     11  C         19.2930   -8.2000  -91.9170 C.2    14  ASP14       0.2597
     12  O         18.7120   -7.1220  -91.8280 O.2    14  ASP14      -0.2718
     13  CB        19.5370   -9.0480  -89.5050 C.3    14  ASP14       0.1424
     14  CG        21.0380   -9.3170  -89.4100 C.2    14  ASP14       0.3668
     15  OD1       21.6240   -9.8290  -90.3970 O.co2  14  ASP14      -0.2456
     16  OD2       21.6230   -9.0370  -88.3420 O.co2  14  ASP14      -0.2456
     17  N         20.2000   -8.4600  -92.8660 N.am   15  LYS15      -0.1979
     18  CA        20.5730   -7.4740  -93.9010 C.3    15  LYS15       0.1596
     19  C         19.5150   -7.3620  -94.9960 C.2    15  LYS15       0.2287
     20  O         18.5160   -8.0910  -94.9880 O.2    15  LYS15      -0.2864
     21  CB        21.9490   -7.8000  -94.5200 C.3    15  LYS15       0.0298
     22  CG        23.0900   -8.0570  -93.5290 C.3    15  LYS15       0.0038
     23  CD        23.2920   -6.9310  -92.5110 C.3    15  LYS15       0.0206
     24  CE        23.9790   -7.4030  -91.2390 C.3    15  LYS15       0.1093
     25  NZ        25.4250   -7.7060  -91.2270 N.3    15  LYS15      -0.1314
     26  N         27.7190  -18.1400  -91.5780 N.3    44  GLU44      -0.1245
     27  CA        29.1390  -17.9950  -91.2690 C.3    44  GLU44       0.1567
     28  C         29.7900  -19.3360  -90.9110 C.2    44  GLU44       0.2260
     29  O         30.9630  -19.5380  -91.1900 O.2    44  GLU44      -0.2867
     30  CB        29.3650  -16.9540  -90.1400 C.3    44  GLU44       0.0388
     31  CG        28.9720  -17.3670  -88.7100 C.3    44  GLU44       0.1160
     32  CD        27.4770  -17.2880  -88.4140 C.2    44  GLU44       0.3649
     33  OE1       26.6710  -17.0780  -89.3510 O.co2  44  GLU44      -0.2457
     34  OE2       27.1090  -17.4440  -87.2270 O.co2  44  GLU44      -0.2457
     35  N         29.6580  -11.3440  -95.2240 N.3    62  TRP62      -0.1227
     36  CA        29.7020  -11.2890  -93.7750 C.3    62  TRP62       0.1737
     37  C         30.6050  -10.1410  -93.3230 C.2    62  TRP62       0.2595
     38  O         31.3030   -9.5280  -94.1380 O.2    62  TRP62      -0.2718
     39  CB        30.1950  -12.6170  -93.2430 C.3    62  TRP62       0.0564
     40  CG        29.9270  -12.8070  -91.7990 C.ar   62  TRP62       0.0003
     41  CD1       30.8060  -12.6750  -90.7800 C.ar   62  TRP62       0.0946
     42  CD2       28.6790  -13.1470  -91.2130 C.ar   62  TRP62       0.0152
     43  NE1       30.1850  -12.9210  -89.5860 N.ar   62  TRP62      -0.2442
     44  CE2       28.8720  -13.2170  -89.8270 C.ar   62  TRP62       0.0810
     45  CE3       27.4120  -13.3900  -91.7290 C.ar   62  TRP62       0.0012
     46  CZ2       27.8470  -13.5270  -88.9460 C.ar   62  TRP62       0.0191
     47  CZ3       26.3720  -13.7050  -90.8400 C.ar   62  TRP62       0.0001
     48  CH2       26.6070  -13.7630  -89.4670 C.ar   62  TRP62       0.0015
     49  N         30.5310   -9.7960  -92.0400 N.am   63  ALA63      -0.1980
     50  CA        31.5060   -8.8910  -91.4280 C.3    63  ALA63       0.1597
     51  C         32.9220   -9.4260  -91.6030 C.2    63  ALA63       0.2287
     52  O         33.1480  -10.6270  -91.5130 O.2    63  ALA63      -0.2864
     53  CB        31.1880   -8.7110  -89.9530 C.3    63  ALA63       0.0319
     54  N         35.5350   -9.9420  -89.8660 N.3    65  ASP65      -0.1225
     55  CA        36.2480  -10.7660  -88.8530 C.3    65  ASP65       0.1805
     56  C         36.3510  -12.2500  -89.1900 C.2    65  ASP65       0.2597
     57  O         37.3560  -12.8780  -88.8680 O.2    65  ASP65      -0.2718
     58  CB        35.6770  -10.6150  -87.4430 C.3    65  ASP65       0.1424
     59  CG        34.2130  -11.0010  -87.3460 C.2    65  ASP65       0.3668
     60  OD1       33.3490  -10.4580  -88.1030 O.co2  65  ASP65      -0.2456
     61  OD2       33.9440  -11.8590  -86.4800 O.co2  65  ASP65      -0.2456
     62  N         35.3420  -12.8040  -89.8590 N.am   66  ARG66      -0.1979
     63  CA        35.3980  -14.2200  -90.2720 C.3    66  ARG66       0.1597
     64  C         36.3640  -14.5030  -91.4190 C.2    66  ARG66       0.2287
     65  O         36.8420  -15.6230  -91.5630 O.2    66  ARG66      -0.2864
     66  CB        34.0210  -14.7430  -90.6830 C.3    66  ARG66       0.0334
     67  CG        33.0590  -14.9070  -89.5250 C.3    66  ARG66       0.0492
     68  CD        33.3740  -16.1010  -88.6270 C.3    66  ARG66       0.2205
     69  NE        32.7510  -15.9130  -87.3100 N.pl3  66  ARG66      -0.0865
     70  CZ        32.2000  -16.8640  -86.5530 C.cat  66  ARG66       0.5346
     71  NH1       32.1720  -18.1340  -86.9510 N.pl3  66  ARG66       0.1354
     72  NH2       31.6570  -16.5310  -85.3720 N.pl3  66  ARG66       0.1354
     73  N         29.4950   -0.9410  -89.9930 N.3   111  GLU111     -0.1245
     74  CA        28.3560   -1.0890  -89.1090 C.3   111  GLU111      0.1567
     75  C         28.8920   -1.1170  -87.6960 C.2   111  GLU111      0.2260
     76  O         29.9690   -1.6610  -87.4400 O.2   111  GLU111     -0.2867
     77  CB        27.5660   -2.3670  -89.4420 C.3   111  GLU111      0.0388
     78  CG        28.3730   -3.6690  -89.4150 C.3   111  GLU111      0.1160
     79  CD        27.6920   -4.8500  -90.0980 C.2   111  GLU111      0.3649
     80  OE1       27.9760   -5.9850  -89.6590 O.co2 111  GLU111     -0.2457
     81  OE2       26.9110   -4.6670  -91.0750 O.co2 111  GLU111     -0.2457
     82  N         24.2980  -13.3980  -78.0480 N.3   153  GLU153     -0.1231
     83  CA        25.4680  -13.1140  -78.8680 C.3   153  GLU153      0.1684
     84  C         26.3910  -12.1160  -78.1680 C.2   153  GLU153      0.2434
     85  O         25.9320  -11.0830  -77.6980 O.2   153  GLU153     -0.2733
     86  CB        25.0450  -12.5690  -80.2230 C.3   153  GLU153      0.0402
     87  CG        24.4250  -13.6130  -81.1350 C.3   153  GLU153      0.1161
     88  CD        25.4330  -14.5280  -81.8020 C.2   153  GLU153      0.3649
     89  OE1       26.6260  -14.5100  -81.4460 O.co2 153  GLU153     -0.2457
     90  OE2       25.0260  -15.2660  -82.7220 O.co2 153  GLU153     -0.2457
     91  N         27.6970  -12.4120  -78.1160 N.am  154  PRO154     -0.2718
     92  CA        28.6360  -11.5300  -77.4150 C.3   154  PRO154      0.1535
     93  C         28.8960  -10.1990  -78.1110 C.2   154  PRO154      0.2599
     94  O         29.2790   -9.2520  -77.4400 O.2   154  PRO154     -0.2715
     95  CB        29.9200  -12.3590  -77.3340 C.3   154  PRO154      0.0310
     96  CG        29.7690  -13.4370  -78.3390 C.3   154  PRO154      0.0237
     97  CD        28.3210  -13.6810  -78.5270 C.3   154  PRO154      0.0939
     98  N         28.6480  -10.1140  -79.4170 N.am  155  TYR155     -0.1960
     99  CA        28.6850   -8.8340  -80.1560 C.3   155  TYR155      0.1771
    100  C         28.0230   -7.6810  -79.4130 C.2   155  TYR155      0.2619
    101  O         28.5590   -6.5710  -79.3810 O.2   155  TYR155     -0.2715
    102  CB        27.9690   -8.9720  -81.5050 C.3   155  TYR155      0.0574
    103  CG        28.1460   -7.8190  -82.4710 C.ar  155  TYR155     -0.0198
    104  CD1       29.4120   -7.4480  -82.9100 C.ar  155  TYR155     -0.0009
    105  CD2       27.0510   -7.1120  -82.9760 C.ar  155  TYR155     -0.0009
    106  CE1       29.5950   -6.3880  -83.8100 C.ar  155  TYR155      0.0417
    107  CE2       27.2200   -6.0460  -83.8750 C.ar  155  TYR155      0.0417
    108  CZ        28.4970   -5.6810  -84.2990 C.ar  155  TYR155      0.1957
    109  OH        28.6950   -4.6490  -85.2120 O.3   155  TYR155     -0.2866
    110  N         26.8560   -7.9630  -78.8390 N.am  156  PHE156     -0.1974
    111  CA        26.0220   -6.9630  -78.1790 C.3   156  PHE156      0.1639
    112  C         26.4830   -6.6970  -76.7480 C.2   156  PHE156      0.2290
    113  O         26.3900   -5.5720  -76.2350 O.2   156  PHE156     -0.2864
    114  CB        24.5700   -7.4300  -78.1650 C.3   156  PHE156      0.0560
    115  CG        23.9820   -7.6610  -79.5390 C.ar  156  PHE156     -0.0200
    116  CD1       23.3380   -6.6400  -80.2290 C.ar  156  PHE156     -0.0042
    117  CD2       24.0650   -8.9060  -80.1500 C.ar  156  PHE156     -0.0042
    118  CE1       22.7970   -6.8590  -81.4980 C.ar  156  PHE156     -0.0003
    119  CE2       23.5290   -9.1280  -81.4200 C.ar  156  PHE156     -0.0003
    120  CZ        22.9000   -8.1090  -82.0950 C.ar  156  PHE156     -0.0000
    121  N         20.8840   -2.0580  -89.6670 N.3   230  TRP230     -0.1241
    122  CA        19.8870   -2.9970  -90.2070 C.3   230  TRP230      0.1605
    123  C         18.5250   -3.0070  -89.4830 C.2   230  TRP230      0.2264
    124  O         17.4840   -3.2390  -90.1050 O.2   230  TRP230     -0.2867
    125  CB        20.4610   -4.4220  -90.2110 C.3   230  TRP230      0.0550
    126  CG        20.9060   -4.9170  -88.8610 C.ar  230  TRP230      0.0003
    127  CD1       20.1330   -5.4600  -87.8850 C.ar  230  TRP230      0.0946
    128  CD2       22.2320   -4.9040  -88.3560 C.ar  230  TRP230      0.0152
    129  NE1       20.8920   -5.7660  -86.7900 N.ar  230  TRP230     -0.2442
    130  CE2       22.1910   -5.4410  -87.0570 C.ar  230  TRP230      0.0810
    131  CE3       23.4620   -4.4920  -88.8800 C.ar  230  TRP230      0.0012
    132  CZ2       23.3340   -5.5850  -86.2690 C.ar  230  TRP230      0.0191
    133  CZ3       24.6000   -4.6350  -88.1030 C.ar  230  TRP230      0.0001
    134  CH2       24.5300   -5.1820  -86.8120 C.ar  230  TRP230      0.0015
    135  N         37.2820   -4.5570  -85.6720 N.3   330  MET330     -0.1245
    136  CA        37.5680   -5.9770  -85.4040 C.3   330  MET330      0.1570
    137  C         38.8040   -6.4530  -86.1410 C.2   330  MET330      0.2261
    138  O         39.0260   -6.0660  -87.2800 O.2   330  MET330     -0.2867
    139  CB        36.3950   -6.8940  -85.7890 C.3   330  MET330      0.0387
    140  CG        35.3880   -7.0790  -84.6710 C.3   330  MET330      0.0595
    141  SD        33.9600   -8.0900  -85.1390 S.3   330  MET330     -0.1393
    142  CE        33.0620   -7.0690  -86.3030 C.3   330  MET330      0.0692
    143  N         35.4920  -15.3690  -80.0900 N.3   340  TRP340     -0.1241
    144  CA        34.0470  -15.2430  -80.0110 C.3   340  TRP340      0.1605
    145  C         33.3990  -16.4270  -79.3090 C.2   340  TRP340      0.2264
    146  O         32.5650  -16.2180  -78.4450 O.2   340  TRP340     -0.2867
    147  CB        33.4010  -15.0400  -81.4050 C.3   340  TRP340      0.0550
    148  CG        33.5240  -13.6480  -81.9770 C.ar  340  TRP340      0.0003
    149  CD1       34.0390  -13.3100  -83.1900 C.ar  340  TRP340      0.0946
    150  CD2       33.1320  -12.4240  -81.3570 C.ar  340  TRP340      0.0152
    151  NE1       33.9930  -11.9520  -83.3650 N.ar  340  TRP340     -0.2442
    152  CE2       33.4450  -11.3850  -82.2470 C.ar  340  TRP340      0.0810
    153  CE3       32.5460  -12.1040  -80.1290 C.ar  340  TRP340      0.0012
    154  CZ2       33.2040  -10.0500  -81.9480 C.ar  340  TRP340      0.0191
    155  CZ3       32.2740  -10.7740  -79.8430 C.ar  340  TRP340      0.0001
    156  CH2       32.6080   -9.7650  -80.7470 C.ar  340  TRP340      0.0015
    157  N         31.2160  -16.0640  -75.9210 N.3   344  ARG344     -0.1245
    158  CA        29.8060  -16.4880  -76.0160 C.3   344  ARG344      0.1563
    159  C         29.4410  -17.3790  -74.8310 C.2   344  ARG344      0.2260
    160  O         28.4640  -17.0580  -74.1560 O.2   344  ARG344     -0.2867
    161  CB        29.5110  -17.2380  -77.3250 C.3   344  ARG344      0.0307
    162  CG        28.0500  -17.6560  -77.5020 C.3   344  ARG344      0.0489
    163  CD        27.8050  -18.3590  -78.8260 C.3   344  ARG344      0.2205
    164  NE        27.9400  -17.4460  -79.9880 N.pl3 344  ARG344     -0.0865
    165  CZ        28.8190  -17.5720  -80.9980 C.cat 344  ARG344      0.5346
    166  NH1       29.6750  -18.5910  -81.0510 N.pl3 344  ARG344      0.1354
    167  NH2       28.8430  -16.6710  -81.9900 N.pl3 344  ARG344      0.1354
@<TRIPOS>BOND
     1    35    36    1
     2    19    20    2
     3    19    18    1
     4     1     2    1
     5    21    18    1
     6    21    22    1
     7     4     3    2
     8    38    37    2
     9    18    17    1
    10    36    37    1
    11    36    39    1
    12     3     2    1
    13    22    23    1
    14     2     5    1
    15    37    49   am
    16    39    40    1
    17    17    11   am
    18    23    24    1
    19     5     6    1
    20    49    50    1
    21    11    12    2
    22    11    10    1
    23    40    42   ar
    24    40    41   ar
    25    45    42   ar
    26    45    47   ar
    27    51    52    2
    28    51    50    1
    29    26    27    1
    30    65    64    2
    31     9    10    1
    32    50    53    1
    33    64    63    1
    34    27    28    1
    35    27    30    1
    36    24    25    1
    37    42    44   ar
    38    29    28    2
    39    81    79   ar
    40     6     7    2
    41     6     8   am
    42    10    13    1
    43    47    48   ar
    44    41    43   ar
    45    66    63    1
    46    66    67    1
    47    15    14   ar
    48    63    62    1
    49   125   122    1
    50   125   126    1
    51   122   121    1
    52   122   123    1
    53    30    31    1
    54   124   123    2
    55    79    80   ar
    56    79    78    1
    57    73    74    1
    58    54    55    1
    59    62    56   am
    60    44    43   ar
    61    44    46   ar
    62    67    68    1
    63    13    14    1
    64    48    46   ar
    65    77    78    1
    66    77    74    1
    67    14    16   ar
    68    33    32   ar
    69    56    57    2
    70    56    55    1
    71    74    75    1
    72   131   128   ar
    73   131   133   ar
    74   126   128   ar
    75   126   127   ar
    76    55    58    1
    77    31    32    1
    78    68    69    1
    79    32    34   ar
    80   128   130   ar
    81   133   134   ar
    82    60    59   ar
    83   127   129   ar
    84    75    76    2
    85    58    59    1
    86    59    61   ar
    87    69    70    2
    88   138   137    2
    89   130   129   ar
    90   130   132   ar
    91    71    70    1
    92   134   132   ar
    93    70    72    1
    94   142   141    1
    95   137   136    1
    96   139   136    1
    97   139   140    1
    98   135   136    1
    99   109   108    1
   100   141   140    1
   101   108   107   ar
   102   108   106   ar
   103   107   105   ar
   104   106   104   ar
   105   151   149   ar
   106   151   152   ar
   107   149   148   ar
   108   105   103   ar
   109   104   103   ar
   110    90    88   ar
   111   103   102    1
   112   152   154   ar
   113   152   150   ar
   114   120   118   ar
   115   120   119   ar
   116   167   165    1
   117   148   147    1
   118   148   150   ar
   119   154   156   ar
   120    88    89   ar
   121    88    87    1
   122   102    99    1
   123   118   116   ar
   124   119   117   ar
   125   147   144    1
   126   150   153   ar
   127    87    86    1
   128   166   165    1
   129   165   164    2
   130   156   155   ar
   131   116   115   ar
   132    86    83    1
   133    99    98    1
   134    99   100    1
   135   117   115   ar
   136   153   155   ar
   137   143   144    1
   138   144   145    1
   139   164   163    1
   140   115   114    1
   141    98    93   am
   142   100   101    2
   143   100   110   am
   144   145   146    2
   145    83    84    1
   146    83    82    1
   147   110   111    1
   148   163   162    1
   149    97    96    1
   150    97    91    1
   151    96    95    1
   152   111   114    1
   153   111   112    1
   154    84    91   am
   155    84    85    2
   156    91    92    1
   157    93    94    2
   158    93    92    1
   159   162   161    1
   160    92    95    1
   161   161   158    1
   162   112   113    2
   163   158   157    1
   164   158   159    1
   165   159   160    2
