@<TRIPOS>MOLECULE
tmp/5tj6A00.pdb
 85 79 0 0 0
SMALL
GASTEIGER

@<TRIPOS>ATOM
      1  N        137.1230  152.6800  146.4090 N.3   114  LEU114     -0.1245
      2  CA       138.1080  152.4870  145.3380 C.3   114  LEU114      0.1561
      3  C        137.8630  151.2000  144.5570 C.2   114  LEU114      0.2260
      4  O        137.8200  151.2150  143.3260 O.2   114  LEU114     -0.2867
      5  CB       139.5300  152.4660  145.9080 C.3   114  LEU114      0.0270
      6  CG       140.6800  152.3690  144.8980 C.3   114  LEU114      0.0019
      7  CD1      140.7330  153.6100  144.0170 C.3   114  LEU114      0.0001
      8  CD2      141.9980  152.1570  145.6250 C.3   114  LEU114      0.0001
      9  N        143.1870  149.8050  135.5580 N.3   142  LEU142     -0.1245
     10  CA       142.7050  149.8710  136.9470 C.3   142  LEU142      0.1561
     11  C        142.6590  148.5140  137.6730 C.2   142  LEU142      0.2260
     12  O        142.4520  148.4770  138.8860 O.2   142  LEU142     -0.2867
     13  CB       141.3250  150.5410  137.0110 C.3   142  LEU142      0.0270
     14  CG       141.2380  152.0070  136.5680 C.3   142  LEU142      0.0019
     15  CD1      139.7850  152.4570  136.5380 C.3   142  LEU142      0.0001
     16  CD2      142.0620  152.9160  137.4700 C.3   142  LEU142      0.0001
     17  N        145.1210  148.2350  140.6010 N.3   145  LEU145     -0.1245
     18  CA       144.6740  148.6170  141.9500 C.3   145  LEU145      0.1561
     19  C        144.1660  147.4480  142.8030 C.2   145  LEU145      0.2260
     20  O        144.0730  147.5870  144.0210 O.2   145  LEU145     -0.2867
     21  CB       143.5910  149.7040  141.8900 C.3   145  LEU145      0.0270
     22  CG       144.0160  151.0680  141.3440 C.3   145  LEU145      0.0019
     23  CD1      142.8000  151.9500  141.1020 C.3   145  LEU145      0.0001
     24  CD2      145.0040  151.7580  142.2780 C.3   145  LEU145      0.0001
     25  N        146.5810  146.3990  145.5560 N.3   148  MET148     -0.1245
     26  CA       146.5360  147.1590  146.8260 C.3   148  MET148      0.1570
     27  C        145.9640  146.3850  148.0240 C.2   148  MET148      0.2261
     28  O        146.2950  146.6940  149.1700 O.2   148  MET148     -0.2867
     29  CB       145.7250  148.4550  146.6580 C.3   148  MET148      0.0387
     30  CG       146.3420  149.4970  145.7310 C.3   148  MET148      0.0595
     31  SD       147.3160  150.7510  146.5880 S.3   148  MET148     -0.1393
     32  CE       146.0310  151.7100  147.3880 C.3   148  MET148      0.0692
     33  N        150.2240  151.8470  142.0770 N.3   178  LEU178     -0.1245
     34  CA       150.0580  153.2390  141.6370 C.3   178  LEU178      0.1561
     35  C        150.9350  153.5900  140.4290 C.2   178  LEU178      0.2260
     36  O        150.5140  154.3490  139.5520 O.2   178  LEU178     -0.2867
     37  CB       150.3490  154.2080  142.7890 C.3   178  LEU178      0.0270
     38  CG       149.3510  154.1750  143.9520 C.3   178  LEU178      0.0019
     39  CD1      149.9250  154.8650  145.1810 C.3   178  LEU178      0.0001
     40  CD2      148.0260  154.8080  143.5520 C.3   178  LEU178      0.0001
     41  N        149.2320  151.8010  137.3900 N.3   181  THR181     -0.1203
     42  CA       147.9920  152.4870  136.9930 C.3   181  THR181      0.1994
     43  C        148.2840  153.7670  136.2270 C.2   181  THR181      0.2617
     44  O        147.7090  154.0090  135.1630 O.2   181  THR181     -0.2717
     45  CB       147.1230  152.8850  138.2050 C.3   181  THR181      0.1784
     46  OG1      147.8970  153.6760  139.1160 O.3   181  THR181     -0.2211
     47  CG2      146.5860  151.6640  138.9200 C.3   181  THR181      0.0376
     48  N        149.1670  154.5850  136.7990 N.am  182  ALA182     -0.1979
     49  CA       149.6110  155.8350  136.1800 C.3   182  ALA182      0.1597
     50  C        150.1530  155.6140  134.7680 C.2   182  ALA182      0.2287
     51  O        149.8840  156.4130  133.8670 O.2   182  ALA182     -0.2864
     52  CB       150.6650  156.5070  137.0490 C.3   182  ALA182      0.0319
     53  N        147.2240  154.9620  132.5720 N.3   185  PHE185     -0.1241
     54  CA       146.4590  156.2000  132.3840 C.3   185  PHE185      0.1605
     55  C        147.0590  157.0460  131.2550 C.2   185  PHE185      0.2264
     56  O        146.3190  157.6320  130.4650 O.2   185  PHE185     -0.2867
     57  CB       146.3790  157.0120  133.6890 C.3   185  PHE185      0.0534
     58  CG       145.0760  157.7470  133.8680 C.ar  185  PHE185     -0.0203
     59  CD1      144.1200  157.2900  134.7750 C.ar  185  PHE185     -0.0042
     60  CD2      144.7970  158.8920  133.1270 C.ar  185  PHE185     -0.0042
     61  CE1      142.9180  157.9620  134.9410 C.ar  185  PHE185     -0.0003
     62  CE2      143.5940  159.5680  133.2890 C.ar  185  PHE185     -0.0003
     63  CZ       142.6530  159.1030  134.1960 C.ar  185  PHE185     -0.0000
     64  N        148.1870  165.3290  133.0090 N.3   236  PHE236     -0.1241
     65  CA       148.4440  164.2020  133.9090 C.3   236  PHE236      0.1605
     66  C        149.8940  164.1890  134.4010 C.2   236  PHE236      0.2264
     67  O        150.1360  163.8900  135.5680 O.2   236  PHE236     -0.2867
     68  CB       148.0980  162.8560  133.2590 C.3   236  PHE236      0.0534
     69  CG       148.2950  161.6810  134.1790 C.ar  236  PHE236     -0.0203
     70  CD1      147.3970  161.4380  135.2160 C.ar  236  PHE236     -0.0042
     71  CD2      149.3930  160.8350  134.0340 C.ar  236  PHE236     -0.0042
     72  CE1      147.5790  160.3660  136.0790 C.ar  236  PHE236     -0.0003
     73  CE2      149.5800  159.7610  134.8940 C.ar  236  PHE236     -0.0003
     74  CZ       148.6720  159.5260  135.9180 C.ar  236  PHE236     -0.0000
     75  N        153.7490  162.0370  142.6520 N.3   244  PHE244     -0.1241
     76  CA       154.6390  160.8620  142.6860 C.3   244  PHE244      0.1605
     77  C        156.1020  161.1510  143.0430 C.2   244  PHE244      0.2264
     78  O        156.8340  160.2280  143.4080 O.2   244  PHE244     -0.2867
     79  CB       154.5580  160.0720  141.3710 C.3   244  PHE244      0.0534
     80  CG       153.3220  159.2230  141.2550 C.ar  244  PHE244     -0.0203
     81  CD1      153.3650  157.8640  141.5550 C.ar  244  PHE244     -0.0042
     82  CD2      152.1110  159.7810  140.8560 C.ar  244  PHE244     -0.0042
     83  CE1      152.2280  157.0770  141.4530 C.ar  244  PHE244     -0.0003
     84  CE2      150.9690  158.9970  140.7490 C.ar  244  PHE244     -0.0003
     85  CZ       151.0270  157.6440  141.0490 C.ar  244  PHE244     -0.0000
@<TRIPOS>BOND
     1    56    55    2
     2    55    54    1
     3    54    53    1
     4    54    57    1
     5    64    65    1
     6    60    62   ar
     7    60    58   ar
     8    68    65    1
     9    68    69    1
    10    62    63   ar
    11    57    58    1
    12    51    50    2
    13    58    59   ar
    14    65    66    1
    15    71    69   ar
    16    71    73   ar
    17    69    70   ar
    18    63    61   ar
    19    66    67    2
    20    50    49    1
    21    59    61   ar
    22    73    74   ar
    23    44    43    2
    24    70    72   ar
    25     9    10    1
    26    74    72   ar
    27    49    48    1
    28    49    52    1
    29    43    48   am
    30    43    42    1
    31    15    14    1
    32    14    13    1
    33    14    16    1
    34    10    13    1
    35    10    11    1
    36    42    41    1
    37    42    45    1
    38    11    12    2
    39    45    47    1
    40    45    46    1
    41    36    35    2
    42    35    34    1
    43    17    18    1
    44    84    82   ar
    45    84    85   ar
    46    82    80   ar
    47    85    83   ar
    48    23    22    1
    49    80    79    1
    50    80    81   ar
    51    22    21    1
    52    22    24    1
    53    79    76    1
    54    83    81   ar
    55    34    33    1
    56    34    37    1
    57    21    18    1
    58    18    19    1
    59    75    76    1
    60    76    77    1
    61    37    38    1
    62    19    20    2
    63    77    78    2
    64     4     3    2
    65    40    38    1
    66    38    39    1
    67     7     6    1
    68     3     2    1
    69     6     8    1
    70     6     5    1
    71     2     5    1
    72     2     1    1
    73    25    26    1
    74    30    31    1
    75    30    29    1
    76    31    32    1
    77    29    26    1
    78    26    27    1
    79    27    28    2
