@<TRIPOS>MOLECULE
tmp/5tj6A04.pdb
 84 79 0 0 0
SMALL
GASTEIGER

@<TRIPOS>ATOM
      1  N        146.5810  146.3990  145.5560 N.3   148  MET148     -0.1245
      2  CA       146.5360  147.1590  146.8260 C.3   148  MET148      0.1570
      3  C        145.9640  146.3850  148.0240 C.2   148  MET148      0.2261
      4  O        146.2950  146.6940  149.1700 O.2   148  MET148     -0.2867
      5  CB       145.7250  148.4550  146.6580 C.3   148  MET148      0.0387
      6  CG       146.3420  149.4970  145.7310 C.3   148  MET148      0.0595
      7  SD       147.3160  150.7510  146.5880 S.3   148  MET148     -0.1393
      8  CE       146.0310  151.7100  147.3880 C.3   148  MET148      0.0692
      9  N        151.8030  149.1780  147.2930 N.3   174  SER174     -0.1217
     10  CA       151.1250  150.4510  147.0100 C.3   174  SER174      0.1889
     11  C        151.8530  151.2580  145.9330 C.2   174  SER174      0.2288
     12  O        151.2210  151.8290  145.0440 O.2   174  SER174     -0.2866
     13  CB       150.9870  151.2960  148.2810 C.3   174  SER174      0.2089
     14  OG       152.2530  151.7240  148.7570 O.3   174  SER174     -0.2183
     15  N        150.2240  151.8470  142.0770 N.3   178  LEU178     -0.1245
     16  CA       150.0580  153.2390  141.6370 C.3   178  LEU178      0.1561
     17  C        150.9350  153.5900  140.4290 C.2   178  LEU178      0.2260
     18  O        150.5140  154.3490  139.5520 O.2   178  LEU178     -0.2867
     19  CB       150.3490  154.2080  142.7890 C.3   178  LEU178      0.0270
     20  CG       149.3510  154.1750  143.9520 C.3   178  LEU178      0.0019
     21  CD1      149.9250  154.8650  145.1810 C.3   178  LEU178      0.0001
     22  CD2      148.0260  154.8080  143.5520 C.3   178  LEU178      0.0001
     23  N        149.1670  154.5850  136.7990 N.3   182  ALA182     -0.1245
     24  CA       149.6110  155.8350  136.1800 C.3   182  ALA182      0.1562
     25  C        150.1530  155.6140  134.7680 C.2   182  ALA182      0.2260
     26  O        149.8840  156.4130  133.8670 O.2   182  ALA182     -0.2867
     27  CB       150.6650  156.5070  137.0490 C.3   182  ALA182      0.0290
     28  N        148.1870  165.3290  133.0090 N.3   236  PHE236     -0.1241
     29  CA       148.4440  164.2020  133.9090 C.3   236  PHE236      0.1605
     30  C        149.8940  164.1890  134.4010 C.2   236  PHE236      0.2264
     31  O        150.1360  163.8900  135.5680 O.2   236  PHE236     -0.2867
     32  CB       148.0980  162.8560  133.2590 C.3   236  PHE236      0.0534
     33  CG       148.2950  161.6810  134.1790 C.ar  236  PHE236     -0.0203
     34  CD1      147.3970  161.4380  135.2160 C.ar  236  PHE236     -0.0042
     35  CD2      149.3930  160.8350  134.0340 C.ar  236  PHE236     -0.0042
     36  CE1      147.5790  160.3660  136.0790 C.ar  236  PHE236     -0.0003
     37  CE2      149.5800  159.7610  134.8940 C.ar  236  PHE236     -0.0003
     38  CZ       148.6720  159.5260  135.9180 C.ar  236  PHE236     -0.0000
     39  N        150.2400  166.7600  137.1310 N.3   239  ILE239     -0.1231
     40  CA       149.6460  166.1880  138.3490 C.3   239  ILE239      0.1692
     41  C        150.5360  165.0780  138.9250 C.2   239  ILE239      0.2592
     42  O        150.7810  165.0400  140.1320 O.2   239  ILE239     -0.2718
     43  CB       148.2100  165.6620  138.0800 C.3   239  ILE239      0.0266
     44  CG1      147.2680  166.8370  137.7770 C.3   239  ILE239      0.0019
     45  CG2      147.6740  164.8590  139.2650 C.3   239  ILE239      0.0020
     46  CD1      145.9980  166.4470  137.0470 C.3   239  ILE239      0.0001
     47  N        150.9980  164.1820  138.0520 N.am  240  PHE240     -0.1976
     48  CA       151.9270  163.0990  138.4080 C.3   240  PHE240      0.1639
     49  C        153.1970  163.6300  139.0770 C.2   240  PHE240      0.2290
     50  O        153.6260  163.1040  140.1060 O.2   240  PHE240     -0.2864
     51  CB       152.2920  162.2950  137.1490 C.3   240  PHE240      0.0560
     52  CG       153.2170  161.1390  137.4020 C.ar  240  PHE240     -0.0200
     53  CD1      152.7090  159.8690  137.6540 C.ar  240  PHE240     -0.0042
     54  CD2      154.5990  161.3120  137.3680 C.ar  240  PHE240     -0.0042
     55  CE1      153.5600  158.7970  137.8850 C.ar  240  PHE240     -0.0003
     56  CE2      155.4550  160.2460  137.6020 C.ar  240  PHE240     -0.0003
     57  CZ       154.9340  158.9870  137.8600 C.ar  240  PHE240     -0.0000
     58  N        152.5910  164.7900  142.6730 N.3   243  ILE243     -0.1231
     59  CA       152.2640  163.7120  143.6150 C.3   243  ILE243      0.1692
     60  C        153.4060  162.7030  143.7550 C.2   243  ILE243      0.2592
     61  O        153.9600  162.5390  144.8430 O.2   243  ILE243     -0.2718
     62  CB       150.9780  162.9590  143.1900 C.3   243  ILE243      0.0266
     63  CG1      149.7920  163.9270  143.0700 C.3   243  ILE243      0.0019
     64  CG2      150.6450  161.8420  144.1820 C.3   243  ILE243      0.0020
     65  CD1      148.6930  163.4270  142.1560 C.3   243  ILE243      0.0001
     66  N        153.7490  162.0370  142.6520 N.am  244  PHE244     -0.1976
     67  CA       154.6390  160.8620  142.6860 C.3   244  PHE244      0.1639
     68  C        156.1020  161.1510  143.0430 C.2   244  PHE244      0.2290
     69  O        156.8340  160.2280  143.4080 O.2   244  PHE244     -0.2864
     70  CB       154.5580  160.0720  141.3710 C.3   244  PHE244      0.0560
     71  CG       153.3220  159.2230  141.2550 C.ar  244  PHE244     -0.0200
     72  CD1      153.3650  157.8640  141.5550 C.ar  244  PHE244     -0.0042
     73  CD2      152.1110  159.7810  140.8560 C.ar  244  PHE244     -0.0042
     74  CE1      152.2280  157.0770  141.4530 C.ar  244  PHE244     -0.0003
     75  CE2      150.9690  158.9970  140.7490 C.ar  244  PHE244     -0.0003
     76  CZ       151.0270  157.6440  141.0490 C.ar  244  PHE244     -0.0000
     77  N        155.8000  160.5830  146.6920 N.3   247  LEU247     -0.1245
     78  CA       155.8630  159.1440  146.9870 C.3   247  LEU247      0.1561
     79  C        157.2980  158.6350  146.9170 C.2   247  LEU247      0.2260
     80  O        157.7920  158.0240  147.8650 O.2   247  LEU247     -0.2867
     81  CB       155.0010  158.3320  146.0100 C.3   247  LEU247      0.0270
     82  CG       153.4960  158.6060  145.9250 C.3   247  LEU247      0.0019
     83  CD1      152.8280  157.5420  145.0610 C.3   247  LEU247      0.0001
     84  CD2      152.8450  158.6600  147.3000 C.3   247  LEU247      0.0001
@<TRIPOS>BOND
     1    28    29    1
     2    32    29    1
     3    32    33    1
     4    26    25    2
     5    29    30    1
     6    35    33   ar
     7    35    37   ar
     8    33    34   ar
     9    30    31    2
    10    25    24    1
    11    37    38   ar
    12    34    36   ar
    13    38    36   ar
    14    24    23    1
    15    24    27    1
    16    46    44    1
    17    39    40    1
    18    51    52    1
    19    51    48    1
    20    54    52   ar
    21    54    56   ar
    22    52    53   ar
    23    56    57   ar
    24    53    55   ar
    25    44    43    1
    26    57    55   ar
    27    47    48    1
    28    47    41   am
    29    43    40    1
    30    43    45    1
    31    40    41    1
    32    48    49    1
    33    41    42    2
    34    49    50    2
    35    18    17    2
    36    17    16    1
    37    75    73   ar
    38    75    76   ar
    39    73    71   ar
    40    76    74   ar
    41    71    70    1
    42    71    72   ar
    43    70    67    1
    44    74    72   ar
    45    16    15    1
    46    16    19    1
    47    65    63    1
    48    66    67    1
    49    66    60   am
    50    58    59    1
    51    67    68    1
    52    19    20    1
    53    68    69    2
    54    63    62    1
    55    62    59    1
    56    62    64    1
    57    22    20    1
    58    59    60    1
    59    60    61    2
    60    20    21    1
    61    12    11    2
    62    83    82    1
    63     1     2    1
    64     6     7    1
    65     6     5    1
    66    82    81    1
    67    82    84    1
    68    11    10    1
    69    81    78    1
    70     7     8    1
    71     5     2    1
    72    77    78    1
    73     2     3    1
    74    79    78    1
    75    79    80    2
    76    10     9    1
    77    10    13    1
    78     3     4    2
    79    13    14    1
