@<TRIPOS>MOLECULE
tmp/5tj6A02.pdb
 126 124 0 0 0
SMALL
GASTEIGER

@<TRIPOS>ATOM
      1  N        134.2620  155.1010  122.3220 N.3     3  TRP3       -0.1241
      2  CA       134.6630  155.6130  123.6430 C.3     3  TRP3        0.1605
      3  C        133.4530  155.9530  124.5300 C.2     3  TRP3        0.2264
      4  O        133.5360  155.8450  125.7500 O.2     3  TRP3       -0.2867
      5  CB       135.6050  156.8320  123.5150 C.3     3  TRP3        0.0550
      6  CG       134.9160  158.1690  123.3080 C.ar    3  TRP3        0.0003
      7  CD1      134.5100  159.0400  124.2840 C.ar    3  TRP3        0.0946
      8  CD2      134.5640  158.7790  122.0570 C.ar    3  TRP3        0.0152
      9  NE1      133.9230  160.1470  123.7190 N.ar    3  TRP3       -0.2442
     10  CE2      133.9430  160.0160  122.3560 C.ar    3  TRP3        0.0810
     11  CE3      134.7100  158.4030  120.7120 C.ar    3  TRP3        0.0012
     12  CZ2      133.4690  160.8800  121.3580 C.ar    3  TRP3        0.0191
     13  CZ3      134.2370  159.2640  119.7180 C.ar    3  TRP3        0.0001
     14  CH2      133.6240  160.4880  120.0500 C.ar    3  TRP3        0.0015
     15  N        132.4730  153.5450  128.0570 N.3     7  LEU7       -0.1245
     16  CA       132.5520  154.4530  129.2110 C.3     7  LEU7        0.1561
     17  C        131.1820  154.7160  129.8520 C.2     7  LEU7        0.2260
     18  O        131.1060  154.9350  131.0610 O.2     7  LEU7       -0.2867
     19  CB       133.2090  155.7790  128.8040 C.3     7  LEU7        0.0270
     20  CG       133.6500  156.7580  129.8980 C.3     7  LEU7        0.0019
     21  CD1      134.7840  156.1820  130.7340 C.3     7  LEU7        0.0001
     22  CD2      134.0710  158.0800  129.2720 C.3     7  LEU7        0.0001
     23  N        134.4430  150.1250  136.1430 N.3   121  PHE121     -0.1241
     24  CA       135.2400  150.4170  134.9450 C.3   121  PHE121      0.1605
     25  C        135.9160  149.1880  134.3120 C.2   121  PHE121      0.2264
     26  O        136.4490  149.2980  133.2050 O.2   121  PHE121     -0.2867
     27  CB       136.2880  151.4950  135.2580 C.3   121  PHE121      0.0534
     28  CG       135.6960  152.8080  135.7100 C.ar  121  PHE121     -0.0203
     29  CD1      134.8520  153.5310  134.8710 C.ar  121  PHE121     -0.0042
     30  CD2      135.9860  153.3300  136.9700 C.ar  121  PHE121     -0.0042
     31  CE1      134.3020  154.7400  135.2790 C.ar  121  PHE121     -0.0003
     32  CE2      135.4400  154.5390  137.3830 C.ar  121  PHE121     -0.0003
     33  CZ       134.5970  155.2450  136.5370 C.ar  121  PHE121     -0.0000
     34  N        138.4580  146.7170  123.7350 N.3   136  TRP136     -0.1241
     35  CA       138.8960  148.0590  124.1120 C.3   136  TRP136      0.1605
     36  C        139.6200  147.9810  125.4510 C.2   136  TRP136      0.2264
     37  O        139.1050  147.3900  126.4050 O.2   136  TRP136     -0.2867
     38  CB       137.6980  149.0110  124.2040 C.3   136  TRP136      0.0550
     39  CG       138.0700  150.4720  124.1670 C.ar  136  TRP136      0.0003
     40  CD1      138.8390  151.1000  123.2270 C.ar  136  TRP136      0.0946
     41  CD2      137.6670  151.4880  125.0960 C.ar  136  TRP136      0.0152
     42  NE1      138.9520  152.4380  123.5200 N.ar  136  TRP136     -0.2442
     43  CE2      138.2410  152.7050  124.6600 C.ar  136  TRP136      0.0810
     44  CE3      136.8810  151.4890  126.2580 C.ar  136  TRP136      0.0012
     45  CZ2      138.0540  153.9140  125.3460 C.ar  136  TRP136      0.0191
     46  CZ3      136.6930  152.6950  126.9420 C.ar  136  TRP136      0.0001
     47  CH2      137.2810  153.8890  126.4810 C.ar  136  TRP136      0.0015
     48  N        139.8310  151.2620  130.3720 N.3   139  LEU139     -0.1245
     49  CA       140.1820  151.3510  131.7880 C.3   139  LEU139      0.1561
     50  C        140.4770  149.9580  132.3680 C.2   139  LEU139      0.2260
     51  O        140.0780  149.6460  133.4940 O.2   139  LEU139     -0.2867
     52  CB       139.0520  152.0490  132.5590 C.3   139  LEU139      0.0270
     53  CG       138.6270  153.4330  132.0450 C.3   139  LEU139      0.0019
     54  CD1      137.3220  153.8760  132.6860 C.3   139  LEU139      0.0001
     55  CD2      139.7140  154.4680  132.2920 C.3   139  LEU139      0.0001
     56  N        147.2240  154.9620  132.5720 N.3   185  PHE185     -0.1241
     57  CA       146.4590  156.2000  132.3840 C.3   185  PHE185      0.1605
     58  C        147.0590  157.0460  131.2550 C.2   185  PHE185      0.2264
     59  O        146.3190  157.6320  130.4650 O.2   185  PHE185     -0.2867
     60  CB       146.3790  157.0120  133.6890 C.3   185  PHE185      0.0534
     61  CG       145.0760  157.7470  133.8680 C.ar  185  PHE185     -0.0203
     62  CD1      144.1200  157.2900  134.7750 C.ar  185  PHE185     -0.0042
     63  CD2      144.7970  158.8920  133.1270 C.ar  185  PHE185     -0.0042
     64  CE1      142.9180  157.9620  134.9410 C.ar  185  PHE185     -0.0003
     65  CE2      143.5940  159.5680  133.2890 C.ar  185  PHE185     -0.0003
     66  CZ       142.6530  159.1030  134.1960 C.ar  185  PHE185     -0.0000
     67  N        146.4420  155.2280  127.8700 N.3   188  LEU188     -0.1231
     68  CA       145.1300  155.6280  127.3640 C.3   188  LEU188      0.1693
     69  C        145.1950  156.9980  126.6870 C.2   188  LEU188      0.2591
     70  O        144.9120  157.1170  125.4950 O.2   188  LEU188     -0.2718
     71  CB       144.1000  155.6540  128.5030 C.3   188  LEU188      0.0284
     72  CG       142.6690  156.1010  128.1790 C.3   188  LEU188      0.0019
     73  CD1      142.0180  155.1520  127.1820 C.3   188  LEU188      0.0001
     74  CD2      141.8510  156.2010  129.4580 C.3   188  LEU188      0.0001
     75  N        145.5790  158.0170  127.4550 N.am  189  LEU189     -0.1980
     76  CA       145.5250  159.4170  127.0040 C.3   189  LEU189      0.1596
     77  C        146.4430  159.7370  125.8210 C.2   189  LEU189      0.2287
     78  O        146.0800  160.5350  124.9580 O.2   189  LEU189     -0.2864
     79  CB       145.8510  160.3690  128.1620 C.3   189  LEU189      0.0297
     80  CG       144.8640  160.4100  129.3330 C.3   189  LEU189      0.0022
     81  CD1      145.4590  161.2130  130.4790 C.3   189  LEU189      0.0001
     82  CD2      143.5180  160.9800  128.9080 C.3   189  LEU189      0.0001
     83  N        145.0190  157.4120  122.6200 N.3   192  SER192     -0.1202
     84  CA       143.6980  157.9220  122.2350 C.3   192  SER192      0.2020
     85  C        143.7760  159.3420  121.6750 C.2   192  SER192      0.2619
     86  O        143.0390  159.6850  120.7480 O.2   192  SER192     -0.2717
     87  CB       142.7360  157.9060  123.4270 C.3   192  SER192      0.2103
     88  OG       142.6140  156.6030  123.9700 O.3   192  SER192     -0.2182
     89  N        144.6720  160.1540  122.2370 N.am  193  GLY193     -0.1942
     90  CA       144.7870  161.5660  121.8880 C.3   193  GLY193      0.2014
     91  C        143.8860  162.3770  122.7980 C.2   193  GLY193      0.2639
     92  O        143.9280  162.2150  124.0200 O.2   193  GLY193     -0.2714
     93  N        143.0720  163.2480  122.2100 N.am  194  ASP194     -0.1957
     94  CA       142.0980  164.0290  122.9760 C.3   194  ASP194      0.1825
     95  C        140.9680  164.5810  122.0940 C.2   194  ASP194      0.2464
     96  O        141.1590  164.7670  120.8890 O.2   194  ASP194     -0.2730
     97  CB       142.7960  165.1650  123.7480 C.3   194  ASP194      0.1450
     98  CG       143.8940  165.8560  122.9410 C.2   194  ASP194      0.3671
     99  OD1      143.7230  166.0570  121.7200 O.co2 194  ASP194     -0.2456
    100  OD2      144.9330  166.2060  123.5400 O.co2 194  ASP194     -0.2456
    101  N        139.7880  164.8460  122.6950 N.am  195  PRO195     -0.2727
    102  CA       138.6710  165.4440  121.9540 C.3   195  PRO195      0.1402
    103  C        138.8130  166.9540  121.6880 C.2   195  PRO195      0.2269
    104  O        137.9860  167.5180  120.9680 O.2   195  PRO195     -0.2865
    105  CB       137.4700  165.1690  122.8620 C.3   195  PRO195      0.0296
    106  CG       138.0440  165.1590  124.2340 C.3   195  PRO195      0.0237
    107  CD       139.4300  164.5920  124.1050 C.3   195  PRO195      0.0939
    108  N        140.8310  164.1070  118.1500 N.3   199  PHE199     -0.1241
    109  CA       141.7010  162.9210  118.2530 C.3   199  PHE199      0.1605
    110  C        142.7860  162.8530  117.1610 C.2   199  PHE199      0.2264
    111  O        143.1330  161.7680  116.6840 O.2   199  PHE199     -0.2867
    112  CB       140.8630  161.6300  118.2680 C.3   199  PHE199      0.0534
    113  CG       139.7400  161.6430  119.2720 C.ar  199  PHE199     -0.0203
    114  CD1      139.9880  161.3860  120.6180 C.ar  199  PHE199     -0.0042
    115  CD2      138.4320  161.9060  118.8720 C.ar  199  PHE199     -0.0042
    116  CE1      138.9550  161.3950  121.5470 C.ar  199  PHE199     -0.0003
    117  CE2      137.3950  161.9160  119.7970 C.ar  199  PHE199     -0.0003
    118  CZ       137.6560  161.6610  121.1360 C.ar  199  PHE199     -0.0000
    119  N        145.7920  166.3340  127.3880 N.3   232  LEU232     -0.1245
    120  CA       145.3670  165.5540  128.5550 C.3   232  LEU232      0.1561
    121  C        146.5140  164.7540  129.1820 C.2   232  LEU232      0.2260
    122  O        146.5470  164.5730  130.4010 O.2   232  LEU232     -0.2867
    123  CB       144.2080  164.6170  128.1940 C.3   232  LEU232      0.0270
    124  CG       142.8860  165.2890  127.8060 C.3   232  LEU232      0.0019
    125  CD1      141.9070  164.2620  127.2550 C.3   232  LEU232      0.0001
    126  CD2      142.2700  166.0310  128.9860 C.3   232  LEU232      0.0001
@<TRIPOS>BOND
     1   111   110    2
     2   110   109    1
     3   108   109    1
     4   109   112    1
     5   112   113    1
     6   115   113   ar
     7   115   117   ar
     8   113   114   ar
     9    13    14   ar
    10    13    11   ar
    11   117   118   ar
    12    14    12   ar
    13   114   116   ar
    14    11     8   ar
    15    86    85    2
    16    96    95    2
    17   104   103    2
    18   118   116   ar
    19    12    10   ar
    20    85    84    1
    21    85    89   am
    22   103   102    1
    23    99    98   ar
    24    90    89    1
    25    90    91    1
    26   102   101    1
    27   102   105    1
    28     8    10   ar
    29     8     6   ar
    30    95   101   am
    31    95    94    1
    32    93    91   am
    33    93    94    1
    34    84    83    1
    35    84    87    1
    36     1     2    1
    37    10     9   ar
    38   101   107    1
    39    91    92    2
    40   105   106    1
    41    98   100   ar
    42    98    97    1
    43    94    97    1
    44    40    42   ar
    45    40    39   ar
    46     6     5    1
    47     6     7   ar
    48    87    88    1
    49     5     2    1
    50    42    43   ar
    51     2     3    1
    52     9     7   ar
    53    34    35    1
    54   107   106    1
    55    35    38    1
    56    35    36    1
    57    39    38    1
    58    39    41   ar
    59     3     4    2
    60    43    41   ar
    61    43    45   ar
    62    78    77    2
    63    41    44   ar
    64    45    47   ar
    65    36    37    2
    66    70    69    2
    67    77    76    1
    68    44    46   ar
    69    47    46   ar
    70    69    68    1
    71    69    75   am
    72    76    75    1
    73    76    79    1
    74    73    72    1
    75   125   124    1
    76    68    67    1
    77    68    71    1
    78   119   120    1
    79   124   123    1
    80   124   126    1
    81    15    16    1
    82    79    80    1
    83    72    71    1
    84    72    74    1
    85   123   120    1
    86   120   121    1
    87    19    16    1
    88    19    20    1
    89    82    80    1
    90   121   122    2
    91    16    17    1
    92    22    20    1
    93    80    81    1
    94    17    18    2
    95    20    21    1
    96    48    49    1
    97    59    58    2
    98    58    57    1
    99    49    50    1
   100    49    52    1
   101    53    55    1
   102    53    52    1
   103    53    54    1
   104    50    51    2
   105    57    56    1
   106    57    60    1
   107    63    65   ar
   108    63    61   ar
   109    26    25    2
   110    65    66   ar
   111    60    61    1
   112    61    62   ar
   113    66    64   ar
   114    25    24    1
   115    62    64   ar
   116    29    31   ar
   117    29    28   ar
   118    24    27    1
   119    24    23    1
   120    27    28    1
   121    31    33   ar
   122    28    30   ar
   123    33    32   ar
   124    30    32   ar
