@<TRIPOS>MOLECULE
tmp/5tj6A09.pdb
 110 99 0 0 0
SMALL
GASTEIGER

@<TRIPOS>ATOM
      1  N        143.6290  137.0230  145.7050 N.3    60  PHE60      -0.1241
      2  CA       145.0700  137.2860  145.5910 C.3    60  PHE60       0.1605
      3  C        145.6130  136.8910  144.2120 C.2    60  PHE60       0.2264
      4  O        146.2090  137.7150  143.5150 O.2    60  PHE60      -0.2867
      5  CB       145.8270  136.5250  146.6920 C.3    60  PHE60       0.0534
      6  CG       147.3240  136.6940  146.6460 C.ar   60  PHE60      -0.0203
      7  CD1      147.9330  137.7910  147.2450 C.ar   60  PHE60      -0.0042
      8  CD2      148.1290  135.7420  146.0210 C.ar   60  PHE60      -0.0042
      9  CE1      149.3130  137.9450  147.2090 C.ar   60  PHE60      -0.0003
     10  CE2      149.5090  135.8920  145.9810 C.ar   60  PHE60      -0.0003
     11  CZ       150.1020  136.9950  146.5770 C.ar   60  PHE60      -0.0000
     12  N        146.1420  139.1910  140.2200 N.3    64  ILE64      -0.1245
     13  CA       147.4370  139.1910  139.5300 C.3    64  ILE64       0.1561
     14  C        147.2910  138.5960  138.1240 C.2    64  ILE64       0.2260
     15  O        147.8480  139.1320  137.1650 O.2    64  ILE64      -0.2867
     16  CB       148.5180  138.4180  140.3360 C.3    64  ILE64       0.0252
     17  CG1      148.8140  139.1370  141.6630 C.3    64  ILE64       0.0019
     18  CG2      149.8110  138.2690  139.5330 C.3    64  ILE64       0.0019
     19  CD1      149.4910  138.2700  142.7050 C.3    64  ILE64       0.0001
     20  N        145.5530  140.9750  135.7640 N.3    67  LEU67      -0.1245
     21  CA       146.5070  142.0210  135.3750 C.3    67  LEU67       0.1561
     22  C        147.5040  141.5480  134.3060 C.2    67  LEU67       0.2260
     23  O        147.9360  142.3470  133.4720 O.2    67  LEU67      -0.2867
     24  CB       147.2640  142.5360  136.6070 C.3    67  LEU67       0.0270
     25  CG       148.1660  143.7640  136.4360 C.3    67  LEU67       0.0019
     26  CD1      147.3600  144.9910  136.0340 C.3    67  LEU67       0.0001
     27  CD2      148.9450  144.0290  137.7150 C.3    67  LEU67       0.0001
     28  N        145.9380  144.8790  143.2830 N.3   147  LEU147     -0.1245
     29  CA       147.1450  144.5460  144.0520 C.3   147  LEU147      0.1561
     30  C        147.1500  145.1950  145.4420 C.2   147  LEU147      0.2260
     31  O        147.6490  144.5960  146.3930 O.2   147  LEU147     -0.2867
     32  CB       148.4190  144.9590  143.3010 C.3   147  LEU147      0.0270
     33  CG       148.7120  144.3380  141.9310 C.3   147  LEU147      0.0019
     34  CD1      150.0420  144.8590  141.4070 C.3   147  LEU147      0.0001
     35  CD2      148.7220  142.8170  141.9890 C.3   147  LEU147      0.0001
     36  N        146.6990  143.3190  148.8010 N.3   150  ILE150     -0.1245
     37  CA       147.6510  142.2770  149.2350 C.3   150  ILE150      0.1561
     38  C        148.1230  142.4400  150.6970 C.2   150  ILE150      0.2260
     39  O        148.1470  141.4520  151.4330 O.2   150  ILE150     -0.2867
     40  CB       148.8450  142.1350  148.2450 C.3   150  ILE150      0.0252
     41  CG1      148.3510  141.5390  146.9190 C.3   150  ILE150      0.0019
     42  CG2      149.9580  141.2600  148.8230 C.3   150  ILE150      0.0019
     43  CD1      149.3050  141.7140  145.7550 C.3   150  ILE150      0.0001
     44  N        147.2430  139.3870  153.2430 N.3   154  LEU154     -0.1245
     45  CA       148.2660  138.6730  154.0100 C.3   154  LEU154      0.1561
     46  C        148.1080  138.8470  155.5300 C.2   154  LEU154      0.2260
     47  O        148.4720  137.9470  156.2900 O.2   154  LEU154     -0.2867
     48  CB       149.6670  139.0860  153.5550 C.3   154  LEU154      0.0270
     49  CG       150.0110  138.7830  152.0880 C.3   154  LEU154      0.0019
     50  CD1      151.2740  139.5130  151.6490 C.3   154  LEU154      0.0001
     51  CD2      150.1560  137.2860  151.8490 C.3   154  LEU154      0.0001
     52  N        150.2070  135.8530  157.6970 N.3   159  VAL159     -0.1231
     53  CA       151.5260  135.5070  157.1640 C.3   159  VAL159      0.1692
     54  C        152.5310  136.5460  157.6630 C.2   159  VAL159      0.2591
     55  O        153.6040  136.1950  158.1580 O.2   159  VAL159     -0.2718
     56  CB       151.5270  135.4710  155.6160 C.3   159  VAL159      0.0266
     57  CG1      152.9130  135.1180  155.0770 C.3   159  VAL159      0.0020
     58  CG2      150.4810  134.4830  155.1040 C.3   159  VAL159      0.0020
     59  N        152.1650  137.8210  157.5280 N.am  160  LEU160     -0.1980
     60  CA       153.0080  138.9380  157.9600 C.3   160  LEU160      0.1596
     61  C        152.9570  139.0950  159.4770 C.2   160  LEU160      0.2287
     62  O        151.8750  139.2000  160.0590 O.2   160  LEU160     -0.2864
     63  CB       152.5690  140.2540  157.2960 C.3   160  LEU160      0.0297
     64  CG       153.0650  140.5610  155.8760 C.3   160  LEU160      0.0022
     65  CD1      153.0200  139.3440  154.9630 C.3   160  LEU160      0.0001
     66  CD2      152.2470  141.7000  155.2820 C.3   160  LEU160      0.0001
     67  N        157.8990  144.1480  158.3120 N.3   165  LEU165     -0.1245
     68  CA       157.4000  143.4310  157.1250 C.3   165  LEU165      0.1561
     69  C        156.0210  143.9110  156.6610 C.2   165  LEU165      0.2260
     70  O        155.7420  143.9030  155.4610 O.2   165  LEU165     -0.2867
     71  CB       157.3830  141.9120  157.3500 C.3   165  LEU165      0.0270
     72  CG       158.7160  141.2040  157.0880 C.3   165  LEU165      0.0019
     73  CD1      159.7920  141.6620  158.0630 C.3   165  LEU165      0.0001
     74  CD2      158.5320  139.6940  157.1530 C.3   165  LEU165      0.0001
     75  N        155.7450  145.5510  152.9160 N.3   169  VAL169     -0.1245
     76  CA       154.7810  145.0550  151.9230 C.3   169  VAL169      0.1561
     77  C        153.7790  146.1520  151.5380 C.2   169  VAL169      0.2260
     78  O        153.4280  146.2820  150.3640 O.2   169  VAL169     -0.2867
     79  CB       154.0550  143.7750  152.4170 C.3   169  VAL169      0.0252
     80  CG1      152.9040  143.3810  151.4920 C.3   169  VAL169      0.0019
     81  CG2      155.0410  142.6180  152.5290 C.3   169  VAL169      0.0019
     82  N        155.8700  148.6080  149.1820 N.3   172  VAL172     -0.1231
     83  CA       156.1940  148.0690  147.8560 C.3   172  VAL172      0.1692
     84  C        154.9470  147.9240  146.9830 C.2   172  VAL172      0.2591
     85  O        154.9340  148.3830  145.8410 O.2   172  VAL172     -0.2718
     86  CB       156.9400  146.7130  147.9600 C.3   172  VAL172      0.0266
     87  CG1      157.0820  146.0390  146.5960 C.3   172  VAL172      0.0020
     88  CG2      158.3160  146.9150  148.5830 C.3   172  VAL172      0.0020
     89  N        153.9080  147.2960  147.5270 N.am  173  VAL173     -0.1980
     90  CA       152.7080  146.9650  146.7530 C.3   173  VAL173      0.1595
     91  C        151.8960  148.2130  146.3780 C.2   173  VAL173      0.2287
     92  O        151.3660  148.2880  145.2660 O.2   173  VAL173     -0.2864
     93  CB       151.8250  145.9300  147.4920 C.3   173  VAL173      0.0276
     94  CG1      150.5160  145.6860  146.7490 C.3   173  VAL173      0.0022
     95  CG2      152.5810  144.6160  147.6620 C.3   173  VAL173      0.0022
     96  N        154.0180  150.0090  143.5990 N.3   176  VAL176     -0.1245
     97  CA       153.9610  149.2620  142.3330 C.3   176  VAL176      0.1561
     98  C        152.5940  149.4020  141.6520 C.2   176  VAL176      0.2260
     99  O        152.5300  149.6050  140.4400 O.2   176  VAL176     -0.2867
    100  CB       154.3270  147.7650  142.5370 C.3   176  VAL176      0.0252
    101  CG1      154.0090  146.9220  141.3020 C.3   176  VAL176      0.0019
    102  CG2      155.8040  147.6250  142.8940 C.3   176  VAL176      0.0019
    103  N        151.9360  151.3250  138.1600 N.3   180  LEU180     -0.1245
    104  CA       151.3330  150.5890  137.0360 C.3   180  LEU180      0.1561
    105  C        150.0570  151.2500  136.4970 C.2   180  LEU180      0.2260
    106  O        149.8280  151.2460  135.2860 O.2   180  LEU180     -0.2867
    107  CB       151.0380  149.1340  137.4280 C.3   180  LEU180      0.0270
    108  CG       152.2550  148.2130  137.5800 C.3   180  LEU180      0.0019
    109  CD1      151.9100  146.9930  138.4220 C.3   180  LEU180      0.0001
    110  CD2      152.8030  147.7850  136.2270 C.3   180  LEU180      0.0001
@<TRIPOS>BOND
     1    23    22    2
     2    22    21    1
     3   106   105    2
     4    21    20    1
     5    21    24    1
     6    26    25    1
     7   110   108    1
     8    25    24    1
     9    25    27    1
    10   105   104    1
    11   104   107    1
    12   104   103    1
    13    15    14    2
    14   107   108    1
    15   108   109    1
    16    14    13    1
    17    13    12    1
    18    13    16    1
    19    18    16    1
    20    16    17    1
    21    99    98    2
    22   101   100    1
    23    34    33    1
    24    98    97    1
    25    17    19    1
    26    33    35    1
    27    33    32    1
    28    97   100    1
    29    97    96    1
    30   100   102    1
    31    28    29    1
    32    32    29    1
    33     4     3    2
    34    29    30    1
    35     3     2    1
    36    92    91    2
    37    30    31    2
    38     2     1    1
    39     2     5    1
    40    43    41    1
    41    85    84    2
    42    10     8   ar
    43    10    11   ar
    44     8     6   ar
    45    91    90    1
    46    11     9   ar
    47    87    86    1
    48     6     5    1
    49     6     7   ar
    50    94    93    1
    51    90    93    1
    52    90    89    1
    53    41    40    1
    54    84    89   am
    55    84    83    1
    56     9     7   ar
    57    93    95    1
    58    83    86    1
    59    83    82    1
    60    86    88    1
    61    40    42    1
    62    40    37    1
    63    36    37    1
    64    37    38    1
    65    78    77    2
    66    38    39    2
    67    80    79    1
    68    77    76    1
    69    50    49    1
    70    51    49    1
    71    76    79    1
    72    76    75    1
    73    49    48    1
    74    79    81    1
    75    44    45    1
    76    48    45    1
    77    45    46    1
    78    65    64    1
    79    57    56    1
    80    58    56    1
    81    66    64    1
    82    70    69    2
    83    46    47    2
    84    56    53    1
    85    64    63    1
    86    69    68    1
    87    72    74    1
    88    72    71    1
    89    72    73    1
    90    68    71    1
    91    68    67    1
    92    53    54    1
    93    53    52    1
    94    63    60    1
    95    59    54   am
    96    59    60    1
    97    54    55    2
    98    60    61    1
    99    61    62    2
