@<TRIPOS>MOLECULE
tmp/5tjhD00.pdb
 95 91 0 0 0
SMALL
GASTEIGER

@<TRIPOS>ATOM
      1  N          6.5320  -12.6260   26.5280 N.3   230  ILE230     -0.1245
      2  CA         6.6850  -11.2720   27.0640 C.3   230  ILE230      0.1561
      3  C          5.9800  -10.2570   26.1810 C.2   230  ILE230      0.2260
      4  O          5.2610   -9.3830   26.6780 O.2   230  ILE230     -0.2867
      5  CB         8.1710  -10.9160   27.2360 C.3   230  ILE230      0.0252
      6  CG1        8.8130  -11.8330   28.2710 C.3   230  ILE230      0.0019
      7  CG2        8.2940   -9.4390   27.7130 C.3   230  ILE230      0.0019
      8  CD1       10.3210  -11.7030   28.3400 C.3   230  ILE230      0.0001
      9  N          7.4720  -15.9940   32.9870 N.3   264  PHE264     -0.1241
     10  CA         7.6710  -15.1030   31.8420 C.3   264  PHE264      0.1605
     11  C          6.3760  -14.4160   31.4380 C.2   264  PHE264      0.2264
     12  O          6.1110  -14.2260   30.2540 O.2   264  PHE264     -0.2867
     13  CB         8.2770  -15.8250   30.6260 C.3   264  PHE264      0.0534
     14  CG         9.7730  -15.7070   30.5430 C.ar  264  PHE264     -0.0203
     15  CD1       10.5850  -16.2750   31.5150 C.ar  264  PHE264     -0.0042
     16  CD2       10.3660  -14.9880   29.5200 C.ar  264  PHE264     -0.0042
     17  CE1       11.9750  -16.1390   31.4560 C.ar  264  PHE264     -0.0003
     18  CE2       11.7550  -14.8470   29.4580 C.ar  264  PHE264     -0.0003
     19  CZ        12.5570  -15.4200   30.4250 C.ar  264  PHE264     -0.0000
     20  N          6.4520   -5.4060   31.1560 N.3   268  SER268     -0.1217
     21  CA         7.5910   -4.5130   31.3520 C.3   268  SER268      0.1889
     22  C          7.5850   -3.4790   30.2330 C.2   268  SER268      0.2288
     23  O          6.7520   -3.5080   29.3250 O.2   268  SER268     -0.2866
     24  CB         8.9340   -5.2700   31.3650 C.3   268  SER268      0.2089
     25  OG         9.2230   -5.8120   30.0570 O.3   268  SER268     -0.2183
     26  N          9.8640   -3.5120   28.1300 N.3   270  GLY270     -0.1210
     27  CA        10.2710   -4.3410   27.0090 C.3   270  GLY270      0.1956
     28  C         11.4450   -5.2180   27.3850 C.2   270  GLY270      0.2612
     29  O         12.3040   -4.8440   28.1830 O.2   270  GLY270     -0.2717
     30  N         11.5000   -6.4050   26.7680 N.am  271  PHE271     -0.1962
     31  CA        12.6150   -7.3060   27.0330 C.3   271  PHE271      0.1771
     32  C         13.8970   -6.7920   26.3890 C.2   271  PHE271      0.2620
     33  O         13.8810   -6.0430   25.4050 O.2   271  PHE271     -0.2715
     34  CB        12.3170   -8.7380   26.5620 C.3   271  PHE271      0.0574
     35  CG        12.0200   -8.8870   25.0730 C.ar  271  PHE271     -0.0200
     36  CD1       13.0380   -8.8450   24.1320 C.ar  271  PHE271     -0.0042
     37  CD2       10.7210   -9.1350   24.6260 C.ar  271  PHE271     -0.0042
     38  CE1       12.7730   -9.0220   22.7680 C.ar  271  PHE271     -0.0003
     39  CE2       10.4550   -9.3130   23.2560 C.ar  271  PHE271     -0.0003
     40  CZ        11.4930   -9.2380   22.3370 C.ar  271  PHE271     -0.0000
     41  N         15.0170   -7.1840   26.9780 N.am  272  GLY272     -0.1954
     42  CA        16.3100   -6.7980   26.4760 C.3   272  GLY272      0.1869
     43  C         17.2790   -7.9390   26.6210 C.2   272  GLY272      0.2309
     44  O         16.8520   -9.0810   26.8170 O.2   272  GLY272     -0.2863
     45  N         17.5090  -12.3830   23.1330 N.3   276  PHE276     -0.1241
     46  CA        16.1200  -12.4750   22.6750 C.3   276  PHE276      0.1605
     47  C         15.9260  -11.8250   21.3110 C.2   276  PHE276      0.2264
     48  O         15.4720  -12.4750   20.3590 O.2   276  PHE276     -0.2867
     49  CB        15.1670  -11.8470   23.6900 C.3   276  PHE276      0.0534
     50  CG        14.7400  -12.7790   24.7720 C.ar  276  PHE276     -0.0203
     51  CD1       15.0560  -14.1150   24.7110 C.ar  276  PHE276     -0.0042
     52  CD2       14.0020  -12.3260   25.8340 C.ar  276  PHE276     -0.0042
     53  CE1       14.6660  -14.9810   25.7140 C.ar  276  PHE276     -0.0003
     54  CE2       13.5950  -13.1940   26.8340 C.ar  276  PHE276     -0.0003
     55  CZ        13.9370  -14.5160   26.7760 C.ar  276  PHE276     -0.0000
     56  N         19.7520   -4.0520   31.5780 N.3   337  PHE337     -0.1227
     57  CA        18.5820   -4.5800   30.8740 C.3   337  PHE337      0.1736
     58  C         17.6570   -5.3550   31.8060 C.2   337  PHE337      0.2595
     59  O         16.4820   -5.5270   31.4800 O.2   337  PHE337     -0.2718
     60  CB        19.0000   -5.4360   29.6640 C.3   337  PHE337      0.0547
     61  CG        19.3180   -6.8770   29.9760 C.ar  337  PHE337     -0.0202
     62  CD1       18.3290   -7.8480   29.9560 C.ar  337  PHE337     -0.0042
     63  CD2       20.6210   -7.2760   30.2210 C.ar  337  PHE337     -0.0042
     64  CE1       18.6350   -9.1810   30.2070 C.ar  337  PHE337     -0.0003
     65  CE2       20.9330   -8.6170   30.4730 C.ar  337  PHE337     -0.0003
     66  CZ        19.9400   -9.5620   30.4740 C.ar  337  PHE337     -0.0000
     67  N         18.1600   -5.7990   32.9560 N.am  338  LYS338     -0.1980
     68  CA        17.3560   -6.4310   33.9930 C.3   338  LYS338      0.1596
     69  C         18.0690   -6.1970   35.3180 C.2   338  LYS338      0.2287
     70  O         19.2040   -5.7110   35.3490 O.2   338  LYS338     -0.2864
     71  CB        17.1660   -7.9260   33.7280 C.3   338  LYS338      0.0298
     72  CG        18.4710   -8.6810   33.7930 C.3   338  LYS338      0.0038
     73  CD        18.2670  -10.1900   33.7860 C.3   338  LYS338      0.0206
     74  CE        19.6070  -10.8660   33.9470 C.3   338  LYS338      0.1093
     75  NZ        19.4940  -12.3410   33.9540 N.3   338  LYS338     -0.1314
     76  N         14.1380   -3.0700   37.3320 N.3   409  GLU409     -0.1245
     77  CA        13.4530   -3.5060   38.5500 C.3   409  GLU409      0.1567
     78  C         14.3900   -3.7590   39.7360 C.2   409  GLU409      0.2260
     79  O         14.1870   -4.7050   40.4900 O.2   409  GLU409     -0.2867
     80  CB        12.6110   -4.7480   38.2330 C.3   409  GLU409      0.0388
     81  CG        13.3810   -6.0570   37.9390 C.3   409  GLU409      0.1160
     82  CD        14.0090   -6.1360   36.5230 C.2   409  GLU409      0.3649
     83  OE1       13.9470   -5.1530   35.7370 O.co2 409  GLU409     -0.2457
     84  OE2       14.5740   -7.2090   36.2010 O.co2 409  GLU409     -0.2457
     85  N          8.2640   -1.0450   35.4480 N.3   435  ARG435     -0.1245
     86  CA         8.5210   -2.4170   35.8660 C.3   435  ARG435      0.1563
     87  C          7.5390   -2.9150   36.9020 C.2   435  ARG435      0.2260
     88  O          7.6950   -4.0460   37.3790 O.2   435  ARG435     -0.2867
     89  CB         9.9340   -2.5590   36.4400 C.3   435  ARG435      0.0307
     90  CG        11.0390   -2.2980   35.4260 C.3   435  ARG435      0.0489
     91  CD        11.1720   -3.5120   34.4770 C.3   435  ARG435      0.2205
     92  NE        12.1600   -3.2420   33.4440 N.pl3 435  ARG435     -0.0865
     93  CZ        12.7270   -4.1700   32.6830 C.cat 435  ARG435      0.5346
     94  NH1       12.4110   -5.4490   32.8500 N.pl3 435  ARG435      0.1354
     95  NH2       13.6180   -3.8090   31.7630 N.pl3 435  ARG435      0.1354
@<TRIPOS>BOND
     1    48    47    2
     2    47    46    1
     3    40    38   ar
     4    40    39   ar
     5    46    45    1
     6    46    49    1
     7    38    36   ar
     8    39    37   ar
     9    49    50    1
    10    36    35   ar
    11    37    35   ar
    12    51    50   ar
    13    51    53   ar
    14    50    52   ar
    15    35    34    1
    16    33    32    2
    17    53    55   ar
    18    52    54   ar
    19     3     4    2
    20     3     2    1
    21    32    41   am
    22    32    31    1
    23    42    43    1
    24    42    41    1
    25     1     2    1
    26    34    31    1
    27    43    44    2
    28    30    31    1
    29    30    28   am
    30    55    54   ar
    31    27    28    1
    32    27    26    1
    33     2     5    1
    34     5     7    1
    35     5     6    1
    36    28    29    2
    37     6     8    1
    38    23    22    2
    39    18    16   ar
    40    18    19   ar
    41    16    14   ar
    42    60    61    1
    43    60    57    1
    44    62    61   ar
    45    62    64   ar
    46    61    63   ar
    47    25    24    1
    48    64    66   ar
    49    63    65   ar
    50    22    21    1
    51    12    11    2
    52    19    17   ar
    53    65    66   ar
    54    14    13    1
    55    14    15   ar
    56    13    10    1
    57    57    56    1
    58    57    58    1
    59    20    21    1
    60    21    24    1
    61    11    10    1
    62    17    15   ar
    63    59    58    2
    64    95    93    1
    65    58    67   am
    66    10     9    1
    67    93    94    1
    68    93    92    2
    69    67    68    1
    70    92    91    1
    71    71    72    1
    72    71    68    1
    73    73    72    1
    74    73    74    1
    75    74    75    1
    76    68    69    1
    77    91    90    1
    78    69    70    2
    79    90    89    1
    80    85    86    1
    81    83    82   ar
    82    86    89    1
    83    86    87    1
    84    84    82   ar
    85    82    81    1
    86    87    88    2
    87    76    77    1
    88    81    80    1
    89    80    77    1
    90    77    78    1
    91    78    79    2
