@<TRIPOS>MOLECULE
tmp/5tjkA00.pdb
 192 187 0 0 0
SMALL
GASTEIGER

@<TRIPOS>ATOM
      1  N         22.8960   22.3860    9.0080 N.3    69  TYR69      -0.1241
      2  CA        22.5650   21.9840    7.6400 C.3    69  TYR69       0.1605
      3  C         23.4120   22.6730    6.5820 C.2    69  TYR69       0.2264
      4  O         23.4190   22.2360    5.4310 O.2    69  TYR69      -0.2867
      5  CB        21.0800   22.1860    7.3280 C.3    69  TYR69       0.0534
      6  CG        20.2030   21.1090    7.9120 C.ar   69  TYR69      -0.0201
      7  CD1       19.7050   20.0910    7.1140 C.ar   69  TYR69      -0.0009
      8  CD2       19.8800   21.0950    9.2700 C.ar   69  TYR69      -0.0009
      9  CE1       18.9090   19.0850    7.6390 C.ar   69  TYR69       0.0417
     10  CE2       19.0760   20.0940    9.8010 C.ar   69  TYR69       0.0417
     11  CZ        18.5950   19.0930    8.9730 C.ar   69  TYR69       0.1957
     12  OH        17.7950   18.0840    9.4770 O.3    69  TYR69      -0.2866
     13  N         10.3130   29.1170    5.4150 N.3   128  ARG128     -0.1245
     14  CA        10.4450   28.7840    3.9800 C.3   128  ARG128      0.1563
     15  C          9.3260   29.4470    3.1610 C.2   128  ARG128      0.2260
     16  O          9.5930   30.1630    2.1840 O.2   128  ARG128     -0.2867
     17  CB        10.4300   27.2670    3.7790 C.3   128  ARG128      0.0307
     18  CG        10.5730   26.7950    2.3370 C.3   128  ARG128      0.0489
     19  CD         9.4150   25.9090    1.8540 C.3   128  ARG128      0.2205
     20  NE         9.2030   24.6560    2.5970 N.pl3 128  ARG128     -0.0865
     21  CZ         9.9810   23.5660    2.6000 C.cat 128  ARG128      0.5346
     22  NH1        9.6150   22.5070    3.3230 N.pl3 128  ARG128      0.1354
     23  NH2       11.1290   23.5080    1.9270 N.pl3 128  ARG128      0.1354
     24  N         14.9100   20.7380   -0.5610 N.3   150  ASP150     -0.1239
     25  CA        15.6700   20.5830    0.6740 C.3   150  ASP150      0.1674
     26  C         17.1730   20.3970    0.3640 C.2   150  ASP150      0.2266
     27  O         17.5550   19.8580   -0.6760 O.2   150  ASP150     -0.2867
     28  CB        15.1600   19.3580    1.4400 C.3   150  ASP150      0.1410
     29  CG        13.7930   19.5770    2.1220 C.2   150  ASP150      0.3668
     30  OD1       13.2550   18.5730    2.6190 O.co2 150  ASP150     -0.2456
     31  OD2       13.2900   20.6990    2.1900 O.co2 150  ASP150     -0.2456
     32  N         19.5100   18.6600    2.3300 N.3   152  ASP152     -0.1225
     33  CA        20.1200   17.4000    2.7940 C.3   152  ASP152      0.1805
     34  C         19.8810   16.2780    1.7940 C.2   152  ASP152      0.2597
     35  O         19.3050   15.2290    2.0920 O.2   152  ASP152     -0.2718
     36  CB        19.6350   17.0170    4.2080 C.3   152  ASP152      0.1424
     37  CG        18.1370   16.9650    4.3410 C.2   152  ASP152      0.3668
     38  OD1       17.3860   17.6950    3.6640 O.co2 152  ASP152     -0.2456
     39  OD2       17.6930   16.1380    5.1500 O.co2 152  ASP152     -0.2456
     40  N         20.3620   16.5400    0.5850 N.am  153  MET153     -0.1979
     41  CA        20.0240   15.8020   -0.6130 C.3   153  MET153      0.1605
     42  C         21.1990   15.8640   -1.5760 C.2   153  MET153      0.2287
     43  O         22.0630   16.7310   -1.4690 O.2   153  MET153     -0.2864
     44  CB        18.8280   16.4540   -1.3130 C.3   153  MET153      0.0413
     45  CG        17.5380   16.5730   -0.5180 C.3   153  MET153      0.0598
     46  SD        16.7570   14.9670   -0.3050 S.3   153  MET153     -0.1393
     47  CE        15.5780   15.3080    0.9890 C.3   153  MET153      0.0692
     48  N          5.5300   11.8280   -2.8800 N.3   172  HIS172     -0.1227
     49  CA         6.3390   11.4300   -1.7170 C.3   172  HIS172      0.1737
     50  C          6.7050    9.9580   -1.8700 C.2   172  HIS172      0.2438
     51  O          5.8340    9.1630   -2.2050 O.2   172  HIS172     -0.2733
     52  CB         5.5100   11.6750   -0.4620 C.3   172  HIS172      0.0758
     53  CG         6.2650   11.6010    0.8260 C.ar  172  HIS172      0.0818
     54  ND1        6.8420   10.4400    1.2870 N.ar  172  HIS172     -0.2268
     55  CD2        6.4500   12.5250    1.7910 C.ar  172  HIS172      0.1154
     56  CE1        7.3820   10.6570    2.4720 C.ar  172  HIS172      0.1986
     57  NE2        7.1560   11.9180    2.8020 N.ar  172  HIS172     -0.2212
     58  N          8.0010    9.6020   -1.6680 N.am  173  PRO173     -0.2718
     59  CA         8.4610    8.2560   -1.9770 C.3   173  PRO173      0.1535
     60  C          7.9180    7.2020   -1.0270 C.2   173  PRO173      0.2599
     61  O          7.8670    6.0180   -1.3770 O.2   173  PRO173     -0.2715
     62  CB         9.9930    8.3880   -1.8590 C.3   173  PRO173      0.0310
     63  CG        10.2100    9.4980   -0.8870 C.3   173  PRO173      0.0237
     64  CD         9.1230   10.4660   -1.2400 C.3   173  PRO173      0.0939
     65  N          7.5600    7.6220    0.1730 N.am  174  GLY174     -0.1941
     66  CA         6.8820    6.7760    1.1440 C.3   174  GLY174      0.2014
     67  C          5.4510    6.3550    0.8670 C.2   174  GLY174      0.2638
     68  O          4.9920    5.3820    1.4500 O.2   174  GLY174     -0.2714
     69  N          4.7410    7.0790    0.0000 N.am  175  PHE175     -0.1973
     70  CA         3.2760    6.9720   -0.0890 C.3   175  PHE175      0.1639
     71  C          2.6840    6.8590   -1.4930 C.2   175  PHE175      0.2290
     72  O          1.4540    6.8710   -1.6370 O.2   175  PHE175     -0.2864
     73  CB         2.6420    8.1720    0.6260 C.3   175  PHE175      0.0560
     74  CG         3.0000    8.2550    2.0690 C.ar  175  PHE175     -0.0200
     75  CD1        3.9810    9.1480    2.5100 C.ar  175  PHE175     -0.0042
     76  CD2        2.3860    7.4140    2.9960 C.ar  175  PHE175     -0.0042
     77  CE1        4.3170    9.2310    3.8540 C.ar  175  PHE175     -0.0003
     78  CE2        2.7220    7.4890    4.3480 C.ar  175  PHE175     -0.0003
     79  CZ         3.6920    8.3950    4.7740 C.ar  175  PHE175     -0.0000
     80  N         -0.6780   10.7300    5.2310 N.3   184  THR184     -0.1218
     81  CA        -0.5200   11.4830    6.4840 C.3   184  THR184      0.1862
     82  C         -0.8650   12.9660    6.3420 C.2   184  THR184      0.2287
     83  O         -0.1390   13.8440    6.8270 O.2   184  THR184     -0.2866
     84  CB         0.8960   11.3270    7.0630 C.3   184  THR184      0.1770
     85  OG1        1.8610   11.7760    6.1190 O.3   184  THR184     -0.2211
     86  CG2        1.1580    9.8750    7.4050 C.3   184  THR184      0.0375
     87  N         -0.0240   12.2060   -2.1500 N.3   203  TYR203     -0.1241
     88  CA         0.7160   12.8150   -1.0710 C.3   203  TYR203      0.1605
     89  C          1.9840   13.4330   -1.6160 C.2   203  TYR203      0.2264
     90  O          2.9040   12.7340   -2.0490 O.2   203  TYR203     -0.2867
     91  CB         1.0450   11.8130    0.0600 C.3   203  TYR203      0.0534
     92  CG         1.4780   12.5540    1.3150 C.ar  203  TYR203     -0.0201
     93  CD1        2.8280   12.6940    1.6400 C.ar  203  TYR203     -0.0009
     94  CD2        0.5480   13.1860    2.1280 C.ar  203  TYR203     -0.0009
     95  CE1        3.2200   13.4020    2.7750 C.ar  203  TYR203      0.0417
     96  CE2        0.9230   13.9030    3.2560 C.ar  203  TYR203      0.0417
     97  CZ         2.2590   14.0170    3.5700 C.ar  203  TYR203      0.1957
     98  OH         2.6380   14.7460    4.6780 O.3   203  TYR203     -0.2866
     99  N          5.4140   15.9550   -1.5250 N.3   205  LEU205     -0.1231
    100  CA         6.5210   16.3010   -0.6300 C.3   205  LEU205      0.1693
    101  C          6.6680   17.7720   -0.3990 C.2   205  LEU205      0.2593
    102  O          6.6000   18.5760   -1.3320 O.2   205  LEU205     -0.2718
    103  CB         7.8270   15.9380   -1.2950 C.3   205  LEU205      0.0284
    104  CG         8.1650   14.5040   -1.1880 C.3   205  LEU205      0.0019
    105  CD1        8.9370   14.1180   -2.4340 C.3   205  LEU205      0.0001
    106  CD2        8.9670   14.2470    0.0720 C.3   205  LEU205      0.0001
    107  N          6.9660   18.1530    0.8340 N.am  206  GLY206     -0.1942
    108  CA         7.3430   19.5360    1.0760 C.3   206  GLY206      0.2014
    109  C          8.6990   19.8920    0.4860 C.2   206  GLY206      0.2639
    110  O          8.9540   21.0750    0.2270 O.2   206  GLY206     -0.2714
    111  N          9.5520   18.8930    0.2700 N.am  207  GLY207     -0.1954
    112  CA        10.9480   19.0520   -0.1670 C.3   207  GLY207      0.1869
    113  C         11.2680   19.1780   -1.6390 C.2   207  GLY207      0.2309
    114  O         12.4360   19.2260   -2.0060 O.2   207  GLY207     -0.2863
    115  N          2.4590   17.6470    9.7200 N.3   239  TRP239     -0.1227
    116  CA         3.7160   17.7310    8.9750 C.3   239  TRP239      0.1737
    117  C          4.0060   19.1540    8.4820 C.2   239  TRP239      0.2595
    118  O          4.6480   19.3730    7.4480 O.2   239  TRP239     -0.2718
    119  CB         3.7390   16.6780    7.8550 C.3   239  TRP239      0.0564
    120  CG         3.8580   15.2850    8.4180 C.ar  239  TRP239      0.0003
    121  CD1        2.9130   14.3190    8.4240 C.ar  239  TRP239      0.0946
    122  CD2        4.9910   14.7390    9.1090 C.ar  239  TRP239      0.0152
    123  NE1        3.3770   13.1940    9.0680 N.ar  239  TRP239     -0.2442
    124  CE2        4.6570   13.4230    9.4810 C.ar  239  TRP239      0.0810
    125  CE3        6.2570   15.2270    9.4240 C.ar  239  TRP239      0.0012
    126  CZ2        5.5480   12.5840   10.1750 C.ar  239  TRP239      0.0191
    127  CZ3        7.1530   14.3820   10.1050 C.ar  239  TRP239      0.0001
    128  CH2        6.7870   13.0800   10.4620 C.ar  239  TRP239      0.0015
    129  N          3.5610   20.1240    9.2720 N.am  240  HIS240     -0.1961
    130  CA         4.0410   21.4970    9.1430 C.3   240  HIS240      0.1787
    131  C          3.7580   22.0290    7.7280 C.2   240  HIS240      0.2620
    132  O          2.6430   21.8330    7.2390 O.2   240  HIS240     -0.2715
    133  CB         5.5240   21.5610    9.5630 C.3   240  HIS240      0.0785
    134  CG         5.8100   20.7550   10.7930 C.ar  240  HIS240      0.0821
    135  ND1        5.2460   21.0460   12.0150 N.ar  240  HIS240     -0.2267
    136  CD2        6.5210   19.6150   10.9650 C.ar  240  HIS240      0.1154
    137  CE1        5.6340   20.1460   12.9020 C.ar  240  HIS240      0.1986
    138  NE2        6.4050   19.2650   12.2910 N.ar  240  HIS240     -0.2212
    139  N          4.6980   22.6970    7.0670 N.am  241  ASP241     -0.1957
    140  CA         4.3480   23.2800    5.7700 C.3   241  ASP241      0.1840
    141  C          3.9890   22.2220    4.7210 C.2   241  ASP241      0.2621
    142  O          3.2020   22.5200    3.8130 O.2   241  ASP241     -0.2715
    143  CB         5.3400   24.3520    5.2940 C.3   241  ASP241      0.1450
    144  CG         6.7060   23.8350    4.9550 C.2   241  ASP241      0.3671
    145  OD1        6.9910   22.6220    5.0670 O.co2 241  ASP241     -0.2456
    146  OD2        7.5310   24.7040    4.5740 O.co2 241  ASP241     -0.2456
    147  N          4.4700   20.9900    4.8720 N.am  242  GLU242     -0.1977
    148  CA         4.0760   19.9200    3.9430 C.3   242  GLU242      0.1602
    149  C          2.5850   19.6250    4.0070 C.2   242  GLU242      0.2287
    150  O          1.9620   19.3350    2.9680 O.2   242  GLU242     -0.2864
    151  CB         4.8790   18.6730    4.2180 C.3   242  GLU242      0.0415
    152  CG         4.5140   17.4470    3.4010 C.3   242  GLU242      0.1163
    153  CD         5.5250   16.3450    3.6260 C.2   242  GLU242      0.3649
    154  OE1        6.5900   16.3890    2.9770 O.co2 242  GLU242     -0.2457
    155  OE2        5.2390   15.4270    4.4340 O.co2 242  GLU242     -0.2457
    156  N         12.5270   12.4590   -5.8860 N.3   263  LEU263     -0.1245
    157  CA        12.9360   12.5880   -4.4810 C.3   263  LEU263      0.1561
    158  C         12.7570   11.2400   -3.8100 C.2   263  LEU263      0.2260
    159  O         11.6490   10.8160   -3.5000 O.2   263  LEU263     -0.2867
    160  CB        12.1780   13.6960   -3.7200 C.3   263  LEU263      0.0270
    161  CG        12.9380   14.1630   -2.4650 C.3   263  LEU263      0.0019
    162  CD1       12.4610   15.5120   -1.9420 C.3   263  LEU263      0.0001
    163  CD2       12.9030   13.1460   -1.3310 C.3   263  LEU263      0.0001
    164  N         14.6550    8.0720   -1.0950 N.3   265  ASP265     -0.1239
    165  CA        15.6110    7.7420   -0.0340 C.3   265  ASP265      0.1674
    166  C         15.9780    6.2740   -0.2090 C.2   265  ASP265      0.2266
    167  O         15.1680    5.4030    0.1350 O.2   265  ASP265     -0.2867
    168  CB        14.9930    8.0080    1.3360 C.3   265  ASP265      0.1410
    169  CG        15.9710    7.7530    2.4950 C.2   265  ASP265      0.3668
    170  OD1       16.8870    6.9300    2.3500 O.co2 265  ASP265     -0.2456
    171  OD2       15.8330    8.4210    3.5260 O.co2 265  ASP265     -0.2456
    172  N         16.2650    4.0320    3.0850 N.3   268  LEU268     -0.1231
    173  CA        14.9810    3.6660    3.6680 C.3   268  LEU268      0.1693
    174  C         14.1010    2.7990    2.7610 C.2   268  LEU268      0.2591
    175  O         13.3040    2.0180    3.2520 O.2   268  LEU268     -0.2718
    176  CB        14.2300    4.9480    4.0870 C.3   268  LEU268      0.0284
    177  CG        13.3750    5.0310    5.3270 C.3   268  LEU268      0.0019
    178  CD1       14.1530    4.6190    6.5760 C.3   268  LEU268      0.0001
    179  CD2       12.8850    6.4640    5.4680 C.3   268  LEU268      0.0001
    180  N         14.2180    2.9620    1.4360 N.am  269  LEU269     -0.1980
    181  CA        13.2470    2.4070    0.4920 C.3   269  LEU269      0.1596
    182  C         13.8470    1.5790   -0.6480 C.2   269  LEU269      0.2287
    183  O         13.1130    1.0480   -1.4860 O.2   269  LEU269     -0.2864
    184  CB        12.4080    3.5670   -0.0910 C.3   269  LEU269      0.0297
    185  CG        11.5610    4.3610    0.8930 C.3   269  LEU269      0.0022
    186  CD1       11.1910    5.7200    0.3120 C.3   269  LEU269      0.0001
    187  CD2       10.3120    3.5770    1.2540 C.3   269  LEU269      0.0001
    188  N         17.9710   11.4790   -0.6970 N.3   282  ALA282     -0.1245
    189  CA        18.3310   11.8260    0.6850 C.3   282  ALA282      0.1562
    190  C         19.7630   11.4070    0.9820 C.2   282  ALA282      0.2260
    191  O         20.2020   10.3500    0.5690 O.2   282  ALA282     -0.2867
    192  CB        17.3690   11.1600    1.6590 C.3   282  ALA282      0.0290
@<TRIPOS>BOND
     1   156   157    1
     2   157   158    1
     3   157   160    1
     4   158   159    2
     5   160   161    1
     6    48    49    1
     7   161   162    1
     8   161   163    1
     9   105   104    1
    10    51    50    2
    11    87    88    1
    12    90    89    2
    13   114   113    2
    14    59    62    1
    15    59    58    1
    16    59    60    1
    17    50    49    1
    18    50    58   am
    19    62    63    1
    20    49    52    1
    21    58    64    1
    22   113   112    1
    23    72    71    2
    24    89    88    1
    25    42    43    2
    26    42    41    1
    27    99   100    1
    28    71    70    1
    29   183   182    2
    30    61    60    2
    31   102   101    2
    32    44    41    1
    33    44    45    1
    34   103   104    1
    35   103   100    1
    36    64    63    1
    37   104   106    1
    38   164   165    1
    39    88    91    1
    40    60    65   am
    41   188   189    1
    42    27    26    2
    43   182   181    1
    44   100   101    1
    45    41    40    1
    46    24    25    1
    47    45    46    1
    48    52    53    1
    49   101   107   am
    50    46    47    1
    51   166   165    1
    52   166   167    2
    53   112   111    1
    54   184   181    1
    55   184   185    1
    56    70    69    1
    57    70    73    1
    58   165   168    1
    59    69    67   am
    60    91    92    1
    61    65    66    1
    62   110   109    2
    63   111   109   am
    64   186   185    1
    65    26    25    1
    66   109   108    1
    67   181   180    1
    68   191   190    2
    69    40    34   am
    70    73    74    1
    71    25    28    1
    72   189   190    1
    73   189   192    1
    74    53    54   ar
    75    53    55   ar
    76   107   108    1
    77    67    66    1
    78    67    68    2
    79   185   187    1
    80    54    56   ar
    81    92    93   ar
    82    92    94   ar
    83   168   169    1
    84   180   174   am
    85    28    29    1
    86    93    95   ar
    87    55    57   ar
    88    34    35    2
    89    34    33    1
    90    19    18    1
    91    19    20    1
    92    23    21    1
    93    74    75   ar
    94    74    76   ar
    95    29    31   ar
    96    29    30   ar
    97    94    96   ar
    98    16    15    2
    99    32    33    1
   100    18    17    1
   101   170   169   ar
   102    56    57   ar
   103   169   171   ar
   104    75    77   ar
   105    20    21    2
   106    21    22    1
   107   174   175    2
   108   174   173    1
   109    95    97   ar
   110    33    36    1
   111   150   149    2
   112   154   153   ar
   113    76    78   ar
   114   172   173    1
   115    15    14    1
   116    96    97   ar
   117   152   153    1
   118   152   151    1
   119    97    98    1
   120   153   155   ar
   121    38    37   ar
   122   173   176    1
   123    17    14    1
   124   142   141    2
   125    77    79   ar
   126   148   149    1
   127   148   151    1
   128   148   147    1
   129    14    13    1
   130   176   177    1
   131    36    37    1
   132    37    39   ar
   133    78    79   ar
   134   146   144   ar
   135   141   147   am
   136   141   140    1
   137   144   145   ar
   138   144   143    1
   139    80    81    1
   140   143   140    1
   141   177   179    1
   142   177   178    1
   143     4     3    2
   144   140   139    1
   145    85    84    1
   146    82    81    1
   147    82    83    2
   148    81    84    1
   149     3     2    1
   150    84    86    1
   151   139   131   am
   152     7     9   ar
   153     7     6   ar
   154   132   131    2
   155     5     2    1
   156     5     6    1
   157   118   117    2
   158     9    11   ar
   159     2     1    1
   160   131   130    1
   161   119   120    1
   162   119   116    1
   163     6     8   ar
   164   120   121   ar
   165   120   122   ar
   166   121   123   ar
   167   117   116    1
   168   117   129   am
   169    11    12    1
   170    11    10   ar
   171   116   115    1
   172   123   124   ar
   173   122   125   ar
   174   122   124   ar
   175   130   129    1
   176   130   133    1
   177     8    10   ar
   178   125   127   ar
   179   124   126   ar
   180   133   134    1
   181   127   128   ar
   182   126   128   ar
   183   134   136   ar
   184   134   135   ar
   185   136   138   ar
   186   135   137   ar
   187   138   137   ar
