@<TRIPOS>MOLECULE
tmp/5tjlA00.pdb
 169 165 0 0 0
SMALL
GASTEIGER

@<TRIPOS>ATOM
      1  N         11.2410   54.1250   39.3280 N.3   126  ASP126     -0.1239
      2  CA        10.4570   54.2390   40.5670 C.3   126  ASP126      0.1674
      3  C          8.9670   54.3890   40.2220 C.2   126  ASP126      0.2266
      4  O          8.6130   54.9840   39.1970 O.2   126  ASP126     -0.2867
      5  CB        10.9240   55.4480   41.4080 C.3   126  ASP126      0.1410
      6  CG        12.3090   55.2440   42.0540 C.2   126  ASP126      0.3668
      7  OD1       12.7550   54.0990   42.2280 O.co2 126  ASP126     -0.2456
      8  OD2       12.9400   56.2510   42.4020 O.co2 126  ASP126     -0.2456
      9  N          6.5130   55.9570   42.1130 N.3   128  ASP128     -0.1225
     10  CA         5.9060   57.2240   42.5460 C.3   128  ASP128      0.1805
     11  C          6.2400   58.3270   41.5430 C.2   128  ASP128      0.2597
     12  O          6.8660   59.3370   41.8610 O.2   128  ASP128     -0.2718
     13  CB         6.3090   57.5790   44.0010 C.3   128  ASP128      0.1424
     14  CG         7.8280   57.6170   44.2240 C.2   128  ASP128      0.3668
     15  OD1        8.5680   56.8550   43.5670 O.co2 128  ASP128     -0.2456
     16  OD2        8.2820   58.4030   45.0650 O.co2 128  ASP128     -0.2456
     17  N          5.8170   58.0900   40.3030 N.am  129  MET129     -0.1979
     18  CA         6.1450   58.9560   39.1790 C.3   129  MET129      0.1605
     19  C          4.9860   58.9380   38.2040 C.2   129  MET129      0.2287
     20  O          4.0920   58.0970   38.3020 O.2   129  MET129     -0.2864
     21  CB         7.4080   58.4670   38.4520 C.3   129  MET129      0.0413
     22  CG         8.6870   58.4420   39.2730 C.3   129  MET129      0.0598
     23  SD         9.3200   60.0730   39.7210 S.3   129  MET129     -0.1393
     24  CE        10.7630   59.5720   40.6660 C.3   129  MET129      0.0692
     25  N         20.7240   63.2820   36.9370 N.3   148  HIS148     -0.1227
     26  CA        19.9680   63.7520   38.0880 C.3   148  HIS148      0.1737
     27  C         19.6160   65.2460   37.9220 C.2   148  HIS148      0.2438
     28  O         20.4990   66.0640   37.6630 O.2   148  HIS148     -0.2733
     29  CB        20.7920   63.4840   39.3540 C.3   148  HIS148      0.0758
     30  CG        20.0190   63.5540   40.6320 C.ar  148  HIS148      0.0818
     31  ND1       19.5000   64.7310   41.1220 N.ar  148  HIS148     -0.2268
     32  CD2       19.7200   62.6040   41.5470 C.ar  148  HIS148      0.1154
     33  CE1       18.9090   64.5070   42.2820 C.ar  148  HIS148      0.1986
     34  NE2       19.0230   63.2200   42.5610 N.ar  148  HIS148     -0.2212
     35  N         18.3170   65.5980   38.0440 N.am  149  PRO149     -0.2718
     36  CA        17.8590   66.9600   37.7660 C.3   149  PRO149      0.1535
     37  C         18.3680   68.0470   38.7220 C.2   149  PRO149      0.2599
     38  O         18.3820   69.2180   38.3580 O.2   149  PRO149     -0.2715
     39  CB        16.3370   66.8320   37.8700 C.3   149  PRO149      0.0310
     40  CG        16.1210   65.7340   38.8490 C.3   149  PRO149      0.0237
     41  CD        17.1930   64.7460   38.4870 C.3   149  PRO149      0.0939
     42  N         18.7090   67.6670   39.9440 N.am  150  GLY150     -0.1941
     43  CA        19.3840   68.5550   40.8980 C.3   150  GLY150      0.2014
     44  C         20.8780   68.7820   40.7420 C.2   150  GLY150      0.2638
     45  O         21.4340   69.6200   41.4510 O.2   150  GLY150     -0.2714
     46  N         21.5470   68.0400   39.8550 N.am  151  PHE151     -0.1973
     47  CA        23.0180   68.1050   39.7630 C.3   151  PHE151      0.1639
     48  C         23.5980   68.2990   38.3690 C.2   151  PHE151      0.2290
     49  O         24.8290   68.3420   38.2260 O.2   151  PHE151     -0.2864
     50  CB        23.6350   66.8400   40.3770 C.3   151  PHE151      0.0560
     51  CG        23.4010   66.7130   41.8460 C.ar  151  PHE151     -0.0200
     52  CD1       24.2500   67.3420   42.7520 C.ar  151  PHE151     -0.0042
     53  CD2       22.3270   65.9760   42.3330 C.ar  151  PHE151     -0.0042
     54  CE1       24.0320   67.2400   44.1200 C.ar  151  PHE151     -0.0003
     55  CE2       22.0990   65.8690   43.7040 C.ar  151  PHE151     -0.0003
     56  CZ        22.9530   66.5060   44.5970 C.ar  151  PHE151     -0.0000
     57  N         27.0370   64.3260   45.0560 N.3   160  THR160     -0.1218
     58  CA        26.9120   63.6030   46.3220 C.3   160  THR160      0.1862
     59  C         27.2930   62.1280   46.1810 C.2   160  THR160      0.2287
     60  O         26.5650   61.2520   46.6530 O.2   160  THR160     -0.2866
     61  CB        25.4940   63.7390   46.9100 C.3   160  THR160      0.1770
     62  OG1       24.5140   63.3380   45.9390 O.3   160  THR160     -0.2211
     63  CG2       25.2330   65.1710   47.3380 C.3   160  THR160      0.0375
     64  N         26.3890   63.0100   37.6370 N.3   179  TYR179     -0.1241
     65  CA        25.6470   62.3930   38.7150 C.3   179  TYR179      0.1605
     66  C         24.3770   61.7700   38.1410 C.2   179  TYR179      0.2264
     67  O         23.4250   62.4660   37.7780 O.2   179  TYR179     -0.2867
     68  CB        25.3340   63.3850   39.8500 C.3   179  TYR179      0.0534
     69  CG        24.9020   62.6580   41.0930 C.ar  179  TYR179     -0.0201
     70  CD1       25.8380   62.0120   41.9030 C.ar  179  TYR179     -0.0009
     71  CD2       23.5690   62.5600   41.4330 C.ar  179  TYR179     -0.0009
     72  CE1       25.4490   61.3020   43.0350 C.ar  179  TYR179      0.0417
     73  CE2       23.1630   61.8580   42.5670 C.ar  179  TYR179      0.0417
     74  CZ        24.1060   61.2250   43.3630 C.ar  179  TYR179      0.1957
     75  OH        23.7050   60.5240   44.4810 O.3   179  TYR179     -0.2866
     76  N         20.9680   59.3990   38.2780 N.3   181  LEU181     -0.1231
     77  CA        19.8580   59.0330   39.1520 C.3   181  LEU181      0.1693
     78  C         19.7260   57.5500   39.3410 C.2   181  LEU181      0.2593
     79  O         19.7820   56.8160   38.3690 O.2   181  LEU181     -0.2718
     80  CB        18.5340   59.4100   38.4900 C.3   181  LEU181      0.0284
     81  CG        18.0910   60.8270   38.6630 C.3   181  LEU181      0.0019
     82  CD1       17.3390   61.2630   37.4130 C.3   181  LEU181      0.0001
     83  CD2       17.2510   60.9700   39.9190 C.3   181  LEU181      0.0001
     84  N         19.4220   57.1290   40.5650 N.am  182  GLY182     -0.1942
     85  CA        19.1130   55.7330   40.8360 C.3   182  GLY182      0.2014
     86  C         17.7720   55.2970   40.2780 C.2   182  GLY182      0.2639
     87  O         17.5920   54.1290   39.9710 O.2   182  GLY182     -0.2714
     88  N         16.8480   56.2380   40.1180 N.am  183  GLY183     -0.1954
     89  CA        15.4810   55.9480   39.7040 C.3   183  GLY183      0.1869
     90  C         15.1510   55.8300   38.2180 C.2   183  GLY183      0.2309
     91  O         13.9890   55.6890   37.8880 O.2   183  GLY183     -0.2863
     92  N         24.0440   57.4240   49.5460 N.3   215  TRP215     -0.1227
     93  CA        22.7650   57.4030   48.8230 C.3   215  TRP215      0.1737
     94  C         22.4240   56.0060   48.3010 C.2   215  TRP215      0.2595
     95  O         21.7030   55.8590   47.3060 O.2   215  TRP215     -0.2718
     96  CB        22.7430   58.4740   47.7220 C.3   215  TRP215      0.0564
     97  CG        22.6430   59.8460   48.2920 C.ar  215  TRP215      0.0003
     98  CD1       23.6100   60.8030   48.2880 C.ar  215  TRP215      0.0946
     99  CD2       21.5270   60.4050   48.9960 C.ar  215  TRP215      0.0152
    100  NE1       23.1620   61.9390   48.9220 N.ar  215  TRP215     -0.2442
    101  CE2       21.8870   61.7210   49.3710 C.ar  215  TRP215      0.0810
    102  CE3       20.2510   59.9300   49.3300 C.ar  215  TRP215      0.0012
    103  CZ2       21.0110   62.5740   50.0690 C.ar  215  TRP215      0.0191
    104  CZ3       19.3790   60.7720   50.0290 C.ar  215  TRP215      0.0001
    105  CH2       19.7660   62.0810   50.3890 C.ar  215  TRP215      0.0015
    106  N         22.9350   54.9890   49.0050 N.am  216  HIS216     -0.1961
    107  CA        22.5010   53.5910   48.8590 C.3   216  HIS216      0.1787
    108  C         22.7200   53.0660   47.4310 C.2   216  HIS216      0.2620
    109  O         23.8450   53.1400   46.9390 O.2   216  HIS216     -0.2715
    110  CB        21.0520   53.4610   49.3540 C.3   216  HIS216      0.0785
    111  CG        20.8260   54.1260   50.6710 C.ar  216  HIS216      0.0821
    112  ND1       21.3470   53.6340   51.8480 N.ar  216  HIS216     -0.2267
    113  CD2       20.1890   55.2770   50.9920 C.ar  216  HIS216      0.1154
    114  CE1       21.0160   54.4370   52.8430 C.ar  216  HIS216      0.1986
    115  NE2       20.3120   55.4420   52.3500 N.ar  216  HIS216     -0.2212
    116  N         21.6720   52.5810   46.7650 N.am  217  ASP217     -0.1957
    117  CA        21.8180   51.9940   45.4300 C.3   217  ASP217      0.1840
    118  C         22.3300   53.0070   44.3960 C.2   217  ASP217      0.2621
    119  O         23.1360   52.6450   43.5320 O.2   217  ASP217     -0.2715
    120  CB        20.5020   51.3600   44.9610 C.3   217  ASP217      0.1450
    121  CG        20.0890   50.1680   45.8220 C.2   217  ASP217      0.3671
    122  OD1       19.9650   50.3310   47.0540 O.co2 217  ASP217     -0.2456
    123  OD2       19.8850   49.0660   45.2730 O.co2 217  ASP217     -0.2456
    124  N         21.8710   54.2570   44.5020 N.am  218  GLU218     -0.1977
    125  CA        22.3280   55.3610   43.6430 C.3   218  GLU218      0.1602
    126  C         23.8370   55.6130   43.7160 C.2   218  GLU218      0.2287
    127  O         24.4730   55.9480   42.7060 O.2   218  GLU218     -0.2864
    128  CB        21.5730   56.6380   43.9950 C.3   218  GLU218      0.0415
    129  CG        21.8270   57.8180   43.0720 C.3   218  GLU218      0.1163
    130  CD        20.8640   58.9610   43.3550 C.2   218  GLU218      0.3649
    131  OE1       19.7890   58.9700   42.7260 O.co2 218  GLU218     -0.2457
    132  OE2       21.1620   59.8140   44.2280 O.co2 218  GLU218     -0.2457
    133  N         13.7600   62.6380   33.8970 N.3   239  LEU239     -0.1245
    134  CA        13.3170   62.5710   35.2790 C.3   239  LEU239      0.1561
    135  C         13.4250   63.9330   35.9570 C.2   239  LEU239      0.2260
    136  O         14.4970   64.3480   36.3820 O.2   239  LEU239     -0.2867
    137  CB        14.0530   61.5040   36.0810 C.3   239  LEU239      0.0270
    138  CG        13.2180   60.9550   37.2660 C.3   239  LEU239      0.0019
    139  CD1       13.6820   59.5640   37.6980 C.3   239  LEU239      0.0001
    140  CD2       13.1810   61.8870   38.4740 C.3   239  LEU239      0.0001
    141  N         11.4950   67.1750   38.5180 N.3   241  ASP241     -0.1239
    142  CA        10.5760   67.5290   39.5930 C.3   241  ASP241      0.1674
    143  C         10.2630   69.0040   39.4230 C.2   241  ASP241      0.2266
    144  O         11.0550   69.8750   39.8220 O.2   241  ASP241     -0.2867
    145  CB        11.2240   67.2170   40.9420 C.3   241  ASP241      0.1410
    146  CG        10.3190   67.5170   42.1300 C.2   241  ASP241      0.3668
    147  OD1        9.3630   68.3120   42.0000 O.co2 241  ASP241     -0.2456
    148  OD2       10.5840   66.9450   43.2020 O.co2 241  ASP241     -0.2456
    149  N          9.9350   71.2190   42.7490 N.3   244  LEU244     -0.1231
    150  CA        11.2420   71.5760   43.3200 C.3   244  LEU244      0.1693
    151  C         12.0840   72.4740   42.4020 C.2   244  LEU244      0.2591
    152  O         12.7660   73.3860   42.8810 O.2   244  LEU244     -0.2718
    153  CB        12.0310   70.3000   43.6630 C.3   244  LEU244      0.0284
    154  CG        13.1320   70.3260   44.7320 C.3   244  LEU244      0.0019
    155  CD1       13.4360   68.9060   45.1910 C.3   244  LEU244      0.0001
    156  CD2       14.4300   70.9690   44.2650 C.3   244  LEU244      0.0001
    157  N         12.0420   72.2120   41.0930 N.am  245  LEU245     -0.1980
    158  CA        13.0090   72.7860   40.1530 C.3   245  LEU245      0.1596
    159  C         12.4370   73.6870   39.0510 C.2   245  LEU245      0.2287
    160  O         13.1960   74.3120   38.3000 O.2   245  LEU245     -0.2864
    161  CB        13.8160   71.6400   39.5250 C.3   245  LEU245      0.0297
    162  CG        14.5960   70.7820   40.5170 C.3   245  LEU245      0.0022
    163  CD1       15.0970   69.5160   39.8400 C.3   245  LEU245      0.0001
    164  CD2       15.7760   71.5580   41.0980 C.3   245  LEU245      0.0001
    165  N          8.1870   63.4390   39.1390 N.3   258  ALA258     -0.1245
    166  CA         7.8060   63.0820   40.5050 C.3   258  ALA258      0.1562
    167  C          6.3430   63.4140   40.7360 C.2   258  ALA258      0.2260
    168  O          5.8390   64.3890   40.1810 O.2   258  ALA258     -0.2867
    169  CB         8.6920   63.8270   41.5140 C.3   258  ALA258      0.0290
@<TRIPOS>BOND
     1   133   134    1
     2   134   135    1
     3   134   137    1
     4   135   136    2
     5   137   138    1
     6    25    26    1
     7   138   139    1
     8   138   140    1
     9    82    81    1
    10    64    65    1
    11    28    27    2
    12    36    39    1
    13    36    35    1
    14    36    37    1
    15    67    66    2
    16    39    40    1
    17    91    90    2
    18    27    35   am
    19    27    26    1
    20    35    41    1
    21    26    29    1
    22    66    65    1
    23    19    20    2
    24    19    18    1
    25    90    89    1
    26    49    48    2
    27    76    77    1
    28   160   159    2
    29    38    37    2
    30    48    47    1
    31    79    78    2
    32    21    18    1
    33    21    22    1
    34    41    40    1
    35    80    81    1
    36    80    77    1
    37   141   142    1
    38    81    83    1
    39    65    68    1
    40    37    42   am
    41   159   158    1
    42   165   166    1
    43    77    78    1
    44    18    17    1
    45     4     3    2
    46    22    23    1
    47     1     2    1
    48    78    84   am
    49    29    30    1
    50   143   142    1
    51   143   144    2
    52   161   158    1
    53   161   162    1
    54   142   145    1
    55    89    88    1
    56    23    24    1
    57    47    46    1
    58    47    50    1
    59   163   162    1
    60    68    69    1
    61    46    44   am
    62    42    43    1
    63    87    86    2
    64    88    86   am
    65   158   157    1
    66   168   167    2
    67     3     2    1
    68    86    85    1
    69    17    11   am
    70    50    51    1
    71   166   167    1
    72   166   169    1
    73   162   164    1
    74    84    85    1
    75     2     5    1
    76    30    31   ar
    77    30    32   ar
    78    44    43    1
    79    44    45    2
    80   145   146    1
    81   157   151   am
    82    69    71   ar
    83    69    70   ar
    84    31    33   ar
    85     5     6    1
    86    71    73   ar
    87    11    12    2
    88    11    10    1
    89    32    34   ar
    90    51    53   ar
    91    51    52   ar
    92    70    72   ar
    93   147   146   ar
    94     6     7   ar
    95     6     8   ar
    96     9    10    1
    97   146   148   ar
    98    33    34   ar
    99    53    55   ar
   100   151   152    2
   101   151   150    1
   102    10    13    1
   103    73    74   ar
   104   127   126    2
   105   131   130   ar
   106   149   150    1
   107    52    54   ar
   108    72    74   ar
   109   129   130    1
   110   129   128    1
   111   150   153    1
   112   130   132   ar
   113    74    75    1
   114   119   118    2
   115    15    14   ar
   116   125   126    1
   117   125   128    1
   118   125   124    1
   119   153   154    1
   120    55    56   ar
   121    13    14    1
   122    54    56   ar
   123    14    16   ar
   124   156   154    1
   125   118   124   am
   126   118   117    1
   127   154   155    1
   128   120   117    1
   129   120   121    1
   130    57    58    1
   131   123   121   ar
   132   117   116    1
   133   121   122   ar
   134    62    61    1
   135    59    58    1
   136    59    60    2
   137    58    61    1
   138   116   108   am
   139    61    63    1
   140   109   108    2
   141    95    94    2
   142   108   107    1
   143    96    97    1
   144    96    93    1
   145    98    97   ar
   146    98   100   ar
   147    97    99   ar
   148    94    93    1
   149    94   106   am
   150    93    92    1
   151   107   106    1
   152   107   110    1
   153   100   101   ar
   154    99   102   ar
   155    99   101   ar
   156   102   104   ar
   157   110   111    1
   158   101   103   ar
   159   104   105   ar
   160   103   105   ar
   161   111   113   ar
   162   111   112   ar
   163   113   115   ar
   164   112   114   ar
   165   115   114   ar
