@<TRIPOS>MOLECULE
tmp/5tjnA00.pdb
 156 151 0 0 0
SMALL
GASTEIGER

@<TRIPOS>ATOM
      1  N        -22.9220  -22.5290    9.1910 N.3    65  TYR65      -0.1241
      2  CA       -22.6060  -22.1400    7.8130 C.3    65  TYR65       0.1605
      3  C        -23.4660  -22.8100    6.7570 C.2    65  TYR65       0.2264
      4  O        -23.4470  -22.3840    5.5880 O.2    65  TYR65      -0.2867
      5  CB       -21.1300  -22.3400    7.4660 C.3    65  TYR65       0.0534
      6  CG       -20.2260  -21.3340    8.1250 C.ar   65  TYR65      -0.0201
      7  CD1      -19.7290  -21.5530    9.4180 C.ar   65  TYR65      -0.0009
      8  CD2      -19.8730  -20.1670    7.4750 C.ar   65  TYR65      -0.0009
      9  CE1      -18.8960  -20.6240   10.0300 C.ar   65  TYR65       0.0417
     10  CE2      -19.0420  -19.2250    8.0750 C.ar   65  TYR65       0.0417
     11  CZ       -18.5620  -19.4560    9.3440 C.ar   65  TYR65       0.1957
     12  OH       -17.7410  -18.5210    9.9200 O.3    65  TYR65      -0.2866
     13  N        -15.0230  -20.9980   -0.4110 N.3   144  ASP144     -0.1239
     14  CA       -15.7590  -20.8720    0.8370 C.3   144  ASP144      0.1674
     15  C        -17.2560  -20.6200    0.5520 C.2   144  ASP144      0.2266
     16  O        -17.6280  -20.0560   -0.4820 O.2   144  ASP144     -0.2867
     17  CB       -15.2060  -19.7030    1.6550 C.3   144  ASP144      0.1410
     18  CG       -13.8760  -20.0220    2.3390 C.2   144  ASP144      0.3668
     19  OD1      -13.3140  -21.1260    2.1780 O.co2 144  ASP144     -0.2456
     20  OD2      -13.3970  -19.0960    2.9940 O.co2 144  ASP144     -0.2456
     21  N        -19.5830  -18.8610    2.4770 N.3   146  ASP146     -0.1239
     22  CA       -20.1720  -17.6180    2.9470 C.3   146  ASP146      0.1674
     23  C        -19.8800  -16.5150    1.9420 C.2   146  ASP146      0.2266
     24  O        -19.2860  -15.4780    2.2490 O.2   146  ASP146     -0.2867
     25  CB       -19.7000  -17.2600    4.3870 C.3   146  ASP146      0.1410
     26  CG       -18.2170  -17.1350    4.5310 C.2   146  ASP146      0.3668
     27  OD1      -17.4440  -17.7290    3.7730 O.co2 146  ASP146     -0.2456
     28  OD2      -17.7980  -16.4310    5.4530 O.co2 146  ASP146     -0.2456
     29  N         -5.5920  -12.1480   -2.6020 N.3   166  HIS166     -0.1227
     30  CA        -6.3850  -11.7290   -1.4600 C.3   166  HIS166      0.1737
     31  C         -6.7340  -10.2510   -1.6280 C.2   166  HIS166      0.2438
     32  O         -5.8460   -9.4650   -1.9140 O.2   166  HIS166     -0.2733
     33  CB        -5.5600  -11.9190   -0.2160 C.3   166  HIS166      0.0758
     34  CG        -6.3220  -11.8420    1.0650 C.ar  166  HIS166      0.0818
     35  ND1       -6.9760  -10.7040    1.4790 N.ar  166  HIS166     -0.2268
     36  CD2       -6.4440  -12.7310    2.0710 C.ar  166  HIS166      0.1154
     37  CE1       -7.4940  -10.9050    2.6760 C.ar  166  HIS166      0.1986
     38  NE2       -7.1980  -12.1360    3.0450 N.ar  166  HIS166     -0.2212
     39  N         -8.0130   -9.8740   -1.4670 N.am  167  PRO167     -0.2718
     40  CA        -8.4250   -8.4970   -1.7480 C.3   167  PRO167      0.1535
     41  C         -7.8170   -7.4390   -0.8210 C.2   167  PRO167      0.2599
     42  O         -7.7830   -6.2540   -1.1900 O.2   167  PRO167     -0.2715
     43  CB        -9.9440   -8.5630   -1.5910 C.3   167  PRO167      0.0310
     44  CG       -10.2110   -9.6930   -0.6880 C.3   167  PRO167      0.0237
     45  CD        -9.1700  -10.7060   -1.0720 C.3   167  PRO167      0.0939
     46  N         -7.4230   -7.8330    0.3760 N.am  168  SER168     -0.1936
     47  CA        -6.8090   -6.9110    1.3410 C.3   168  SER168      0.2055
     48  C         -5.3370   -6.6320    1.0910 C.2   168  SER168      0.2643
     49  O         -4.8000   -5.7130    1.7000 O.2   168  SER168     -0.2714
     50  CB        -6.9860   -7.4080    2.7840 C.3   168  SER168      0.2130
     51  OG        -8.3580   -7.4720    3.1250 O.3   168  SER168     -0.2179
     52  N         -4.6720   -7.3940    0.2220 N.am  169  PHE169     -0.1973
     53  CA        -3.2050   -7.3320    0.1450 C.3   169  PHE169      0.1639
     54  C         -2.6470   -7.1690   -1.2510 C.2   169  PHE169      0.2290
     55  O         -1.4040   -7.1670   -1.4070 O.2   169  PHE169     -0.2864
     56  CB        -2.5810   -8.5820    0.7710 C.3   169  PHE169      0.0560
     57  CG        -2.9120   -8.7690    2.2240 C.ar  169  PHE169     -0.0200
     58  CD1       -2.2090   -8.0790    3.2120 C.ar  169  PHE169     -0.0042
     59  CD2       -3.9270   -9.6410    2.6160 C.ar  169  PHE169     -0.0042
     60  CE1       -2.5240   -8.2610    4.5600 C.ar  169  PHE169     -0.0003
     61  CE2       -4.2590   -9.8140    3.9540 C.ar  169  PHE169     -0.0003
     62  CZ        -3.5580   -9.1180    4.9300 C.ar  169  PHE169     -0.0000
     63  N          0.7150  -11.2460    5.5640 N.3   178  THR178     -0.1218
     64  CA         0.5510  -12.0270    6.8040 C.3   178  THR178      0.1862
     65  C          0.9030  -13.5010    6.6110 C.2   178  THR178      0.2287
     66  O          0.1900  -14.3950    7.0500 O.2   178  THR178     -0.2866
     67  CB        -0.8740  -11.9150    7.3770 C.3   178  THR178      0.1770
     68  OG1       -1.8180  -12.3280    6.3880 O.3   178  THR178     -0.2211
     69  CG2       -1.1720  -10.4980    7.7590 C.3   178  THR178      0.0375
     70  N          0.0950  -12.4780   -1.8810 N.3   197  TYR197     -0.1241
     71  CA        -0.6510  -13.1060   -0.8170 C.3   197  TYR197      0.1605
     72  C         -1.9540  -13.6700   -1.3890 C.2   197  TYR197      0.2264
     73  O         -2.8470  -12.9320   -1.7740 O.2   197  TYR197     -0.2867
     74  CB        -0.9490  -12.1730    0.3660 C.3   197  TYR197      0.0534
     75  CG        -1.3910  -12.9560    1.5900 C.ar  197  TYR197     -0.0201
     76  CD1       -0.4600  -13.5680    2.4230 C.ar  197  TYR197     -0.0009
     77  CD2       -2.7410  -13.1350    1.8880 C.ar  197  TYR197     -0.0009
     78  CE1       -0.8490  -14.3080    3.5150 C.ar  197  TYR197      0.0417
     79  CE2       -3.1440  -13.8640    2.9960 C.ar  197  TYR197      0.0417
     80  CZ        -2.1960  -14.4750    3.7920 C.ar  197  TYR197      0.1957
     81  OH        -2.5700  -15.2010    4.8930 O.3   197  TYR197     -0.2866
     82  N         -5.4270  -15.8910   -1.2180 N.3   199  MET199     -0.1245
     83  CA        -6.4530  -16.1820   -0.2200 C.3   199  MET199      0.1570
     84  C         -6.8820  -17.6370   -0.2930 C.2   199  MET199      0.2261
     85  O         -7.1380  -18.1640   -1.3680 O.2   199  MET199     -0.2867
     86  CB        -7.6620  -15.2480   -0.3570 C.3   199  MET199      0.0387
     87  CG        -8.6510  -15.3230    0.8270 C.3   199  MET199      0.0595
     88  SD        -9.7260  -13.8880    0.8560 S.3   199  MET199     -0.1393
     89  CE       -10.3850  -14.1010    2.4850 C.3   199  MET199      0.0692
     90  N         -9.6380  -18.9430    0.3670 N.3   201  ALA201     -0.1245
     91  CA       -11.0430  -19.0390    0.0250 C.3   201  ALA201      0.1562
     92  C        -11.3520  -19.2890   -1.4560 C.2   201  ALA201      0.2260
     93  O        -12.5190  -19.4180   -1.8190 O.2   201  ALA201     -0.2867
     94  CB       -11.7790  -17.7870    0.5020 C.3   201  ALA201      0.0290
     95  N         -2.4180  -18.1990    9.8570 N.3   233  TRP233     -0.1227
     96  CA        -3.6730  -18.2840    9.1140 C.3   233  TRP233      0.1737
     97  C         -3.9940  -19.7110    8.6250 C.2   233  TRP233      0.2595
     98  O         -4.6710  -19.8930    7.6060 O.2   233  TRP233     -0.2718
     99  CB        -3.7020  -17.2360    7.9930 C.3   233  TRP233      0.0564
    100  CG        -3.7990  -15.8560    8.5750 C.ar  233  TRP233      0.0003
    101  CD1       -2.8150  -14.9260    8.6710 C.ar  233  TRP233      0.0946
    102  CD2       -4.9460  -15.3020    9.2310 C.ar  233  TRP233      0.0152
    103  NE1       -3.2780  -13.8040    9.3330 N.ar  233  TRP233     -0.2442
    104  CE2       -4.5880  -14.0140    9.6800 C.ar  233  TRP233      0.0810
    105  CE3       -6.2400  -15.7690    9.4680 C.ar  233  TRP233      0.0012
    106  CZ2       -5.4940  -13.1640   10.3450 C.ar  233  TRP233      0.0191
    107  CZ3       -7.1510  -14.9260   10.1400 C.ar  233  TRP233      0.0001
    108  CH2       -6.7600  -13.6470   10.5680 C.ar  233  TRP233      0.0015
    109  N         -3.5460  -20.7270    9.3800 N.am  234  HIS234     -0.1975
    110  CA        -4.0570  -22.0810    9.2090 C.3   234  HIS234      0.1656
    111  C         -3.7560  -22.5670    7.7840 C.2   234  HIS234      0.2291
    112  O         -2.6410  -22.3120    7.3020 O.2   234  HIS234     -0.2864
    113  CB        -5.5450  -22.1120    9.5880 C.3   234  HIS234      0.0771
    114  CG        -5.8300  -21.3500   10.8490 C.ar  234  HIS234      0.0820
    115  ND1       -5.2700  -21.6940   12.0600 N.ar  234  HIS234     -0.2267
    116  CD2       -6.5360  -20.2180   11.0700 C.ar  234  HIS234      0.1154
    117  CE1       -5.6400  -20.8250   12.9840 C.ar  234  HIS234      0.1986
    118  NE2       -6.4100  -19.9180   12.4120 N.ar  234  HIS234     -0.2212
    119  N         -4.4470  -21.4520    4.9470 N.3   236  GLU236     -0.1245
    120  CA        -4.0400  -20.3740    4.0470 C.3   236  GLU236      0.1567
    121  C         -2.5450  -20.0880    4.1200 C.2   236  GLU236      0.2260
    122  O         -1.9190  -19.7650    3.1030 O.2   236  GLU236     -0.2867
    123  CB        -4.8140  -19.1040    4.3680 C.3   236  GLU236      0.0388
    124  CG        -4.4240  -17.8710    3.5810 C.3   236  GLU236      0.1160
    125  CD        -5.4060  -16.7380    3.8010 C.2   236  GLU236      0.3649
    126  OE1       -6.4780  -16.7370    3.1600 O.co2 236  GLU236     -0.2457
    127  OE2       -5.1030  -15.8530    4.6230 O.co2 236  GLU236     -0.2457
    128  N        -14.7100   -8.1770   -1.0080 N.3   259  ASP259     -0.1239
    129  CA       -15.6280   -7.8390    0.0730 C.3   259  ASP259      0.1674
    130  C        -15.9780   -6.3750   -0.1270 C.2   259  ASP259      0.2266
    131  O        -15.1540   -5.4910    0.1600 O.2   259  ASP259     -0.2867
    132  CB       -14.9850   -8.0970    1.4170 C.3   259  ASP259      0.1410
    133  CG       -15.9290   -7.8110    2.5860 C.2   259  ASP259      0.3668
    134  OD1      -16.8410   -6.9810    2.4260 O.co2 259  ASP259     -0.2456
    135  OD2      -15.7200   -8.4220    3.6320 O.co2 259  ASP259     -0.2456
    136  N        -16.2970   -4.0930    3.1160 N.3   262  LEU262     -0.1231
    137  CA       -15.0000   -3.7550    3.6640 C.3   262  LEU262      0.1693
    138  C        -14.1950   -2.8190    2.7610 C.2   262  LEU262      0.2591
    139  O        -13.4990   -1.9440    3.2560 O.2   262  LEU262     -0.2718
    140  CB       -14.2030   -5.0270    3.9500 C.3   262  LEU262      0.0284
    141  CG       -12.8280   -4.8250    4.5760 C.3   262  LEU262      0.0019
    142  CD1      -12.9660   -4.3880    6.0260 C.3   262  LEU262      0.0001
    143  CD2      -11.9500   -6.0730    4.4500 C.3   262  LEU262      0.0001
    144  N        -14.2480   -3.0180    1.4420 N.am  263  LEU263     -0.1980
    145  CA       -13.2410   -2.4630    0.5300 C.3   263  LEU263      0.1596
    146  C        -13.8310   -1.6010   -0.6170 C.2   263  LEU263      0.2287
    147  O        -13.1000   -1.0560   -1.4390 O.2   263  LEU263     -0.2864
    148  CB       -12.4140   -3.6350   -0.0570 C.3   263  LEU263      0.0297
    149  CG       -11.5790   -4.4110    0.9370 C.3   263  LEU263      0.0022
    150  CD1      -11.1140   -5.7320    0.3300 C.3   263  LEU263      0.0001
    151  CD2      -10.3600   -3.5860    1.3040 C.3   263  LEU263      0.0001
    152  N        -17.9610  -11.6660   -0.5750 N.3   276  ALA276     -0.1245
    153  CA       -18.3960  -11.9560    0.7910 C.3   276  ALA276      0.1562
    154  C        -19.8470  -11.5510    1.0170 C.2   276  ALA276      0.2260
    155  O        -20.3090  -10.5390    0.4970 O.2   276  ALA276     -0.2867
    156  CB       -17.5000  -11.2080    1.7630 C.3   276  ALA276      0.0290
@<TRIPOS>BOND
     1    29    30    1
     2    32    31    2
     3    70    71    1
     4    93    92    2
     5    73    72    2
     6    40    43    1
     7    40    39    1
     8    40    41    1
     9    31    39   am
    10    31    30    1
    11    43    44    1
    12    39    45    1
    13    30    33    1
    14    92    91    1
    15   147   146    2
    16    55    54    2
    17    72    71    1
    18    85    84    2
    19    54    53    1
    20    82    83    1
    21    42    41    2
    22    45    44    1
    23   128   129    1
    24    41    46   am
    25    71    74    1
    26   146   145    1
    27   152   153    1
    28    16    15    2
    29    13    14    1
    30    86    83    1
    31    86    87    1
    32    84    83    1
    33    33    34    1
    34   130   129    1
    35   130   131    2
    36   148   145    1
    37   148   149    1
    38    91    90    1
    39    91    94    1
    40   129   132    1
    41    53    52    1
    42    53    56    1
    43    52    48   am
    44   150   149    1
    45    74    75    1
    46    46    47    1
    47   155   154    2
    48   145   144    1
    49    15    14    1
    50    56    57    1
    51   153   154    1
    52   153   156    1
    53    87    88    1
    54    14    17    1
    55    88    89    1
    56   149   151    1
    57    34    35   ar
    58    34    36   ar
    59    48    47    1
    60    48    49    2
    61    47    50    1
    62   132   133    1
    63   144   138   am
    64    35    37   ar
    65    75    77   ar
    66    75    76   ar
    67    17    18    1
    68    77    79   ar
    69    23    24    2
    70    23    22    1
    71    36    38   ar
    72    19    18   ar
    73    57    59   ar
    74    57    58   ar
    75    18    20   ar
    76    76    78   ar
    77   134   133   ar
    78    21    22    1
    79   133   135   ar
    80    59    61   ar
    81    37    38   ar
    82   138   139    2
    83   138   137    1
    84    50    51    1
    85    22    25    1
    86    79    80   ar
    87   122   121    2
    88   136   137    1
    89   126   125   ar
    90    58    60   ar
    91    78    80   ar
    92   124   125    1
    93   124   123    1
    94   137   140    1
    95    27    26   ar
    96    80    81    1
    97   125   127   ar
    98   140   141    1
    99    61    62   ar
   100   120   121    1
   101   120   123    1
   102   120   119    1
   103    25    26    1
   104   143   141    1
   105    26    28   ar
   106    60    62   ar
   107   141   142    1
   108    63    64    1
   109     4     3    2
   110    68    67    1
   111    65    64    1
   112    65    66    2
   113     3     2    1
   114    64    67    1
   115   112   111    2
   116    67    69    1
   117     5     2    1
   118     5     6    1
   119     8    10   ar
   120     8     6   ar
   121    98    97    2
   122   111   110    1
   123     2     1    1
   124    99   100    1
   125    99    96    1
   126    10    11   ar
   127     6     7   ar
   128   100   101   ar
   129   100   102   ar
   130    97    96    1
   131    97   109   am
   132   101   103   ar
   133    96    95    1
   134   110   109    1
   135   110   113    1
   136   102   105   ar
   137   102   104   ar
   138   103   104   ar
   139    11    12    1
   140    11     9   ar
   141     7     9   ar
   142   105   107   ar
   143   113   114    1
   144   104   106   ar
   145   107   108   ar
   146   106   108   ar
   147   114   116   ar
   148   114   115   ar
   149   116   118   ar
   150   115   117   ar
   151   118   117   ar
