@<TRIPOS>MOLECULE
tmp/5tjoA00.pdb
 148 144 0 0 0
SMALL
GASTEIGER

@<TRIPOS>ATOM
      1  N         11.3470   54.1090   39.2620 N.3   129  ASP129     -0.1239
      2  CA        10.5470   54.2130   40.4860 C.3   129  ASP129      0.1674
      3  C          9.0770   54.4180   40.1270 C.2   129  ASP129      0.2266
      4  O          8.7510   55.0090   39.0770 O.2   129  ASP129     -0.2867
      5  CB        11.0230   55.3760   41.3580 C.3   129  ASP129      0.1410
      6  CG        12.3420   55.0890   42.0830 C.2   129  ASP129      0.3668
      7  OD1       12.8040   53.9390   42.0990 O.co2 129  ASP129     -0.2456
      8  OD2       12.9040   56.0400   42.6280 O.co2 129  ASP129     -0.2456
      9  N          6.6500   56.0550   42.0400 N.3   131  ASP131     -0.1239
     10  CA         6.0570   57.3210   42.4810 C.3   131  ASP131      0.1674
     11  C          6.3990   58.4390   41.4980 C.2   131  ASP131      0.2266
     12  O          7.0180   59.4720   41.8320 O.2   131  ASP131     -0.2867
     13  CB         6.4670   57.6510   43.9370 C.3   131  ASP131      0.1410
     14  CG         7.9750   57.7190   44.1480 C.2   131  ASP131      0.3668
     15  OD1        8.7670   57.1300   43.3790 O.co2 131  ASP131     -0.2456
     16  OD2        8.3780   58.4000   45.0910 O.co2 131  ASP131     -0.2456
     17  N         20.7940   63.2710   36.9900 N.3   151  HIS151     -0.1227
     18  CA        20.0060   63.6640   38.1510 C.3   151  HIS151      0.1737
     19  C         19.6130   65.1370   37.9680 C.2   151  HIS151      0.2438
     20  O         20.4640   65.9620   37.6510 O.2   151  HIS151     -0.2733
     21  CB        20.8420   63.4420   39.4060 C.3   151  HIS151      0.0758
     22  CG        20.0760   63.5190   40.6860 C.ar  151  HIS151      0.0818
     23  ND1       19.4100   64.6560   41.0760 N.ar  151  HIS151     -0.2268
     24  CD2       19.9150   62.6290   41.6870 C.ar  151  HIS151      0.1154
     25  CE1       18.8590   64.4600   42.2610 C.ar  151  HIS151      0.1986
     26  NE2       19.1460   63.2350   42.6510 N.ar  151  HIS151     -0.2212
     27  N         18.3180   65.4590   38.1610 N.am  152  PRO152     -0.2718
     28  CA        17.8620   66.8120   37.8770 C.3   152  PRO152      0.1535
     29  C         18.4280   67.9080   38.7750 C.2   152  PRO152      0.2599
     30  O         18.4320   69.0870   38.3740 O.2   152  PRO152     -0.2715
     31  CB        16.3410   66.7030   38.0520 C.3   152  PRO152      0.0310
     32  CG        16.1080   65.5490   38.9200 C.3   152  PRO152      0.0237
     33  CD        17.1920   64.5800   38.5450 C.3   152  PRO152      0.0939
     34  N         18.8400   67.5300   39.9700 N.am  153  SER153     -0.1936
     35  CA        19.4530   68.4600   40.9440 C.3   153  SER153      0.2055
     36  C         20.9200   68.7650   40.6890 C.2   153  SER153      0.2643
     37  O         21.4480   69.7150   41.2840 O.2   153  SER153     -0.2714
     38  CB        19.2810   67.9440   42.3740 C.3   153  SER153      0.2130
     39  OG        17.9000   67.8980   42.7260 O.3   153  SER153     -0.2179
     40  N         21.5930   67.9710   39.8510 N.am  154  PHE154     -0.1973
     41  CA        23.0630   68.0450   39.7480 C.3   154  PHE154      0.1639
     42  C         23.6220   68.2120   38.3410 C.2   154  PHE154      0.2290
     43  O         24.8460   68.2090   38.1580 O.2   154  PHE154     -0.2864
     44  CB        23.6940   66.8020   40.3810 C.3   154  PHE154      0.0560
     45  CG        23.4050   66.6490   41.8360 C.ar  154  PHE154     -0.0200
     46  CD1       22.4200   65.7760   42.2780 C.ar  154  PHE154     -0.0042
     47  CD2       24.1230   67.3840   42.7870 C.ar  154  PHE154     -0.0042
     48  CE1       22.1270   65.6260   43.6230 C.ar  154  PHE154     -0.0003
     49  CE2       23.8310   67.2450   44.1440 C.ar  154  PHE154     -0.0003
     50  CZ        22.8260   66.3750   44.5600 C.ar  154  PHE154     -0.0000
     51  N         27.0630   64.2300   45.1540 N.3   163  THR163     -0.1218
     52  CA        26.9270   63.4520   46.3950 C.3   163  THR163      0.1862
     53  C         27.3180   61.9960   46.2040 C.2   163  THR163      0.2287
     54  O         26.6300   61.0790   46.6650 O.2   163  THR163     -0.2866
     55  CB        25.5090   63.5700   46.9770 C.3   163  THR163      0.1770
     56  OG1       24.5550   63.1840   45.9740 O.3   163  THR163     -0.2211
     57  CG2       25.2320   65.0060   47.3720 C.3   163  THR163      0.0375
     58  N         26.4560   62.9550   37.7050 N.3   182  TYR182     -0.1241
     59  CA        25.7230   62.3340   38.7650 C.3   182  TYR182      0.1605
     60  C         24.4290   61.7710   38.1890 C.2   182  TYR182      0.2264
     61  O         23.5030   62.4940   37.7920 O.2   182  TYR182     -0.2867
     62  CB        25.4440   63.2880   39.9350 C.3   182  TYR182      0.0534
     63  CG        25.0130   62.5320   41.1650 C.ar  182  TYR182     -0.0201
     64  CD1       25.9440   61.9080   41.9860 C.ar  182  TYR182     -0.0009
     65  CD2       23.6740   62.3970   41.4980 C.ar  182  TYR182     -0.0009
     66  CE1       25.5730   61.1770   43.1020 C.ar  182  TYR182      0.0417
     67  CE2       23.2730   61.6690   42.6270 C.ar  182  TYR182      0.0417
     68  CZ        24.2260   61.0460   43.4220 C.ar  182  TYR182      0.1957
     69  OH        23.8430   60.3180   44.5120 O.3   182  TYR182     -0.2866
     70  N         20.9790   59.5390   38.4020 N.3   184  MET184     -0.1245
     71  CA        19.9630   59.2400   39.4170 C.3   184  MET184      0.1570
     72  C         19.5590   57.7760   39.3570 C.2   184  MET184      0.2261
     73  O         19.2890   57.2450   38.2880 O.2   184  MET184     -0.2867
     74  CB        18.7450   60.1420   39.2620 C.3   184  MET184      0.0387
     75  CG        17.7450   60.0130   40.4160 C.3   184  MET184      0.0595
     76  SD        16.6570   61.4350   40.4950 S.3   184  MET184     -0.1393
     77  CE        16.1830   61.2890   42.2010 C.3   184  MET184      0.0692
     78  N         16.8400   56.3800   40.0220 N.3   186  ALA186     -0.1245
     79  CA        15.4380   56.2010   39.6960 C.3   186  ALA186      0.1562
     80  C         15.1180   55.9250   38.2040 C.2   186  ALA186      0.2260
     81  O         13.9610   55.7420   37.8720 O.2   186  ALA186     -0.2867
     82  CB        14.6620   57.4330   40.1990 C.3   186  ALA186      0.0290
     83  N         24.1430   57.2720   49.4770 N.3   218  TRP218     -0.1241
     84  CA        22.8710   57.1790   48.7590 C.3   218  TRP218      0.1605
     85  C         22.5730   55.7640   48.2550 C.2   218  TRP218      0.2264
     86  O         21.8840   55.5740   47.2410 O.2   218  TRP218     -0.2867
     87  CB        22.7850   58.2360   47.6620 C.3   218  TRP218      0.0550
     88  CG        22.6480   59.6070   48.2510 C.ar  218  TRP218      0.0003
     89  CD1       23.6170   60.5480   48.3660 C.ar  218  TRP218      0.0946
     90  CD2       21.4850   60.1490   48.8900 C.ar  218  TRP218      0.0152
     91  NE1       23.1250   61.6700   48.9990 N.ar  218  TRP218     -0.2442
     92  CE2       21.8160   61.4450   49.3340 C.ar  218  TRP218      0.0810
     93  CE3       20.1820   59.6790   49.0940 C.ar  218  TRP218      0.0012
     94  CZ2       20.8910   62.2750   49.9850 C.ar  218  TRP218      0.0191
     95  CZ3       19.2690   60.5040   49.7480 C.ar  218  TRP218      0.0001
     96  CH2       19.6370   61.7780   50.1910 C.ar  218  TRP218      0.0015
     97  N         21.9620   54.0820   44.5190 N.3   221  GLU221     -0.1245
     98  CA        22.4080   55.1880   43.6490 C.3   221  GLU221      0.1567
     99  C         23.9170   55.4430   43.7100 C.2   221  GLU221      0.2260
    100  O         24.5560   55.7390   42.6770 O.2   221  GLU221     -0.2867
    101  CB        21.6720   56.4520   44.0340 C.3   221  GLU221      0.0388
    102  CG        22.0010   57.6510   43.1780 C.3   221  GLU221      0.1160
    103  CD        21.0170   58.7750   43.4110 C.2   221  GLU221      0.3649
    104  OE1       19.9420   58.7550   42.7560 O.co2 221  GLU221     -0.2457
    105  OE2       21.2920   59.6340   44.2880 O.co2 221  GLU221     -0.2457
    106  N         12.3930   64.5390   36.1690 N.3   243  TRP243     -0.1227
    107  CA        12.2270   65.9230   36.6080 C.3   243  TRP243      0.1737
    108  C         11.2740   66.0440   37.8000 C.2   243  TRP243      0.2595
    109  O         10.4720   65.1520   38.0650 O.2   243  TRP243     -0.2718
    110  CB        11.7370   66.7880   35.4430 C.3   243  TRP243      0.0564
    111  CG        12.0200   68.2430   35.6860 C.ar  243  TRP243      0.0003
    112  CD1       11.1010   69.2190   35.9650 C.ar  243  TRP243      0.0946
    113  CD2       13.3080   68.8660   35.7620 C.ar  243  TRP243      0.0152
    114  NE1       11.7370   70.4180   36.1660 N.ar  243  TRP243     -0.2442
    115  CE2       13.0940   70.2330   36.0500 C.ar  243  TRP243      0.0810
    116  CE3       14.6240   68.4160   35.5640 C.ar  243  TRP243      0.0012
    117  CZ2       14.1360   71.1300   36.1880 C.ar  243  TRP243      0.0191
    118  CZ3       15.6590   69.3040   35.6970 C.ar  243  TRP243      0.0001
    119  CH2       15.4100   70.6710   35.9890 C.ar  243  TRP243      0.0015
    120  N         11.3990   67.1490   38.5380 N.am  244  ASP244     -0.1974
    121  CA        10.4770   67.4830   39.6370 C.3   244  ASP244      0.1709
    122  C         10.1610   68.9510   39.4450 C.2   244  ASP244      0.2293
    123  O         10.9920   69.8050   39.7780 O.2   244  ASP244     -0.2864
    124  CB        11.1400   67.2150   40.9800 C.3   244  ASP244      0.1436
    125  CG        10.2220   67.5110   42.1740 C.2   244  ASP244      0.3671
    126  OD1        9.2990   68.3260   42.0300 O.co2 244  ASP244     -0.2456
    127  OD2       10.4460   66.9140   43.2360 O.co2 244  ASP244     -0.2456
    128  N          9.7990   71.2120   42.7050 N.3   247  LEU247     -0.1231
    129  CA        11.0820   71.5600   43.2630 C.3   247  LEU247      0.1693
    130  C         11.9090   72.4870   42.3590 C.2   247  LEU247      0.2591
    131  O         12.5830   73.3980   42.8530 O.2   247  LEU247     -0.2718
    132  CB        11.8900   70.2990   43.5570 C.3   247  LEU247      0.0284
    133  CG        13.2670   70.5090   44.1710 C.3   247  LEU247      0.0019
    134  CD1       13.1460   70.9740   45.6120 C.3   247  LEU247      0.0001
    135  CD2       14.0970   69.2350   44.0840 C.3   247  LEU247      0.0001
    136  N         11.9100   72.2250   41.0460 N.am  248  LEU248     -0.1980
    137  CA        12.8960   72.7980   40.1350 C.3   248  LEU248      0.1596
    138  C         12.3560   73.6590   39.0080 C.2   248  LEU248      0.2287
    139  O         13.1390   74.1980   38.2090 O.2   248  LEU248     -0.2864
    140  CB        13.7510   71.6600   39.5250 C.3   248  LEU248      0.0297
    141  CG        14.5320   70.8180   40.5000 C.3   248  LEU248      0.0022
    142  CD1       15.0170   69.5360   39.8320 C.3   248  LEU248      0.0001
    143  CD2       15.7180   71.6040   41.0090 C.3   248  LEU248      0.0001
    144  N          8.2890   63.5310   39.0980 N.3   261  ALA261     -0.1245
    145  CA         7.8140   63.2280   40.4430 C.3   261  ALA261      0.1562
    146  C          6.3430   63.5480   40.5670 C.2   261  ALA261      0.2260
    147  O          5.8360   64.4070   39.8610 O.2   261  ALA261     -0.2867
    148  CB         8.6050   64.0420   41.4610 C.3   261  ALA261      0.0290
@<TRIPOS>BOND
     1   110   111    1
     2   110   107    1
     3   116   118   ar
     4   116   113   ar
     5   111   113   ar
     6   111   112   ar
     7   118   119   ar
     8   113   115   ar
     9   112   114   ar
    10   119   117   ar
    11   115   114   ar
    12   115   117   ar
    13   106   107    1
    14   107   108    1
    15    17    18    1
    16    20    19    2
    17    58    59    1
    18    61    60    2
    19   108   109    2
    20   108   120   am
    21    81    80    2
    22    28    31    1
    23    28    27    1
    24    28    29    1
    25    19    18    1
    26    19    27   am
    27    31    32    1
    28    18    21    1
    29    43    42    2
    30    27    33    1
    31    60    59    1
    32    80    79    1
    33   139   138    2
    34    73    72    2
    35    42    41    1
    36    30    29    2
    37    70    71    1
    38   120   121    1
    39    33    32    1
    40    59    62    1
    41    29    34   am
    42   138   137    1
    43     4     3    2
    44   144   145    1
    45    74    71    1
    46    74    75    1
    47     1     2    1
    48    72    71    1
    49    21    22    1
    50   122   121    1
    51   122   123    2
    52   140   137    1
    53   140   141    1
    54   121   124    1
    55    79    78    1
    56    79    82    1
    57    41    40    1
    58    41    44    1
    59   142   141    1
    60    40    36   am
    61   147   146    2
    62    62    63    1
    63    34    35    1
    64     3     2    1
    65   137   136    1
    66    44    45    1
    67    75    76    1
    68   145   146    1
    69   145   148    1
    70     2     5    1
    71    76    77    1
    72   141   143    1
    73    22    23   ar
    74    22    24   ar
    75    36    35    1
    76    36    37    2
    77    35    38    1
    78   124   125    1
    79   136   130   am
    80    23    25   ar
    81    63    65   ar
    82    63    64   ar
    83     5     6    1
    84    65    67   ar
    85    11    12    2
    86    11    10    1
    87    24    26   ar
    88    45    46   ar
    89    45    47   ar
    90    64    66   ar
    91   126   125   ar
    92     9    10    1
    93     6     7   ar
    94     6     8   ar
    95   125   127   ar
    96    25    26   ar
    97    46    48   ar
    98   130   131    2
    99   130   129    1
   100    38    39    1
   101    10    13    1
   102    67    68   ar
   103   100    99    2
   104   128   129    1
   105   104   103   ar
   106    47    49   ar
   107    66    68   ar
   108   102   103    1
   109   102   101    1
   110   129   132    1
   111    15    14   ar
   112   103   105   ar
   113    68    69    1
   114   132   133    1
   115    48    50   ar
   116    98    99    1
   117    98   101    1
   118    98    97    1
   119    13    14    1
   120   135   133    1
   121    49    50   ar
   122    14    16   ar
   123   133   134    1
   124    51    52    1
   125    56    55    1
   126    53    52    1
   127    53    54    2
   128    52    55    1
   129    55    57    1
   130    86    85    2
   131    87    88    1
   132    87    84    1
   133    88    89   ar
   134    88    90   ar
   135    85    84    1
   136    89    91   ar
   137    84    83    1
   138    90    93   ar
   139    90    92   ar
   140    91    92   ar
   141    93    95   ar
   142    92    94   ar
   143    95    96   ar
   144    94    96   ar
