@<TRIPOS>MOLECULE
tmp/5tjrD00.pdb
 170 168 0 0 0
SMALL
GASTEIGER

@<TRIPOS>ATOM
      1  N         17.8860   31.7140  -47.1100 N.3   140  ILE140     -0.1231
      2  CA        16.8650   30.9030  -47.7690 C.3   140  ILE140      0.1692
      3  C         17.3590   30.5240  -49.1670 C.2   140  ILE140      0.2593
      4  O         17.5390   31.3860  -50.0170 O.2   140  ILE140     -0.2718
      5  CB        15.5580   31.6950  -47.8660 C.3   140  ILE140      0.0266
      6  CG1       15.0810   32.1200  -46.4710 C.3   140  ILE140      0.0019
      7  CG2       14.4870   30.8820  -48.5610 C.3   140  ILE140      0.0020
      8  CD1       14.2100   33.3470  -46.4980 C.3   140  ILE140      0.0001
      9  N         17.5480   29.2280  -49.3940 N.am  141  THR141     -0.1940
     10  CA        18.3320   28.7040  -50.5070 C.3   141  THR141      0.2013
     11  C         17.4670   28.0030  -51.5780 C.2   141  THR141      0.2484
     12  O         16.4230   27.4380  -51.2450 O.2   141  THR141     -0.2729
     13  CB        19.3310   27.6950  -49.9120 C.3   141  THR141      0.1807
     14  OG1       20.3580   28.4010  -49.1910 O.3   141  THR141     -0.2208
     15  CG2       19.9160   26.7040  -50.8850 C.3   141  THR141      0.0379
     16  N         17.9170   28.0020  -52.8430 N.am  142  PRO142     -0.2715
     17  CA        17.1180   27.4240  -53.9200 C.3   142  PRO142      0.1536
     18  C         17.4550   25.9660  -54.2520 C.2   142  PRO142      0.2599
     19  O         18.3570   25.3750  -53.6600 O.2   142  PRO142     -0.2715
     20  CB        17.4680   28.3260  -55.1050 C.3   142  PRO142      0.0310
     21  CG        18.8920   28.6640  -54.8850 C.3   142  PRO142      0.0237
     22  CD        19.1280   28.6360  -53.3900 C.3   142  PRO142      0.0939
     23  N         16.7020   25.4320  -55.2170 N.am  143  PHE143     -0.1960
     24  CA        16.7640   24.0300  -55.6750 C.3   143  PHE143      0.1771
     25  C         18.0700   23.6980  -56.3970 C.2   143  PHE143      0.2619
     26  O         18.7410   22.7340  -56.0530 O.2   143  PHE143     -0.2715
     27  CB        15.5620   23.7610  -56.5970 C.3   143  PHE143      0.0574
     28  CG        15.5620   22.4010  -57.2540 C.ar  143  PHE143     -0.0200
     29  CD1       15.3690   21.2570  -56.5020 C.ar  143  PHE143     -0.0042
     30  CD2       15.7210   22.2800  -58.6300 C.ar  143  PHE143     -0.0042
     31  CE1       15.3580   19.9910  -57.0900 C.ar  143  PHE143     -0.0003
     32  CE2       15.6840   21.0340  -59.2400 C.ar  143  PHE143     -0.0003
     33  CZ        15.5190   19.8840  -58.4650 C.ar  143  PHE143     -0.0000
     34  N         18.3950   24.4710  -57.4240 N.am  144  ASN144     -0.1972
     35  CA        19.7070   24.3800  -58.0650 C.3   144  ASN144      0.1688
     36  C         20.7160   24.8210  -57.0280 C.2   144  ASN144      0.2292
     37  O         20.4760   25.7470  -56.2520 O.2   144  ASN144     -0.2864
     38  CB        19.8110   25.2670  -59.3050 C.3   144  ASN144      0.1181
     39  CG        19.1110   26.6120  -59.1290 C.2   144  ASN144      0.2629
     40  OD1       18.1240   26.7530  -58.3530 O.2   144  ASN144     -0.2716
     41  ND2       19.6250   27.6250  -59.8350 N.am  144  ASN144     -0.0877
     42  N         17.2580   27.8580  -44.0730 N.3   167  LYS167     -0.1231
     43  CA        16.0200   27.2320  -44.5320 C.3   167  LYS167      0.1678
     44  C         16.2020   26.8550  -46.0150 C.2   167  LYS167      0.2434
     45  O         15.9450   27.6680  -46.8970 O.2   167  LYS167     -0.2733
     46  CB        14.8480   28.1980  -44.2430 C.3   167  LYS167      0.0284
     47  CG        13.6130   28.1590  -45.1260 C.3   167  LYS167      0.0035
     48  CD        13.0560   26.7800  -45.4360 C.3   167  LYS167      0.0206
     49  CE        12.2840   26.8190  -46.7470 C.3   167  LYS167      0.1093
     50  NZ        13.1630   26.8750  -47.9190 N.3   167  LYS167     -0.1314
     51  N         16.6770   25.6240  -46.2890 N.am  168  PRO168     -0.2718
     52  CA        16.9850   25.2430  -47.6780 C.3   168  PRO168      0.1535
     53  C         15.7560   24.8080  -48.4820 C.2   168  PRO168      0.2599
     54  O         14.6190   24.9090  -47.9890 O.2   168  PRO168     -0.2715
     55  CB        17.9720   24.0780  -47.5120 C.3   168  PRO168      0.0310
     56  CG        17.5770   23.4550  -46.2270 C.3   168  PRO168      0.0237
     57  CD        17.0120   24.5420  -45.3410 C.3   168  PRO168      0.0939
     58  N         15.9810   24.3560  -49.7120 N.am  169  SER169     -0.1936
     59  CA        14.8900   23.9200  -50.5830 C.3   169  SER169      0.2055
     60  C         14.3030   22.6040  -50.0960 C.2   169  SER169      0.2643
     61  O         15.0730   21.6800  -49.7180 O.2   169  SER169     -0.2714
     62  CB        15.4230   23.7580  -52.0320 C.3   169  SER169      0.2130
     63  OG        14.3690   23.6180  -52.9770 O.3   169  SER169     -0.2179
     64  N         12.9750   22.4950  -50.1360 N.am  170  GLU170     -0.1963
     65  CA        12.2940   21.2090  -49.7680 C.3   170  GLU170      0.1733
     66  C         12.7710   20.1320  -50.7280 C.2   170  GLU170      0.2616
     67  O         13.5130   19.2400  -50.2530 O.2   170  GLU170     -0.2715
     68  CB        10.7730   21.2440  -49.7800 C.3   170  GLU170      0.0429
     69  CG        10.1440   22.5060  -49.2350 C.3   170  GLU170      0.1163
     70  CD        10.2160   23.6920  -50.1860 C.2   170  GLU170      0.3649
     71  OE1       11.3950   24.0560  -50.5170 O.co2 170  GLU170     -0.2457
     72  OE2        9.1800   24.2270  -50.5980 O.co2 170  GLU170     -0.2457
     73  N         12.9750   20.4530  -51.9950 N.am  171  ARG171     -0.1977
     74  CA        13.1300   19.4460  -53.0140 C.3   171  ARG171      0.1597
     75  C         14.4580   18.6800  -53.1100 C.2   171  ARG171      0.2287
     76  O         14.5520   17.7520  -53.8640 O.2   171  ARG171     -0.2864
     77  CB        12.9680   20.1530  -54.3710 C.3   171  ARG171      0.0334
     78  CG        11.6960   20.8840  -54.6520 C.3   171  ARG171      0.0492
     79  CD        11.3860   20.6560  -56.1780 C.3   171  ARG171      0.2205
     80  NE        11.6630   21.8160  -57.0110 N.pl3 171  ARG171     -0.0865
     81  CZ        10.8960   22.9130  -57.0340 C.cat 171  ARG171      0.5346
     82  NH1        9.8020   23.0270  -56.2680 N.pl3 171  ARG171      0.1354
     83  NH2       11.2100   23.9290  -57.8460 N.pl3 171  ARG171      0.1354
     84  N         11.1180   23.5140  -44.4660 N.3   198  GLY198     -0.1210
     85  CA         9.8100   24.1860  -44.4730 C.3   198  GLY198      0.1956
     86  C          9.4370   24.7870  -45.8090 C.2   198  GLY198      0.2612
     87  O          9.9870   24.4070  -46.8200 O.2   198  GLY198     -0.2717
     88  N          8.5060   25.7300  -45.8020 N.am  199  ASP199     -0.1959
     89  CA         7.9830   26.3560  -47.0130 C.3   199  ASP199      0.1840
     90  C          7.5790   27.8120  -46.6740 C.2   199  ASP199      0.2621
     91  O          8.0610   28.3630  -45.6750 O.2   199  ASP199     -0.2715
     92  CB         6.8160   25.5010  -47.5320 C.3   199  ASP199      0.1450
     93  CG         5.5680   25.5830  -46.6630 C.2   199  ASP199      0.3671
     94  OD1        5.6170   26.1530  -45.5570 O.co2 199  ASP199     -0.2456
     95  OD2        4.4960   25.0860  -47.1010 O.co2 199  ASP199     -0.2456
     96  N          6.6660   28.4010  -47.4580 N.am  200  LYS200     -0.1977
     97  CA         6.2150   29.7870  -47.2350 C.3   200  LYS200      0.1596
     98  C          5.9460   30.1200  -45.7600 C.2   200  LYS200      0.2287
     99  O          6.2140   31.2450  -45.3270 O.2   200  LYS200     -0.2864
    100  CB         4.9810   30.1140  -48.0990 C.3   200  LYS200      0.0298
    101  CG         4.2370   31.4100  -47.7580 C.3   200  LYS200      0.0038
    102  CD         3.8440   32.4090  -48.8480 C.3   200  LYS200      0.0206
    103  CE         3.0380   33.5170  -48.1790 C.3   200  LYS200      0.1093
    104  NZ         2.9700   34.8230  -48.8860 N.3   200  LYS200     -0.1314
    105  N          9.3860   30.5170  -44.1150 N.3   203  VAL203     -0.1245
    106  CA        10.0100   31.7430  -44.5900 C.3   203  VAL203      0.1561
    107  C          9.3390   32.9560  -43.9600 C.2   203  VAL203      0.2260
    108  O         10.0280   33.8530  -43.4380 O.2   203  VAL203     -0.2867
    109  CB         9.9920   31.8260  -46.1390 C.3   203  VAL203      0.0252
    110  CG1       10.4180   33.2130  -46.6560 C.3   203  VAL203      0.0019
    111  CG2       10.8280   30.6810  -46.7500 C.3   203  VAL203      0.0019
    112  N         18.6690   35.6910  -49.6720 N.3   217  PHE217     -0.1227
    113  CA        17.8420   34.8420  -50.5230 C.3   217  PHE217      0.1736
    114  C         18.3560   34.7590  -51.9330 C.2   217  PHE217      0.2595
    115  O         18.7270   35.7770  -52.5160 O.2   217  PHE217     -0.2718
    116  CB        16.4250   35.3920  -50.5860 C.3   217  PHE217      0.0547
    117  CG        15.5630   34.7050  -51.5950 C.ar  217  PHE217     -0.0202
    118  CD1       15.0180   33.4660  -51.3300 C.ar  217  PHE217     -0.0042
    119  CD2       15.3200   35.2910  -52.8320 C.ar  217  PHE217     -0.0042
    120  CE1       14.2420   32.8250  -52.2690 C.ar  217  PHE217     -0.0003
    121  CE2       14.5360   34.6510  -53.7760 C.ar  217  PHE217     -0.0003
    122  CZ        13.9980   33.4160  -53.4950 C.ar  217  PHE217     -0.0000
    123  N         18.3290   33.5480  -52.4850 N.am  218  VAL218     -0.1966
    124  CA        18.5350   33.3460  -53.9100 C.3   218  VAL218      0.1727
    125  C         17.4630   32.3870  -54.4370 C.2   218  VAL218      0.2617
    126  O         17.3040   31.2880  -53.9250 O.2   218  VAL218     -0.2715
    127  CB        19.9240   32.7490  -54.1830 C.3   218  VAL218      0.0290
    128  CG1       20.0820   32.4480  -55.6710 C.3   218  VAL218      0.0023
    129  CG2       21.0500   33.6240  -53.6350 C.3   218  VAL218      0.0023
    130  N         16.7270   32.8140  -55.4560 N.am  219  GLY219     -0.1940
    131  CA        15.7010   31.9830  -56.0870 C.3   219  GLY219      0.2014
    132  C         14.9870   32.7200  -57.2210 C.2   219  GLY219      0.2639
    133  O         15.6340   33.2740  -58.1030 O.2   219  GLY219     -0.2714
    134  N         13.6570   32.7380  -57.1910 N.am  220  SER220     -0.1949
    135  CA        12.8720   33.3390  -58.2610 C.3   220  SER220      0.1924
    136  C         12.4970   34.7790  -57.9740 C.2   220  SER220      0.2314
    137  O         12.4310   35.1980  -56.8270 O.2   220  SER220     -0.2863
    138  CB        11.6080   32.5370  -58.4730 C.3   220  SER220      0.2116
    139  OG        10.6670   32.8060  -57.4430 O.3   220  SER220     -0.2180
    140  N          9.3580   35.7730  -55.5180 N.3   223  ILE223     -0.1245
    141  CA         9.7080   35.4820  -54.1290 C.3   223  ILE223      0.1561
    142  C         10.8100   36.4230  -53.6250 C.2   223  ILE223      0.2260
    143  O         10.7900   36.8480  -52.4700 O.2   223  ILE223     -0.2867
    144  CB        10.1130   34.0060  -53.9420 C.3   223  ILE223      0.0252
    145  CG1        8.9380   33.1070  -54.3740 C.3   223  ILE223      0.0019
    146  CG2       10.4790   33.7250  -52.4980 C.3   223  ILE223      0.0019
    147  CD1        9.2190   31.6440  -54.5200 C.3   223  ILE223      0.0001
    148  N          9.3070   39.7840  -52.8850 N.3   226  TYR226     -0.1241
    149  CA         8.5440   39.5920  -51.6540 C.3   226  TYR226      0.1605
    150  C          9.4410   39.8110  -50.4520 C.2   226  TYR226      0.2264
    151  O          9.2650   40.7870  -49.7080 O.2   226  TYR226     -0.2867
    152  CB         7.9280   38.1900  -51.6340 C.3   226  TYR226      0.0534
    153  CG         7.0750   37.8550  -50.4320 C.ar  226  TYR226     -0.0201
    154  CD1        5.9750   38.6390  -50.1060 C.ar  226  TYR226     -0.0009
    155  CD2        7.3340   36.7190  -49.6510 C.ar  226  TYR226     -0.0009
    156  CE1        5.1430   38.3000  -49.0430 C.ar  226  TYR226      0.0417
    157  CE2        6.5470   36.4040  -48.5580 C.ar  226  TYR226      0.0417
    158  CZ         5.4460   37.1820  -48.2670 C.ar  226  TYR226      0.1957
    159  OH         4.6620   36.8580  -47.1930 O.3   226  TYR226     -0.2866
    160  N         11.5390   27.1770  -68.1250 N.3   358  PHE358     -0.1241
    161  CA        12.5410   26.1170  -68.0700 C.3   358  PHE358      0.1605
    162  C         12.7830   25.5830  -69.4990 C.2   358  PHE358      0.2264
    163  O         11.8290   25.4280  -70.2880 O.2   358  PHE358     -0.2867
    164  CB        12.0790   24.9700  -67.1520 C.3   358  PHE358      0.0534
    165  CG        12.1180   25.2470  -65.6810 C.ar  358  PHE358     -0.0203
    166  CD1       13.1030   26.0540  -65.0990 C.ar  358  PHE358     -0.0042
    167  CD2       11.1460   24.6550  -64.8550 C.ar  358  PHE358     -0.0042
    168  CE1       13.1410   26.2390  -63.7300 C.ar  358  PHE358     -0.0003
    169  CE2       11.1720   24.8550  -63.4810 C.ar  358  PHE358     -0.0003
    170  CZ        12.1870   25.6470  -62.9200 C.ar  358  PHE358     -0.0000
@<TRIPOS>BOND
     1   163   162    2
     2   162   161    1
     3   160   161    1
     4   161   164    1
     5   164   165    1
     6   165   166   ar
     7   165   167   ar
     8   166   168   ar
     9   167   169   ar
    10   168   170   ar
    11   169   170   ar
    12    41    39   am
    13    38    39    1
    14    38    35    1
    15    32    30   ar
    16    32    33   ar
    17    39    40    2
    18    30    28   ar
    19   138   135    1
    20   138   139    1
    21    33    31   ar
    22   135   136    1
    23   135   134    1
    24   133   132    2
    25    35    34    1
    26    35    36    1
    27   136   137    2
    28    83    81    1
    29    34    25   am
    30    28    27    1
    31    28    29   ar
    32   132   134   am
    33   132   131    1
    34    31    29   ar
    35    81    80    2
    36    81    82    1
    37    36    37    2
    38    80    79    1
    39    27    24    1
    40    25    26    2
    41    25    24    1
    42    79    78    1
    43   131   130    1
    44    24    23    1
    45   128   127    1
    46   140   141    1
    47   130   125   am
    48    23    18   am
    49    20    21    1
    50    20    17    1
    51    21    22    1
    52    78    77    1
    53   147   145    1
    54   125   126    2
    55   125   124    1
    56   145   144    1
    57    77    74    1
    58    18    17    1
    59    18    19    2
    60   127   124    1
    61   127   129    1
    62   141   144    1
    63   141   142    1
    64   144   146    1
    65    17    16    1
    66   124   123    1
    67    76    75    2
    68   121   122   ar
    69   121   119   ar
    70   142   143    2
    71   122   120   ar
    72    22    16    1
    73    75    74    1
    74    74    73    1
    75    63    62    1
    76   148   149    1
    77    16    11   am
    78   119   117   ar
    79   115   114    2
    80   123   114   am
    81   120   118   ar
    82    62    59    1
    83    73    66   am
    84   114   113    1
    85   149   152    1
    86   149   150    1
    87   152   153    1
    88   117   118   ar
    89   117   116    1
    90    11    12    2
    91    11    10    1
    92    15    13    1
    93    66    67    2
    94    66    65    1
    95    72    70   ar
    96   116   113    1
    97    59    60    1
    98    59    58    1
    99   113   112    1
   100    71    70   ar
   101    10    13    1
   102    10     9    1
   103   150   151    2
   104   153   154   ar
   105   153   155   ar
   106    70    69    1
   107    64    60   am
   108    64    65    1
   109   154   156   ar
   110    60    61    2
   111     4     3    2
   112    13    14    1
   113    68    65    1
   114    68    69    1
   115    58    53   am
   116   155   157   ar
   117     9     3   am
   118     3     2    1
   119   156   158   ar
   120   104   103    1
   121   102   103    1
   122   102   101    1
   123     7     5    1
   124   157   158   ar
   125    53    54    2
   126    53    52    1
   127   158   159    1
   128   100   101    1
   129   100    97    1
   130    50    49    1
   131     5     2    1
   132     5     6    1
   133     2     1    1
   134    52    55    1
   135    52    51    1
   136    92    89    1
   137    92    93    1
   138    55    56    1
   139    96    97    1
   140    96    90   am
   141    97    98    1
   142    95    93   ar
   143    89    90    1
   144    89    88    1
   145    45    44    2
   146    87    86    2
   147   111   109    1
   148    49    48    1
   149    90    91    2
   150    93    94   ar
   151   110   109    1
   152     8     6    1
   153    51    44   am
   154    51    57    1
   155    56    57    1
   156   109   106    1
   157    44    43    1
   158    86    88   am
   159    86    85    1
   160    98    99    2
   161    48    47    1
   162    47    46    1
   163   106   105    1
   164   106   107    1
   165    43    46    1
   166    43    42    1
   167    85    84    1
   168   107   108    2
