@<TRIPOS>MOLECULE
tmp/5tjxA00.pdb
 184 178 0 0 0
SMALL
GASTEIGER

@<TRIPOS>ATOM
      1  N        -19.6630    0.0070  -18.9060 N.3    44  HIS44      -0.1241
      2  CA       -19.5340   -1.3080  -18.2770 C.3    44  HIS44       0.1621
      3  C        -20.4070   -1.4580  -17.0380 C.2    44  HIS44       0.2264
      4  O        -20.6330   -2.5890  -16.5870 O.2    44  HIS44      -0.2867
      5  CB       -18.0620   -1.6630  -17.9940 C.3    44  HIS44       0.0745
      6  CG       -17.5080   -1.0620  -16.7390 C.ar   44  HIS44       0.0817
      7  ND1      -16.5780   -0.0400  -16.7440 N.ar   44  HIS44      -0.2268
      8  CD2      -17.7220   -1.3670  -15.4380 C.ar   44  HIS44       0.1154
      9  CE1      -16.2580    0.2670  -15.4990 C.ar   44  HIS44       0.1986
     10  NE2      -16.9410   -0.5210  -14.6880 N.ar   44  HIS44      -0.2212
     11  N        -23.1460   -4.0080  -17.7460 N.3    47  ASP47      -0.1239
     12  CA       -22.7670   -5.3270  -18.2460 C.3    47  ASP47       0.1674
     13  C        -23.6830   -6.4520  -17.7640 C.2    47  ASP47       0.2266
     14  O        -23.7360   -7.5050  -18.4100 O.2    47  ASP47      -0.2867
     15  CB       -21.3440   -5.6800  -17.8000 C.3    47  ASP47       0.1410
     16  CG       -20.2550   -4.9540  -18.5840 C.2    47  ASP47       0.3668
     17  OD1      -20.5300   -4.3200  -19.6270 O.co2  47  ASP47      -0.2456
     18  OD2      -19.0870   -5.0580  -18.1470 O.co2  47  ASP47      -0.2456
     19  N        -18.7940   -0.0010  -27.7720 N.3    85  TYR85      -0.1241
     20  CA       -18.3580   -0.6330  -26.5350 C.3    85  TYR85       0.1605
     21  C        -18.5840   -2.1450  -26.5940 C.2    85  TYR85       0.2264
     22  O        -19.6310   -2.6140  -27.0540 O.2    85  TYR85      -0.2867
     23  CB       -19.1130   -0.0390  -25.3390 C.3    85  TYR85       0.0534
     24  CG       -18.8960   -0.8440  -24.0880 C.ar   85  TYR85      -0.0201
     25  CD1      -17.7180   -0.7290  -23.3590 C.ar   85  TYR85      -0.0009
     26  CD2      -19.8420   -1.7730  -23.6650 C.ar   85  TYR85      -0.0009
     27  CE1      -17.5020   -1.4910  -22.2240 C.ar   85  TYR85       0.0417
     28  CE2      -19.6350   -2.5350  -22.5310 C.ar   85  TYR85       0.0417
     29  CZ       -18.4690   -2.4030  -21.8220 C.ar   85  TYR85       0.1957
     30  OH       -18.2610   -3.1640  -20.6940 O.3    85  TYR85      -0.2866
     31  N        -15.9360   -6.4090  -21.2600 N.3    88  SER88      -0.1202
     32  CA       -14.6080   -6.8440  -20.8090 C.3    88  SER88       0.2020
     33  C        -13.4670   -6.2250  -21.6080 C.2    88  SER88       0.2619
     34  O        -12.3370   -6.7290  -21.5780 O.2    88  SER88      -0.2717
     35  CB       -14.4680   -8.3690  -20.7580 C.3    88  SER88       0.2103
     36  OG       -15.3370   -8.9240  -19.7880 O.3    88  SER88      -0.2182
     37  N        -13.7430   -5.1500  -22.3370 N.am   89  GLU89      -0.1965
     38  CA       -12.7360   -4.4450  -23.1110 C.3    89  GLU89       0.1733
     39  C        -12.8490   -2.9610  -22.8070 C.2    89  GLU89       0.2617
     40  O        -13.8860   -2.4680  -22.3520 O.2    89  GLU89      -0.2715
     41  CB       -12.8590   -4.7240  -24.6220 C.3    89  GLU89       0.0429
     42  CG       -12.6890   -6.1970  -24.9740 C.3    89  GLU89       0.1163
     43  CD       -12.6720   -6.4540  -26.4700 C.2    89  GLU89       0.3649
     44  OE1      -12.6870   -7.6390  -26.8670 O.co2  89  GLU89      -0.2457
     45  OE2      -12.6380   -5.4810  -27.2530 O.co2  89  GLU89      -0.2457
     46  N        -11.7540   -2.2470  -23.0470 N.am   90  GLY90      -0.1940
     47  CA       -11.6650   -0.8880  -22.5620 C.3    90  GLY90       0.2014
     48  C        -12.2850    0.1590  -23.4550 C.2    90  GLY90       0.2638
     49  O        -12.7190    1.2010  -22.9660 O.2    90  GLY90      -0.2714
     50  N        -12.3460   -0.0790  -24.7570 N.am   91  ASN91      -0.1972
     51  CA       -12.6800    1.0150  -25.6600 C.3    91  ASN91       0.1688
     52  C        -14.1080    1.5100  -25.4610 C.2    91  ASN91       0.2292
     53  O        -15.0470    0.7270  -25.2850 O.2    91  ASN91      -0.2864
     54  CB       -12.4740    0.5930  -27.1070 C.3    91  ASN91       0.1181
     55  CG       -11.0330    0.2700  -27.4180 C.2    91  ASN91       0.2629
     56  OD1      -10.1240    1.0310  -27.0890 O.2    91  ASN91      -0.2716
     57  ND2      -10.8140   -0.8670  -28.0690 N.am   91  ASN91      -0.0877
     58  N        -15.7760    3.1510  -23.1460 N.3    93  ASP93      -0.1239
     59  CA       -16.4560    2.8510  -21.8860 C.3    93  ASP93       0.1674
     60  C        -17.2040    4.1000  -21.4340 C.2    93  ASP93       0.2266
     61  O        -16.7700    4.8530  -20.5580 O.2    93  ASP93      -0.2867
     62  CB       -15.4570    2.3640  -20.8460 C.3    93  ASP93       0.1410
     63  CG       -16.1240    1.6830  -19.6720 C.2    93  ASP93       0.3668
     64  OD1      -17.3730    1.5140  -19.6840 O.co2  93  ASP93      -0.2456
     65  OD2      -15.3910    1.2990  -18.7370 O.co2  93  ASP93      -0.2456
     66  N         -1.9980   -3.4650  -23.4200 N.3   160  TYR160     -0.1227
     67  CA        -3.2220   -2.9040  -23.9740 C.3   160  TYR160      0.1736
     68  C         -2.8590   -1.7550  -24.9030 C.2   160  TYR160      0.2595
     69  O         -1.7200   -1.2780  -24.9290 O.2   160  TYR160     -0.2718
     70  CB        -4.1790   -2.4080  -22.8740 C.3   160  TYR160      0.0548
     71  CG        -4.7730   -3.5160  -22.0360 C.ar  160  TYR160     -0.0200
     72  CD1       -5.7710   -4.3350  -22.5490 C.ar  160  TYR160     -0.0009
     73  CD2       -4.3260   -3.7570  -20.7420 C.ar  160  TYR160     -0.0009
     74  CE1       -6.3110   -5.3630  -21.8000 C.ar  160  TYR160      0.0417
     75  CE2       -4.8670   -4.7790  -19.9800 C.ar  160  TYR160      0.0417
     76  CZ        -5.8630   -5.5780  -20.5170 C.ar  160  TYR160      0.1957
     77  OH        -6.4090   -6.6050  -19.7840 O.3   160  TYR160     -0.2866
     78  N         -3.8350   -1.3170  -25.6820 N.am  161  LYS161     -0.1966
     79  CA        -3.6890   -0.1320  -26.5150 C.3   161  LYS161      0.1728
     80  C         -4.3640    1.0240  -25.7830 C.2   161  LYS161      0.2616
     81  O         -5.5890    1.0320  -25.6150 O.2   161  LYS161     -0.2715
     82  CB        -4.3030   -0.3660  -27.8930 C.3   161  LYS161      0.0311
     83  CG        -4.2730    0.8410  -28.8190 C.3   161  LYS161      0.0038
     84  CD        -2.8660    1.2630  -29.1970 C.3   161  LYS161      0.0206
     85  CE        -2.9060    2.5130  -30.0660 C.3   161  LYS161      0.1093
     86  NZ        -1.5510    3.0010  -30.4350 N.3   161  LYS161     -0.1314
     87  N         -3.5610    1.9720  -25.3100 N.am  162  ILE162     -0.1977
     88  CA        -4.0780    3.1940  -24.7010 C.3   162  ILE162      0.1596
     89  C         -4.2940    4.1930  -25.8300 C.2   162  ILE162      0.2287
     90  O         -3.3320    4.6770  -26.4340 O.2   162  ILE162     -0.2864
     91  CB        -3.1190    3.7480  -23.6410 C.3   162  ILE162      0.0276
     92  CG1       -2.8120    2.6840  -22.5830 C.3   162  ILE162      0.0022
     93  CG2       -3.7130    4.9910  -22.9880 C.3   162  ILE162      0.0022
     94  CD1       -4.0390    2.1300  -21.8940 C.3   162  ILE162      0.0001
     95  N         -8.6830    7.8820  -24.3770 N.3   166  MET166     -0.1245
     96  CA        -8.5080    7.6180  -22.9580 C.3   166  MET166      0.1570
     97  C         -7.5840    8.6640  -22.3550 C.2   166  MET166      0.2261
     98  O         -6.7670    9.2760  -23.0490 O.2   166  MET166     -0.2867
     99  CB        -7.8740    6.2450  -22.7470 C.3   166  MET166      0.0387
    100  CG        -8.7000    5.1140  -23.3210 C.3   166  MET166      0.0595
    101  SD        -7.7800    3.5770  -23.4510 S.3   166  MET166     -0.1393
    102  CE        -9.0840    2.4760  -23.9830 C.3   166  MET166      0.0692
    103  N         -5.9900    6.2890   -6.1040 N.3   177  ASP177     -0.1225
    104  CA        -6.5950    5.7780   -7.3360 C.3   177  ASP177      0.1805
    105  C         -8.0900    5.6110   -7.1040 C.2   177  ASP177      0.2598
    106  O         -8.5600    5.5900   -5.9640 O.2   177  ASP177     -0.2718
    107  CB        -5.9510    4.4200   -7.7040 C.3   177  ASP177      0.1424
    108  CG        -6.2920    3.9100   -9.1170 C.2   177  ASP177      0.3668
    109  OD1       -6.8070    4.6640   -9.9690 O.co2 177  ASP177     -0.2456
    110  OD2       -5.9880    2.7180   -9.3760 O.co2 177  ASP177     -0.2456
    111  N         -8.8310    5.4970   -8.2020 N.am  178  ALA178     -0.1966
    112  CA       -10.1840    4.9710   -8.1460 C.3   178  ALA178      0.1728
    113  C        -10.1360    3.4450   -8.0930 C.2   178  ALA178      0.2616
    114  O         -9.0920    2.8250   -8.3210 O.2   178  ALA178     -0.2715
    115  CB       -10.9880    5.4640   -9.3510 C.3   178  ALA178      0.0334
    116  N        -11.2680    2.8310   -7.7560 N.am  179  CYS179     -0.1954
    117  CA       -11.3240    1.3790   -7.6090 C.3   179  CYS179      0.1843
    118  C        -12.7420    0.9010   -7.9380 C.2   179  CYS179      0.2625
    119  O        -13.5730    1.6630   -8.4410 O.2   179  CYS179     -0.2714
    120  CB       -10.8160    0.9750   -6.2170 C.3   179  CYS179      0.0997
    121  SG       -10.3050   -0.7760   -6.0150 S.3   179  CYS179     -0.0797
    122  N        -13.0230   -0.3760   -7.6650 N.am  180  LYS180     -0.1977
    123  CA       -14.3560   -0.9070   -7.9320 C.3   180  LYS180      0.1596
    124  C        -15.3990   -0.1040   -7.1670 C.2   180  LYS180      0.2287
    125  O        -15.2050    0.2360   -5.9980 O.2   180  LYS180     -0.2864
    126  CB       -14.4300   -2.3770   -7.5130 C.3   180  LYS180      0.0298
    127  CG       -13.5130   -3.2910   -8.2870 C.3   180  LYS180      0.0038
    128  CD       -13.8250   -4.7360   -7.9540 C.3   180  LYS180      0.0206
    129  CE       -12.9780   -5.6840   -8.7690 C.3   180  LYS180      0.1093
    130  NZ       -13.5290   -7.0740   -8.7120 N.3   180  LYS180     -0.1314
    131  N        -16.4840    3.3250  -10.6910 N.3   183  SER183     -0.1217
    132  CA       -16.7130    3.3180  -12.1310 C.3   183  SER183      0.1889
    133  C        -17.8500    4.2480  -12.5120 C.2   183  SER183      0.2288
    134  O        -18.9080    4.2600  -11.8750 O.2   183  SER183     -0.2866
    135  CB       -17.1050    1.9100  -12.5650 C.3   183  SER183      0.2089
    136  OG       -16.0220    1.0100  -12.3850 O.3   183  SER183     -0.2183
    137  N        -14.4410    7.5470  -14.9080 N.3   201  THR201     -0.1203
    138  CA       -13.6840    6.4740  -14.2760 C.3   201  THR201      0.1994
    139  C        -13.9990    5.1300  -14.9140 C.2   201  THR201      0.2619
    140  O        -15.1630    4.7200  -14.9980 O.2   201  THR201     -0.2717
    141  CB       -14.0460    6.4650  -12.8000 C.3   201  THR201      0.1784
    142  OG1      -13.6360    7.7130  -12.2460 O.3   201  THR201     -0.2211
    143  CG2      -13.3430    5.3430  -12.0510 C.3   201  THR201      0.0376
    144  N        -12.9510    4.4170  -15.3340 N.am  202  SER202     -0.1937
    145  CA       -13.1280    3.1770  -16.0840 C.3   202  SER202      0.2055
    146  C        -12.4080    1.9610  -15.5020 C.2   202  SER202      0.2643
    147  O        -13.0630    0.9660  -15.1780 O.2   202  SER202     -0.2714
    148  CB       -12.7400    3.3750  -17.5510 C.3   202  SER202      0.2130
    149  OG       -12.8370    2.1480  -18.2660 O.3   202  SER202     -0.2179
    150  N        -11.0780    1.9970  -15.3900 N.am  203  TRP203     -0.1959
    151  CA       -10.3300    0.7590  -15.1980 C.3   203  TRP203      0.1771
    152  C         -8.9420    1.0370  -14.6330 C.2   203  TRP203      0.2620
    153  O         -8.3900    2.1320  -14.7720 O.2   203  TRP203     -0.2715
    154  CB       -10.1950    0.0070  -16.5330 C.3   203  TRP203      0.0590
    155  CG        -9.4050   -1.2640  -16.4930 C.ar  203  TRP203      0.0006
    156  CD1       -9.8740   -2.5130  -16.2120 C.ar  203  TRP203      0.0946
    157  CD2       -8.0090   -1.4170  -16.7880 C.ar  203  TRP203      0.0152
    158  NE1       -8.8580   -3.4320  -16.2930 N.ar  203  TRP203     -0.2442
    159  CE2       -7.6990   -2.7880  -16.6450 C.ar  203  TRP203      0.0810
    160  CE3       -6.9860   -0.5230  -17.1440 C.ar  203  TRP203      0.0012
    161  CZ2       -6.4140   -3.2960  -16.8520 C.ar  203  TRP203      0.0191
    162  CZ3       -5.7070   -1.0300  -17.3580 C.ar  203  TRP203      0.0001
    163  CH2       -5.4340   -2.4050  -17.2100 C.ar  203  TRP203      0.0015
    164  N         -8.3890    0.0040  -14.0030 N.am  204  GLY204     -0.1954
    165  CA        -6.9700   -0.0980  -13.7000 C.3   204  GLY204      0.1869
    166  C         -6.6210   -1.5480  -13.4580 C.2   204  GLY204      0.2309
    167  O         -7.5040   -2.3910  -13.2810 O.2   204  GLY204     -0.2863
    168  N         -5.4540   -3.9280  -10.9100 N.3   206  GLY206     -0.1210
    169  CA        -5.4780   -3.7270   -9.4710 C.3   206  GLY206      0.1956
    170  C         -5.9960   -2.3250   -9.1850 C.2   206  GLY206      0.2612
    171  O         -6.6150   -1.6860  -10.0280 O.2   206  GLY206     -0.2717
    172  N         -5.7160   -1.8460   -7.9730 N.am  207  CYS207     -0.1970
    173  CA        -6.0520   -0.4810   -7.5830 C.3   207  CYS207      0.1712
    174  C         -4.8670    0.1470   -6.8660 C.2   207  CYS207      0.2296
    175  O         -4.3140   -0.4450   -5.9320 O.2   207  CYS207     -0.2864
    176  CB        -7.2860   -0.4310   -6.6670 C.3   207  CYS207      0.0983
    177  SG        -8.8090   -1.0950   -7.4020 S.3   207  CYS207     -0.0798
    178  N         -7.1420    4.4040  -15.7180 N.3   215  VAL215     -0.1245
    179  CA        -7.5380    4.6940  -17.0890 C.3   215  VAL215      0.1561
    180  C         -8.9690    5.2140  -17.0670 C.2   215  VAL215      0.2260
    181  O         -9.8510    4.6040  -16.4490 O.2   215  VAL215     -0.2867
    182  CB        -7.4140    3.4460  -17.9760 C.3   215  VAL215      0.0252
    183  CG1       -7.8850    3.7600  -19.3960 C.3   215  VAL215      0.0019
    184  CG2       -5.9650    2.9210  -17.9500 C.3   215  VAL215      0.0019
@<TRIPOS>BOND
     1    86    85    1
     2    85    84    1
     3    84    83    1
     4    83    82    1
     5    57    55   am
     6    82    79    1
     7    19    20    1
     8    55    54    1
     9    55    56    2
    10    45    43   ar
    11    54    51    1
    12    22    21    2
    13    44    43   ar
    14    21    20    1
    15    20    23    1
    16    79    80    1
    17    79    78    1
    18    43    42    1
    19    90    89    2
    20    89    88    1
    21    80    81    2
    22    80    87   am
    23    78    68   am
    24    51    52    1
    25    51    50    1
    26    52    53    2
    27    23    24    1
    28    87    88    1
    29    42    41    1
    30    69    68    2
    31    68    67    1
    32    50    48   am
    33    88    91    1
    34    41    38    1
    35    95    96    1
    36    24    26   ar
    37    24    25   ar
    38   102   101    1
    39    67    66    1
    40    67    70    1
    41    26    28   ar
    42    91    93    1
    43    91    92    1
    44    48    49    2
    45    48    47    1
    46   101   100    1
    47    25    27   ar
    48   100    99    1
    49    58    59    1
    50    38    39    1
    51    38    37    1
    52    98    97    2
    53    46    39   am
    54    46    47    1
    55    96    99    1
    56    96    97    1
    57    70    71    1
    58    39    40    2
    59    92    94    1
    60    72    71   ar
    61    72    74   ar
    62    28    29   ar
    63    37    33   am
    64    27    29   ar
    65    71    73   ar
    66    59    60    1
    67    59    62    1
    68    29    30    1
    69    74    76   ar
    70    33    34    2
    71    33    32    1
    72    60    61    2
    73    31    32    1
    74    62    63    1
    75    32    35    1
    76    35    36    1
    77    73    75   ar
    78    76    75   ar
    79    76    77    1
    80    64    63   ar
    81    63    65   ar
    82    17    16   ar
    83   183   182    1
    84     1     2    1
    85    16    18   ar
    86    16    15    1
    87    14    13    2
    88     2     5    1
    89     2     3    1
    90   149   148    1
    91    12    15    1
    92    12    13    1
    93    12    11    1
    94     5     6    1
    95   182   184    1
    96   182   179    1
    97   148   145    1
    98   162   163   ar
    99   162   160   ar
   100   163   161   ar
   101   160   157   ar
   102   179   180    1
   103   179   178    1
   104   180   181    2
   105     3     4    2
   106   161   159   ar
   107   157   159   ar
   108   157   155   ar
   109     7     6   ar
   110     7     9   ar
   111     6     8   ar
   112   159   158   ar
   113   154   155    1
   114   154   151    1
   115   155   156   ar
   116   158   156   ar
   117   145   146    1
   118   145   144    1
   119   146   150   am
   120   146   147    2
   121     9    10   ar
   122     8    10   ar
   123   150   151    1
   124   144   139   am
   125   151   152    1
   126   140   139    2
   127   139   138    1
   128   137   138    1
   129   153   152    2
   130   152   164   am
   131   138   141    1
   132   164   165    1
   133   165   166    1
   134   166   167    2
   135   141   142    1
   136   141   143    1
   137   135   136    1
   138   135   132    1
   139   133   132    1
   140   133   134    2
   141   132   131    1
   142   168   169    1
   143   171   170    2
   144   109   108   ar
   145   169   170    1
   146   110   108   ar
   147   115   112    1
   148   170   172   am
   149   108   107    1
   150   129   130    1
   151   129   128    1
   152   119   118    2
   153   114   113    2
   154   127   128    1
   155   127   126    1
   156   111   112    1
   157   111   105   am
   158   112   113    1
   159   113   116   am
   160   172   173    1
   161   118   122   am
   162   118   117    1
   163   123   122    1
   164   123   126    1
   165   123   124    1
   166   116   117    1
   167   107   104    1
   168   117   120    1
   169   173   174    1
   170   173   176    1
   171   177   176    1
   172   177   121    1
   173   104   105    1
   174   104   103    1
   175   124   125    2
   176   105   106    2
   177   174   175    2
   178   120   121    1
