@<TRIPOS>MOLECULE
tmp/5tk6A00.pdb
 151 146 0 0 0
SMALL
GASTEIGER

@<TRIPOS>ATOM
      1  N         -2.6590  -14.7520  -24.5960 N.3    15  ARG15      -0.1231
      2  CA        -3.0450  -15.5140  -23.4220 C.3    15  ARG15       0.1694
      3  C         -3.8430  -14.6250  -22.4670 C.2    15  ARG15       0.2592
      4  O         -3.9120  -13.4050  -22.6340 O.2    15  ARG15      -0.2718
      5  CB        -1.7940  -16.1070  -22.7630 C.3    15  ARG15       0.0321
      6  CG        -1.2460  -17.3000  -23.5640 C.3    15  ARG15       0.0489
      7  CD         0.1530  -17.7470  -23.1310 C.3    15  ARG15       0.2205
      8  NE         0.2440  -18.0070  -21.6940 N.pl3  15  ARG15      -0.0865
      9  CZ        -0.0730  -19.1660  -21.1280 C.cat  15  ARG15       0.5346
     10  NH1       -0.5190  -20.1700  -21.8790 N.pl3  15  ARG15       0.1354
     11  NH2        0.0490  -19.3190  -19.8160 N.pl3  15  ARG15       0.1354
     12  N         -4.4880  -15.2620  -21.4860 N.am   16  TRP16      -0.1976
     13  CA        -5.2060  -14.5730  -20.3970 C.3    16  TRP16       0.1640
     14  C         -6.4220  -13.7740  -20.8800 C.2    16  TRP16       0.2290
     15  O         -6.7690  -12.7530  -20.2840 O.2    16  TRP16      -0.2864
     16  CB        -4.2680  -13.6630  -19.5970 C.3    16  TRP16       0.0576
     17  CG        -3.1370  -14.4080  -19.0620 C.ar   16  TRP16       0.0006
     18  CD1       -1.8790  -14.4760  -19.5880 C.ar   16  TRP16       0.0946
     19  CD2       -3.1410  -15.2390  -17.9080 C.ar   16  TRP16       0.0152
     20  NE1       -1.1020  -15.3020  -18.8330 N.ar   16  TRP16      -0.2442
     21  CE2       -1.8480  -15.7910  -17.7940 C.ar   16  TRP16       0.0810
     22  CE3       -4.1170  -15.5950  -16.9700 C.ar   16  TRP16       0.0012
     23  CZ2       -1.4980  -16.6590  -16.7650 C.ar   16  TRP16       0.0191
     24  CZ3       -3.7710  -16.4540  -15.9490 C.ar   16  TRP16       0.0001
     25  CH2       -2.4680  -16.9790  -15.8540 C.ar   16  TRP16       0.0015
     26  N         -8.9930  -11.3230  -18.7310 N.3    19  SER19      -0.1217
     27  CA        -8.3580  -10.7460  -17.5570 C.3    19  SER19       0.1889
     28  C         -7.6060   -9.4940  -17.9690 C.2    19  SER19       0.2288
     29  O         -6.9360   -9.4740  -19.0110 O.2    19  SER19      -0.2866
     30  CB        -7.3900  -11.7250  -16.8880 C.3    19  SER19       0.2089
     31  OG        -8.0410  -12.9390  -16.5540 O.3    19  SER19      -0.2183
     32  N         -5.8800  -19.5560  -27.9390 N.3    74  HIS74      -0.1226
     33  CA        -5.5880  -19.9730  -26.5750 C.3    74  HIS74       0.1752
     34  C         -6.8640  -19.9070  -25.7410 C.2    74  HIS74       0.2596
     35  O         -7.3550  -18.8180  -25.4260 O.2    74  HIS74      -0.2718
     36  CB        -4.4930  -19.1170  -25.9500 C.3    74  HIS74       0.0759
     37  CG        -4.3010  -19.4020  -24.4990 C.ar   74  HIS74       0.0818
     38  ND1       -3.5970  -20.4970  -24.0490 N.ar   74  HIS74      -0.2268
     39  CD2       -4.7710  -18.7740  -23.3960 C.ar   74  HIS74       0.1154
     40  CE1       -3.6150  -20.5130  -22.7270 C.ar   74  HIS74       0.1986
     41  NE2       -4.3140  -19.4730  -22.3060 N.ar   74  HIS74      -0.2212
     42  N         -7.4060  -21.0740  -25.4040 N.am   75  ILE75      -0.1966
     43  CA        -8.6050  -21.1810  -24.5770 C.3    75  ILE75       0.1727
     44  C         -8.1530  -21.2940  -23.1260 C.2    75  ILE75       0.2616
     45  O         -7.4550  -22.2500  -22.7660 O.2    75  ILE75      -0.2715
     46  CB        -9.4490  -22.4020  -24.9800 C.3    75  ILE75       0.0290
     47  CG1       -9.5020  -22.5440  -26.5050 C.3    75  ILE75       0.0022
     48  CG2      -10.8520  -22.3290  -24.3610 C.3    75  ILE75       0.0023
     49  CD1      -10.3640  -21.5180  -27.1870 C.3    75  ILE75       0.0001
     50  N         -8.5510  -20.3240  -22.2910 N.am   76  ILE76      -0.1963
     51  CA        -8.1180  -20.3300  -20.8920 C.3    76  ILE76       0.1727
     52  C         -8.6740  -21.5560  -20.1660 C.2    76  ILE76       0.2617
     53  O         -9.7190  -22.1110  -20.5250 O.2    76  ILE76      -0.2715
     54  CB        -8.5200  -19.0410  -20.1610 C.3    76  ILE76       0.0290
     55  CG1      -10.0420  -18.8950  -20.0900 C.3    76  ILE76       0.0022
     56  CG2       -7.8660  -17.8120  -20.8360 C.3    76  ILE76       0.0023
     57  CD1      -10.4820  -17.7210  -19.2250 C.3    76  ILE76       0.0001
     58  N         -7.9700  -21.9610  -19.1030 N.am   77  SER77      -0.1936
     59  CA        -8.2630  -23.2350  -18.4530 C.3    77  SER77       0.2040
     60  C         -9.6170  -23.2710  -17.7410 C.2    77  SER77       0.2485
     61  O        -10.2400  -24.3360  -17.7220 O.2    77  SER77      -0.2729
     62  CB        -7.1450  -23.6110  -17.4810 C.3    77  SER77       0.2129
     63  OG        -7.2600  -22.9310  -16.2510 O.3    77  SER77      -0.2179
     64  N        -10.1200  -22.1750  -17.1450 N.am   78  PRO78      -0.2726
     65  CA       -11.4960  -22.2270  -16.6140 C.3    78  PRO78       0.1402
     66  C        -12.5290  -22.6150  -17.6520 C.2    78  PRO78       0.2269
     67  O        -13.5870  -23.1520  -17.2990 O.2    78  PRO78      -0.2865
     68  CB       -11.7280  -20.8000  -16.1000 C.3    78  PRO78       0.0296
     69  CG       -10.3870  -20.3260  -15.7390 C.3    78  PRO78       0.0237
     70  CD        -9.4610  -20.9100  -16.7670 C.3    78  PRO78       0.0939
     71  N        -11.6260  -24.3690  -20.8240 N.3    80  LYS80      -0.1231
     72  CA       -11.2270  -25.6520  -21.3950 C.3    80  LYS80       0.1693
     73  C        -11.4490  -26.8110  -20.4250 C.2    80  LYS80       0.2591
     74  O        -11.6860  -27.9440  -20.8640 O.2    80  LYS80      -0.2718
     75  CB        -9.7570  -25.5760  -21.8190 C.3    80  LYS80       0.0285
     76  CG        -9.3580  -26.5170  -22.9370 C.3    80  LYS80       0.0035
     77  CD        -7.9700  -26.1680  -23.4470 C.3    80  LYS80       0.0206
     78  CE        -6.9840  -26.0430  -22.2930 C.3    80  LYS80       0.1093
     79  NZ        -5.5990  -25.7380  -22.7600 N.3    80  LYS80      -0.1314
     80  N        -11.3850  -26.5550  -19.1170 N.am   81  LYS81      -0.1980
     81  CA       -11.5590  -27.5990  -18.1110 C.3    81  LYS81       0.1596
     82  C        -13.0130  -27.8290  -17.7240 C.2    81  LYS81       0.2287
     83  O        -13.2910  -28.7400  -16.9370 O.2    81  LYS81      -0.2864
     84  CB       -10.7460  -27.2770  -16.8530 C.3    81  LYS81       0.0298
     85  CG        -9.2450  -27.4330  -17.0450 C.3    81  LYS81       0.0038
     86  CD        -8.4780  -27.1210  -15.7700 C.3    81  LYS81       0.0206
     87  CE        -8.6520  -28.2110  -14.7260 C.3    81  LYS81       0.1093
     88  NZ        -7.7580  -27.9840  -13.5550 N.3    81  LYS81      -0.1314
     89  N          4.0810  -30.1140  -18.5990 N.3   128  GLU128     -0.1245
     90  CA         2.8490  -29.7170  -17.9300 C.3   128  GLU128      0.1567
     91  C          3.1470  -28.9540  -16.6440 C.2   128  GLU128      0.2260
     92  O          2.5130  -27.9320  -16.3550 O.2   128  GLU128     -0.2867
     93  CB         2.0070  -30.9540  -17.6410 C.3   128  GLU128      0.0388
     94  CG         0.5450  -30.6970  -17.3870 C.3   128  GLU128      0.1160
     95  CD        -0.2510  -31.9940  -17.4490 C.2   128  GLU128      0.3649
     96  OE1       -0.1200  -32.7300  -18.4610 O.co2 128  GLU128     -0.2457
     97  OE2       -0.9830  -32.2870  -16.4770 O.co2 128  GLU128     -0.2457
     98  N          4.5310  -25.5790  -17.5340 N.3   131  ASP131     -0.1225
     99  CA         3.3880  -24.7710  -17.9430 C.3   131  ASP131      0.1805
    100  C          2.6720  -24.1710  -16.7400 C.2   131  ASP131      0.2597
    101  O          2.2640  -23.0020  -16.7650 O.2   131  ASP131     -0.2718
    102  CB         2.4420  -25.6520  -18.7580 C.3   131  ASP131      0.1424
    103  CG         1.5790  -24.8640  -19.6960 C.2   131  ASP131      0.3668
    104  OD1        2.1090  -24.2870  -20.6680 O.co2 131  ASP131     -0.2456
    105  OD2        0.3690  -24.8320  -19.4550 O.co2 131  ASP131     -0.2456
    106  N          2.5040  -24.9560  -15.6720 N.am  132  HIS132     -0.1975
    107  CA         1.8880  -24.4220  -14.4640 C.3   132  HIS132      0.1656
    108  C          2.7970  -23.4140  -13.7790 C.2   132  HIS132      0.2291
    109  O          2.3320  -22.3670  -13.3050 O.2   132  HIS132     -0.2864
    110  CB         1.5400  -25.5360  -13.4830 C.3   132  HIS132      0.0771
    111  CG         0.7860  -25.0350  -12.2980 C.ar  132  HIS132      0.0820
    112  ND1       -0.5830  -24.8850  -12.3050 N.ar  132  HIS132     -0.2267
    113  CD2        1.2100  -24.5560  -11.1060 C.ar  132  HIS132      0.1154
    114  CE1       -0.9730  -24.3780  -11.1510 C.ar  132  HIS132      0.1986
    115  NE2        0.0950  -24.1650  -10.4070 N.ar  132  HIS132     -0.2212
    116  N          2.5470  -20.0960  -15.6380 N.3   135  ALA135     -0.1245
    117  CA         1.3040  -19.4110  -15.2970 C.3   135  ALA135      0.1562
    118  C          1.3910  -18.7620  -13.9210 C.2   135  ALA135      0.2260
    119  O          0.9530  -17.6180  -13.7320 O.2   135  ALA135     -0.2867
    120  CB         0.1300  -20.3910  -15.3520 C.3   135  ALA135      0.0290
    121  N         -5.9620  -15.1050   -8.9470 N.3   153  ILE153     -0.1245
    122  CA        -5.3460  -16.0180   -9.8990 C.3   153  ILE153      0.1561
    123  C         -4.0470  -16.5770   -9.3250 C.2   153  ILE153      0.2260
    124  O         -3.7930  -17.7860   -9.3710 O.2   153  ILE153     -0.2867
    125  CB        -5.1080  -15.3050  -11.2440 C.3   153  ILE153      0.0252
    126  CG1       -6.4330  -14.9100  -11.8910 C.3   153  ILE153      0.0019
    127  CG2       -4.2730  -16.1890  -12.1800 C.3   153  ILE153      0.0019
    128  CD1       -6.2610  -14.1820  -13.2260 C.3   153  ILE153      0.0001
    129  N         -4.8540  -19.2370   -6.5170 N.3   156  SER156     -0.1202
    130  CA        -5.2520  -20.5840   -6.9040 C.3   156  SER156      0.2020
    131  C         -4.1020  -21.3140   -7.5910 C.2   156  SER156      0.2618
    132  O         -3.8700  -22.5040   -7.3330 O.2   156  SER156     -0.2717
    133  CB        -6.5040  -20.5400   -7.7820 C.3   156  SER156      0.2103
    134  OG        -6.2090  -20.1120   -9.0910 O.3   156  SER156     -0.2182
    135  N         -3.3450  -20.6100   -8.4360 N.am  157  LEU157     -0.1979
    136  CA        -2.1610  -21.2170   -9.0430 C.3   157  LEU157      0.1596
    137  C         -1.1270  -21.5850   -7.9860 C.2   157  LEU157      0.2287
    138  O         -0.4880  -22.6420   -8.0740 O.2   157  LEU157     -0.2864
    139  CB        -1.5470  -20.2730  -10.0810 C.3   157  LEU157      0.0297
    140  CG        -2.3530  -20.0210  -11.3580 C.3   157  LEU157      0.0022
    141  CD1       -1.7010  -18.8840  -12.1970 C.3   157  LEU157      0.0001
    142  CD2       -2.4420  -21.2820  -12.1750 C.3   157  LEU157      0.0001
    143  N         -2.4090  -24.7660   -6.1170 N.3   160  LYS160     -0.1245
    144  CA        -2.1500  -25.9560   -6.9190 C.3   160  LYS160      0.1561
    145  C         -0.6610  -26.2690   -6.9720 C.2   160  LYS160      0.2260
    146  O         -0.2660  -27.4360   -6.9480 O.2   160  LYS160     -0.2867
    147  CB        -2.7180  -25.7730   -8.3280 C.3   160  LYS160      0.0271
    148  CG        -2.4610  -26.9390   -9.2870 C.3   160  LYS160      0.0035
    149  CD        -3.2500  -26.7380  -10.5860 C.3   160  LYS160      0.0206
    150  CE        -2.6040  -27.4210  -11.7930 C.3   160  LYS160      0.1093
    151  NZ        -3.1810  -26.9120  -13.0880 N.3   160  LYS160     -0.1314
@<TRIPOS>BOND
     1    32    33    1
     2    49    47    1
     3    33    36    1
     4    33    34    1
     5    47    46    1
     6    36    37    1
     7    34    35    2
     8    34    42   am
     9    42    43    1
    10    46    43    1
    11    46    48    1
    12     1     2    1
    13    43    44    1
    14    37    38   ar
    15    37    39   ar
    16    38    40   ar
    17     6     7    1
    18     6     5    1
    19    77    76    1
    20    77    78    1
    21     2     5    1
    22     2     3    1
    23    39    41   ar
    24     7     8    1
    25    44    45    2
    26    44    50   am
    27    76    75    1
    28    79    78    1
    29    40    41   ar
    30     4     3    2
    31     3    12   am
    32    50    51    1
    33    10     9    1
    34    75    72    1
    35     8     9    2
    36    12    13    1
    37    72    71    1
    38    72    73    1
    39     9    11    1
    40    51    52    1
    41    51    54    1
    42    14    13    1
    43    14    15    2
    44    74    73    2
    45    56    54    1
    46   104   103   ar
    47    53    52    2
    48    73    80   am
    49    13    16    1
    50    52    58   am
    51    54    55    1
    52    55    57    1
    53   103   105   ar
    54   103   102    1
    55    16    17    1
    56    18    17   ar
    57    18    20   ar
    58    80    81    1
    59    58    59    1
    60    17    19   ar
    61    29    28    2
    62    20    21   ar
    63   102    99    1
    64    26    27    1
    65    89    90    1
    66    96    95   ar
    67    59    60    1
    68    59    62    1
    69    81    82    1
    70    81    84    1
    71    28    27    1
    72    99    98    1
    73    99   100    1
    74    90    93    1
    75    90    91    1
    76    19    21   ar
    77    19    22   ar
    78    21    23   ar
    79    60    61    2
    80    60    64   am
    81    82    83    2
    82    66    67    2
    83    66    65    1
    84    93    94    1
    85    27    30    1
    86    62    63    1
    87    95    94    1
    88    95    97   ar
    89    64    70    1
    90    64    65    1
    91    85    84    1
    92    85    86    1
    93    22    24   ar
    94    30    31    1
    95    70    69    1
    96   101   100    2
    97    23    25   ar
    98   100   106   am
    99    91    92    2
   100    65    68    1
   101    68    69    1
   102    24    25   ar
   103    86    87    1
   104   106   107    1
   105   116   117    1
   106   120   117    1
   107   117   118    1
   108    87    88    1
   109   107   108    1
   110   107   110    1
   111   118   119    2
   112   108   109    2
   113   110   111    1
   114   128   126    1
   115   151   150    1
   116   112   111   ar
   117   112   114   ar
   118   111   113   ar
   119   141   140    1
   120   127   125    1
   121   142   140    1
   122   126   125    1
   123   150   149    1
   124   140   139    1
   125   125   122    1
   126   114   115   ar
   127   113   115   ar
   128   149   148    1
   129   139   136    1
   130   122   123    1
   131   122   121    1
   132   124   123    2
   133   148   147    1
   134   134   133    1
   135   136   135    1
   136   136   137    1
   137   135   131   am
   138   147   144    1
   139   138   137    2
   140   133   130    1
   141   131   132    2
   142   131   130    1
   143   145   146    2
   144   145   144    1
   145   144   143    1
   146   130   129    1
