@<TRIPOS>MOLECULE
tmp/5tk7A00.pdb
 187 179 0 0 0
SMALL
GASTEIGER

@<TRIPOS>ATOM
      1  N         -2.7560  -14.7360  -24.5530 N.3    15  ARG15      -0.1231
      2  CA        -3.1400  -15.5080  -23.3860 C.3    15  ARG15       0.1694
      3  C         -3.9360  -14.6370  -22.4150 C.2    15  ARG15       0.2592
      4  O         -3.9750  -13.4080  -22.5360 O.2    15  ARG15      -0.2718
      5  CB        -1.8970  -16.1040  -22.7200 C.3    15  ARG15       0.0321
      6  CG        -1.3450  -17.3100  -23.5200 C.3    15  ARG15       0.0489
      7  CD         0.0390  -17.7540  -23.0590 C.3    15  ARG15       0.2205
      8  NE         0.0830  -18.0260  -21.6260 N.pl3  15  ARG15      -0.0865
      9  CZ        -0.2020  -19.2000  -21.0750 C.cat  15  ARG15       0.5346
     10  NH1       -0.5830  -20.2190  -21.8350 N.pl3  15  ARG15       0.1354
     11  NH2       -0.1250  -19.3500  -19.7590 N.pl3  15  ARG15       0.1354
     12  N         -4.6060  -15.2990  -21.4650 N.am   16  TRP16      -0.1962
     13  CA        -5.3360  -14.6500  -20.3660 C.3    16  TRP16       0.1771
     14  C         -6.5510  -13.8450  -20.8340 C.2    16  TRP16       0.2619
     15  O         -6.8910  -12.8200  -20.2270 O.2    16  TRP16      -0.2715
     16  CB        -4.4160  -13.7510  -19.5350 C.3    16  TRP16       0.0590
     17  CG        -3.2800  -14.5070  -18.9950 C.ar   16  TRP16       0.0006
     18  CD1       -2.0350  -14.5900  -19.5270 C.ar   16  TRP16       0.0946
     19  CD2       -3.2870  -15.3390  -17.8420 C.ar   16  TRP16       0.0152
     20  NE1       -1.2520  -15.4110  -18.7690 N.ar   16  TRP16      -0.2442
     21  CE2       -1.9950  -15.8890  -17.7230 C.ar   16  TRP16       0.0810
     22  CE3       -4.2640  -15.6830  -16.8970 C.ar   16  TRP16       0.0012
     23  CZ2       -1.6400  -16.7620  -16.6890 C.ar   16  TRP16       0.0191
     24  CZ3       -3.9170  -16.5490  -15.8690 C.ar   16  TRP16       0.0001
     25  CH2       -2.6090  -17.0750  -15.7710 C.ar   16  TRP16       0.0015
     26  N         -7.2230  -14.2890  -21.8960 N.am   17  ASP17      -0.1971
     27  CA        -8.4440  -13.6140  -22.3200 C.3    17  ASP17       0.1709
     28  C         -9.3820  -13.4300  -21.1400 C.2    17  ASP17       0.2293
     29  O         -9.4950  -14.3010  -20.2760 O.2    17  ASP17      -0.2864
     30  CB        -9.1710  -14.4010  -23.4080 C.3    17  ASP17       0.1436
     31  CG        -8.5050  -14.2900  -24.7520 C.2    17  ASP17       0.3671
     32  OD1       -7.4740  -13.5950  -24.8680 O.co2  17  ASP17      -0.2456
     33  OD2       -9.0200  -14.9050  -25.7040 O.co2  17  ASP17      -0.2456
     34  N         -9.0940  -11.3790  -18.6260 N.3    19  SER19      -0.1217
     35  CA        -8.4510  -10.7780  -17.4610 C.3    19  SER19       0.1889
     36  C         -7.6690   -9.5360  -17.8770 C.2    19  SER19       0.2288
     37  O         -6.9790   -9.5400  -18.9060 O.2    19  SER19      -0.2866
     38  CB        -7.4740  -11.7510  -16.7670 C.3    19  SER19       0.2089
     39  OG        -8.0560  -13.0190  -16.5070 O.3    19  SER19      -0.2183
     40  N          2.3740  -25.8670  -27.4550 N.3    66  ASP66      -0.1239
     41  CA         1.1080  -25.1770  -27.6920 C.3    66  ASP66       0.1674
     42  C          0.9420  -24.7850  -29.1500 C.2    66  ASP66       0.2266
     43  O          0.1280  -23.9180  -29.4660 O.2    66  ASP66      -0.2867
     44  CB         0.9760  -23.9400  -26.7990 C.3    66  ASP66       0.1410
     45  CG         0.6030  -24.2940  -25.3660 C.2    66  ASP66       0.3668
     46  OD1        0.0230  -25.3800  -25.1410 O.co2  66  ASP66      -0.2456
     47  OD2        0.8890  -23.4880  -24.4660 O.co2  66  ASP66      -0.2456
     48  N         -2.3210  -24.0770  -30.9110 N.3    69  GLU69      -0.1245
     49  CA        -3.1260  -22.9000  -30.6220 C.3    69  GLU69       0.1567
     50  C         -3.0930  -21.8700  -31.7480 C.2    69  GLU69       0.2260
     51  O         -3.8830  -20.9170  -31.7140 O.2    69  GLU69      -0.2867
     52  CB        -2.6830  -22.3140  -29.2790 C.3    69  GLU69       0.0388
     53  CG        -2.9370  -23.3160  -28.1400 C.3    69  GLU69       0.1160
     54  CD        -2.7110  -22.7520  -26.7570 C.2    69  GLU69       0.3649
     55  OE1       -2.2070  -21.6170  -26.6660 O.co2  69  GLU69      -0.2457
     56  OE2       -3.0270  -23.4530  -25.7620 O.co2  69  GLU69      -0.2457
     57  N         -5.9460  -19.6440  -27.9100 N.3    74  HIS74      -0.1226
     58  CA        -5.6580  -20.0690  -26.5420 C.3    74  HIS74       0.1752
     59  C         -6.9400  -19.9960  -25.7190 C.2    74  HIS74       0.2596
     60  O         -7.4120  -18.9050  -25.3760 O.2    74  HIS74      -0.2718
     61  CB        -4.5580  -19.2220  -25.9070 C.3    74  HIS74       0.0759
     62  CG        -4.3710  -19.5150  -24.4540 C.ar   74  HIS74       0.0818
     63  ND1       -3.6800  -20.6220  -24.0030 N.ar   74  HIS74      -0.2268
     64  CD2       -4.8300  -18.8790  -23.3490 C.ar   74  HIS74       0.1154
     65  CE1       -3.6990  -20.6360  -22.6800 C.ar   74  HIS74       0.1986
     66  NE2       -4.3870  -19.5880  -22.2600 N.ar   74  HIS74      -0.2212
     67  N         -7.5030  -21.1620  -25.4080 N.am   75  ILE75      -0.1966
     68  CA        -8.6990  -21.2730  -24.5750 C.3    75  ILE75       0.1727
     69  C         -8.2450  -21.3730  -23.1250 C.2    75  ILE75       0.2616
     70  O         -7.5240  -22.3100  -22.7620 O.2    75  ILE75      -0.2715
     71  CB        -9.5320  -22.5040  -24.9670 C.3    75  ILE75       0.0290
     72  CG1       -9.5830  -22.6620  -26.4880 C.3    75  ILE75       0.0022
     73  CG2      -10.9420  -22.4400  -24.3650 C.3    75  ILE75       0.0023
     74  CD1      -10.5090  -21.6930  -27.1780 C.3    75  ILE75       0.0001
     75  N         -8.6720  -20.4160  -22.2930 N.am   76  ILE76      -0.1963
     76  CA        -8.2230  -20.4060  -20.9090 C.3    76  ILE76       0.1727
     77  C         -8.7350  -21.6460  -20.1710 C.2    76  ILE76       0.2617
     78  O         -9.7510  -22.2540  -20.5290 O.2    76  ILE76      -0.2715
     79  CB        -8.6450  -19.1220  -20.1790 C.3    76  ILE76       0.0290
     80  CG1      -10.1690  -19.0200  -20.0850 C.3    76  ILE76       0.0022
     81  CG2       -8.0510  -17.8820  -20.8820 C.3    76  ILE76       0.0023
     82  CD1      -10.6330  -17.9050  -19.1700 C.3    76  ILE76       0.0001
     83  N         -8.0150  -21.9970  -19.1090 N.am   77  SER77      -0.1936
     84  CA        -8.2480  -23.2570  -18.4080 C.3    77  SER77       0.2040
     85  C         -9.6560  -23.4190  -17.8360 C.2    77  SER77       0.2485
     86  O        -10.2070  -24.5250  -17.9580 O.2    77  SER77      -0.2729
     87  CB        -7.1910  -23.4030  -17.3050 C.3    77  SER77       0.2129
     88  OG        -7.1870  -24.7060  -16.7620 O.3    77  SER77      -0.2179
     89  N        -10.2810  -22.4150  -17.2010 N.am   78  PRO78      -0.2726
     90  CA       -11.6510  -22.6240  -16.6880 C.3    78  PRO78       0.1402
     91  C        -12.6650  -22.9890  -17.7570 C.2    78  PRO78       0.2269
     92  O        -13.6920  -23.6040  -17.4360 O.2    78  PRO78      -0.2865
     93  CB       -11.9920  -21.2760  -16.0370 C.3    78  PRO78       0.0296
     94  CG       -10.6730  -20.7230  -15.6400 C.3    78  PRO78       0.0237
     95  CD        -9.7360  -21.1190  -16.7500 C.3    78  PRO78       0.0939
     96  N        -11.6080  -24.4940  -20.9620 N.3    80  LYS80      -0.1231
     97  CA       -11.0770  -25.7140  -21.5600 C.3    80  LYS80       0.1693
     98  C        -11.3430  -26.9340  -20.6830 C.2    80  LYS80       0.2591
     99  O        -11.6970  -28.0050  -21.1900 O.2    80  LYS80      -0.2718
    100  CB        -9.5780  -25.5310  -21.7960 C.3    80  LYS80       0.0285
    101  CG        -8.9510  -26.4260  -22.8300 C.3    80  LYS80       0.0035
    102  CD        -7.5150  -25.9810  -23.0350 C.3    80  LYS80       0.0206
    103  CE        -6.7750  -26.8800  -23.9920 C.3    80  LYS80       0.1093
    104  NZ        -5.3350  -26.5150  -24.0310 N.3    80  LYS80      -0.1314
    105  N        -11.1730  -26.7980  -19.3680 N.am   81  LYS81      -0.1980
    106  CA       -11.3520  -27.9140  -18.4480 C.3    81  LYS81       0.1596
    107  C        -12.7790  -28.0350  -17.9190 C.2    81  LYS81       0.2287
    108  O        -13.0160  -28.8070  -16.9830 O.2    81  LYS81      -0.2864
    109  CB       -10.3670  -27.8050  -17.2780 C.3    81  LYS81       0.0298
    110  CG        -8.9420  -28.2150  -17.6340 C.3    81  LYS81       0.0038
    111  CD        -8.3160  -29.0870  -16.5510 C.3    81  LYS81       0.0206
    112  CE        -8.2590  -28.3630  -15.2120 C.3    81  LYS81       0.1093
    113  NZ        -7.6000  -29.1880  -14.1610 N.3    81  LYS81      -0.1314
    114  N         -8.0780  -30.7500  -30.4710 N.3    93  ARG93      -0.1245
    115  CA        -6.6220  -30.6530  -30.4600 C.3    93  ARG93       0.1563
    116  C         -5.9840  -31.7820  -31.2650 C.2    93  ARG93       0.2260
    117  O         -5.0100  -31.5650  -31.9970 O.2    93  ARG93      -0.2867
    118  CB        -6.1390  -30.6710  -29.0080 C.3    93  ARG93       0.0307
    119  CG        -4.6670  -30.3820  -28.7630 C.3    93  ARG93       0.0489
    120  CD        -4.2820  -30.9870  -27.4180 C.3    93  ARG93       0.2205
    121  NE        -3.2930  -30.2110  -26.6820 N.pl3  93  ARG93      -0.0865
    122  CZ        -2.9660  -30.4500  -25.4180 C.cat  93  ARG93       0.5346
    123  NH1       -3.5570  -31.4400  -24.7620 N.pl3  93  ARG93       0.1354
    124  NH2       -2.0580  -29.7020  -24.8060 N.pl3  93  ARG93       0.1354
    125  N          4.0600  -30.1900  -18.5920 N.3   128  GLU128     -0.1245
    126  CA         2.8230  -29.7910  -17.9330 C.3   128  GLU128      0.1567
    127  C          3.1170  -29.0430  -16.6370 C.2   128  GLU128      0.2260
    128  O          2.4780  -28.0240  -16.3320 O.2   128  GLU128     -0.2867
    129  CB         1.9730  -31.0310  -17.6710 C.3   128  GLU128      0.0388
    130  CG         0.4860  -30.8000  -17.5580 C.3   128  GLU128      0.1160
    131  CD        -0.2570  -32.1170  -17.3670 C.2   128  GLU128      0.3649
    132  OE1       -0.0640  -33.0400  -18.1940 O.co2 128  GLU128     -0.2457
    133  OE2       -1.0060  -32.2390  -16.3720 O.co2 128  GLU128     -0.2457
    134  N          4.4870  -25.6650  -17.4290 N.3   131  ASP131     -0.1225
    135  CA         3.3590  -24.8500  -17.8580 C.3   131  ASP131      0.1805
    136  C          2.6280  -24.2440  -16.6660 C.2   131  ASP131      0.2597
    137  O          2.2610  -23.0610  -16.6830 O.2   131  ASP131     -0.2718
    138  CB         2.4220  -25.7330  -18.6820 C.3   131  ASP131      0.1424
    139  CG         1.6100  -24.9560  -19.6590 C.2   131  ASP131      0.3668
    140  OD1        2.2030  -24.3200  -20.5540 O.co2 131  ASP131     -0.2456
    141  OD2        0.3780  -24.9970  -19.5420 O.co2 131  ASP131     -0.2456
    142  N          2.4010  -25.0430  -15.6190 N.am  132  HIS132     -0.1975
    143  CA         1.8250  -24.4890  -14.4020 C.3   132  HIS132      0.1656
    144  C          2.7680  -23.4980  -13.7340 C.2   132  HIS132      0.2291
    145  O          2.3250  -22.4560  -13.2490 O.2   132  HIS132     -0.2864
    146  CB         1.4740  -25.5870  -13.4080 C.3   132  HIS132      0.0771
    147  CG         0.7750  -25.0590  -12.2000 C.ar  132  HIS132      0.0820
    148  ND1       -0.5540  -24.6990  -12.2170 N.ar  132  HIS132     -0.2267
    149  CD2        1.2330  -24.7520  -10.9670 C.ar  132  HIS132      0.1154
    150  CE1       -0.8970  -24.2350  -11.0300 C.ar  132  HIS132      0.1986
    151  NE2        0.1690  -24.2570  -10.2530 N.ar  132  HIS132     -0.2212
    152  N          2.5820  -20.1700  -15.6050 N.3   135  ALA135     -0.1245
    153  CA         1.3490  -19.4710  -15.2540 C.3   135  ALA135      0.1562
    154  C          1.4550  -18.8230  -13.8820 C.2   135  ALA135      0.2260
    155  O          0.9840  -17.6930  -13.6770 O.2   135  ALA135     -0.2867
    156  CB         0.1630  -20.4400  -15.2850 C.3   135  ALA135      0.0290
    157  N         -6.0520  -15.2460   -8.9110 N.3   153  ILE153     -0.1245
    158  CA        -5.4260  -16.1770   -9.8390 C.3   153  ILE153      0.1561
    159  C         -4.1270  -16.7240   -9.2480 C.2   153  ILE153      0.2260
    160  O         -3.8590  -17.9320   -9.2990 O.2   153  ILE153     -0.2867
    161  CB        -5.1930  -15.4810  -11.1900 C.3   153  ILE153      0.0252
    162  CG1       -6.5400  -15.1170  -11.8270 C.3   153  ILE153      0.0019
    163  CG2       -4.3250  -16.3460  -12.1010 C.3   153  ILE153      0.0019
    164  CD1       -6.4220  -14.3900  -13.1490 C.3   153  ILE153      0.0001
    165  N         -4.9790  -19.4260   -6.4890 N.3   156  SER156     -0.1202
    166  CA        -5.3610  -20.7790   -6.8810 C.3   156  SER156      0.2020
    167  C         -4.2040  -21.5020   -7.5690 C.2   156  SER156      0.2618
    168  O         -3.9660  -22.6950   -7.3150 O.2   156  SER156     -0.2717
    169  CB        -6.6150  -20.7490   -7.7570 C.3   156  SER156      0.2103
    170  OG        -6.4320  -19.9490   -8.9040 O.3   156  SER156     -0.2182
    171  N         -3.4460  -20.7960   -8.4120 N.am  157  LEU157     -0.1979
    172  CA        -2.2610  -21.4080   -9.0120 C.3   157  LEU157      0.1596
    173  C         -1.2480  -21.7940   -7.9410 C.2   157  LEU157      0.2287
    174  O         -0.6450  -22.8760   -8.0030 O.2   157  LEU157     -0.2864
    175  CB        -1.6280  -20.4530  -10.0360 C.3   157  LEU157      0.0297
    176  CG        -2.4440  -20.1300  -11.2920 C.3   157  LEU157      0.0022
    177  CD1       -1.7770  -19.0000  -12.1260 C.3   157  LEU157      0.0001
    178  CD2       -2.6220  -21.3860  -12.1250 C.3   157  LEU157      0.0001
    179  N         -2.4650  -24.9100   -6.0460 N.3   160  LYS160     -0.1245
    180  CA        -2.2310  -26.1080   -6.8410 C.3   160  LYS160      0.1561
    181  C         -0.7490  -26.4700   -6.8700 C.2   160  LYS160      0.2260
    182  O         -0.3870  -27.6490   -6.7680 O.2   160  LYS160     -0.2867
    183  CB        -2.7840  -25.8950   -8.2520 C.3   160  LYS160      0.0271
    184  CG        -2.4450  -26.9640   -9.2870 C.3   160  LYS160      0.0035
    185  CD        -3.1920  -26.6520  -10.5990 C.3   160  LYS160      0.0206
    186  CE        -2.6900  -27.4600  -11.8000 C.3   160  LYS160      0.1093
    187  NZ        -3.2820  -26.9450  -13.0840 N.3   160  LYS160     -0.1314
@<TRIPOS>BOND
     1   117   116    2
     2    50    51    2
     3    50    49    1
     4   116   115    1
     5    48    49    1
     6    49    52    1
     7   114   115    1
     8   115   118    1
     9    43    42    2
    10    52    53    1
    11    42    41    1
    12   118   119    1
    13   119   120    1
    14    53    54    1
    15    57    58    1
    16    41    40    1
    17    41    44    1
    18   120   121    1
    19    74    72    1
    20    44    45    1
    21    54    55   ar
    22    54    56   ar
    23   121   122    2
    24    58    61    1
    25    58    59    1
    26    72    71    1
    27    61    62    1
    28    59    67   am
    29    59    60    2
    30    33    31   ar
    31   122   124    1
    32   122   123    1
    33    67    68    1
    34    45    46   ar
    35    45    47   ar
    36    71    68    1
    37    71    73    1
    38    32    31   ar
    39    31    30    1
    40    68    69    1
    41     1     2    1
    42    62    63   ar
    43    62    64   ar
    44   104   103    1
    45    63    65   ar
    46   103   102    1
    47     6     7    1
    48     6     5    1
    49    30    27    1
    50     2     5    1
    51     2     3    1
    52    64    66   ar
    53    69    70    2
    54    69    75   am
    55     7     8    1
    56   102   101    1
    57   101   100    1
    58    65    66   ar
    59     4     3    2
    60     3    12   am
    61    27    26    1
    62    27    28    1
    63    75    76    1
    64    26    14   am
    65    10     9    1
    66   100    97    1
    67     8     9    2
    68    97    96    1
    69    97    98    1
    70    12    13    1
    71    99    98    2
    72    28    29    2
    73     9    11    1
    74    76    79    1
    75    76    77    1
    76    81    79    1
    77    14    13    1
    78    14    15    2
    79    98   105   am
    80   140   139   ar
    81    78    77    2
    82    13    16    1
    83    79    80    1
    84    77    83   am
    85    80    82    1
    86   139   141   ar
    87   139   138    1
    88    16    17    1
    89    18    17   ar
    90    18    20   ar
    91   105   106    1
    92    83    84    1
    93    17    19   ar
    94    37    36    2
    95    20    21   ar
    96   138   135    1
    97    34    35    1
    98   125   126    1
    99   106   107    1
   100   106   109    1
   101    84    85    1
   102    84    87    1
   103   132   131   ar
   104    86    85    2
   105   126   129    1
   106   126   127    1
   107   107   108    2
   108    36    35    1
   109   135   134    1
   110   135   136    1
   111    19    21   ar
   112    19    22   ar
   113    85    89   am
   114    91    92    2
   115    91    90    1
   116    21    23   ar
   117   129   130    1
   118   110   109    1
   119   110   111    1
   120   130   131    1
   121    35    38    1
   122   131   133   ar
   123    87    88    1
   124    89    95    1
   125    89    90    1
   126    22    24   ar
   127    38    39    1
   128    95    94    1
   129    23    25   ar
   130    90    93    1
   131   137   136    2
   132   136   142   am
   133   127   128    2
   134   111   112    1
   135    93    94    1
   136    24    25   ar
   137   142   143    1
   138   152   153    1
   139   156   153    1
   140   153   154    1
   141   112   113    1
   142   143   144    1
   143   143   146    1
   144   154   155    2
   145   144   145    2
   146   146   147    1
   147   164   162    1
   148   187   186    1
   149   148   147   ar
   150   148   150   ar
   151   147   149   ar
   152   177   176    1
   153   178   176    1
   154   163   161    1
   155   162   161    1
   156   186   185    1
   157   176   175    1
   158   161   158    1
   159   150   151   ar
   160   149   151   ar
   161   185   184    1
   162   175   172    1
   163   158   159    1
   164   158   157    1
   165   160   159    2
   166   184   183    1
   167   172   171    1
   168   172   173    1
   169   170   169    1
   170   171   167   am
   171   183   180    1
   172   174   173    2
   173   169   166    1
   174   167   168    2
   175   167   166    1
   176   166   165    1
   177   181   180    1
   178   181   182    2
   179   180   179    1
