@<TRIPOS>MOLECULE
tmp/5tk8A00.pdb
 160 154 0 0 0
SMALL
GASTEIGER

@<TRIPOS>ATOM
      1  N         -2.6510  -14.8910  -24.6800 N.3    15  ARG15      -0.1231
      2  CA        -3.0720  -15.6090  -23.4910 C.3    15  ARG15       0.1694
      3  C         -3.8250  -14.6800  -22.5350 C.2    15  ARG15       0.2592
      4  O         -3.8760  -13.4520  -22.7130 O.2    15  ARG15      -0.2718
      5  CB        -1.8530  -16.2720  -22.8280 C.3    15  ARG15       0.0321
      6  CG        -1.2860  -17.4080  -23.6800 C.3    15  ARG15       0.0489
      7  CD         0.1280  -17.8150  -23.2500 C.3    15  ARG15       0.2205
      8  NE         0.2190  -18.0720  -21.8070 N.pl3  15  ARG15      -0.0865
      9  CZ        -0.0700  -19.2440  -21.2470 C.cat  15  ARG15       0.5346
     10  NH1       -0.4660  -20.2740  -21.9960 N.pl3  15  ARG15       0.1354
     11  NH2        0.0300  -19.3900  -19.9320 N.pl3  15  ARG15       0.1354
     12  N         -4.4800  -15.2990  -21.5470 N.am   16  TRP16      -0.1962
     13  CA        -5.1900  -14.5990  -20.4630 C.3    16  TRP16       0.1771
     14  C         -6.4040  -13.8140  -20.9470 C.2    16  TRP16       0.2619
     15  O         -6.7630  -12.8050  -20.3370 O.2    16  TRP16      -0.2715
     16  CB        -4.2490  -13.6710  -19.6870 C.3    16  TRP16       0.0590
     17  CG        -3.1060  -14.4300  -19.1490 C.ar   16  TRP16       0.0006
     18  CD1       -1.8780  -14.5610  -19.7130 C.ar   16  TRP16       0.0946
     19  CD2       -3.1040  -15.2300  -17.9710 C.ar   16  TRP16       0.0152
     20  NE1       -1.0960  -15.3900  -18.9530 N.ar   16  TRP16      -0.2442
     21  CE2       -1.8180  -15.8110  -17.8700 C.ar   16  TRP16       0.0810
     22  CE3       -4.0640  -15.5220  -16.9930 C.ar   16  TRP16       0.0012
     23  CZ2       -1.4600  -16.6470  -16.8200 C.ar   16  TRP16       0.0191
     24  CZ3       -3.7090  -16.3600  -15.9480 C.ar   16  TRP16       0.0001
     25  CH2       -2.4150  -16.9150  -15.8760 C.ar   16  TRP16       0.0015
     26  N         -7.0600  -14.2530  -22.0260 N.am   17  ASP17      -0.1971
     27  CA        -8.3110  -13.6110  -22.4280 C.3    17  ASP17       0.1709
     28  C         -9.2560  -13.4920  -21.2450 C.2    17  ASP17       0.2293
     29  O         -9.3880  -14.4180  -20.4420 O.2    17  ASP17      -0.2864
     30  CB        -9.0150  -14.4210  -23.5040 C.3    17  ASP17       0.1436
     31  CG        -8.4060  -14.2530  -24.8530 C.2    17  ASP17       0.3671
     32  OD1       -7.3350  -13.6230  -24.9930 O.co2  17  ASP17      -0.2456
     33  OD2       -9.0180  -14.7900  -25.7840 O.co2  17  ASP17      -0.2456
     34  N         -8.9860  -11.4050  -18.7690 N.3    19  SER19      -0.1217
     35  CA        -8.2990  -10.8190  -17.6270 C.3    19  SER19       0.1889
     36  C         -7.6130   -9.5310  -18.0570 C.2    19  SER19       0.2288
     37  O         -6.9870   -9.4730  -19.1200 O.2    19  SER19      -0.2866
     38  CB        -7.2280  -11.7740  -17.0580 C.3    19  SER19       0.2089
     39  OG        -7.7770  -13.0420  -16.6920 O.3    19  SER19      -0.2183
     40  N          5.3580  -16.9600  -23.8290 N.3    30  HIS30      -0.1241
     41  CA         5.0720  -18.0470  -22.8990 C.3    30  HIS30       0.1621
     42  C          5.8830  -19.2920  -23.2330 C.2    30  HIS30       0.2264
     43  O          6.4370  -19.9340  -22.3390 O.2    30  HIS30      -0.2867
     44  CB         3.5730  -18.3330  -22.9380 C.3    30  HIS30       0.0745
     45  CG         3.2070  -19.7500  -22.6300 C.ar   30  HIS30       0.0817
     46  ND1        3.1210  -20.2310  -21.3410 N.ar   30  HIS30      -0.2268
     47  CD2        2.8720  -20.7750  -23.4430 C.ar   30  HIS30       0.1154
     48  CE1        2.7530  -21.4990  -21.3760 C.ar   30  HIS30       0.1986
     49  NE2        2.5990  -21.8530  -22.6400 N.ar   30  HIS30      -0.2212
     50  N          2.4960  -25.7290  -27.7610 N.3    66  ASP66      -0.1239
     51  CA         1.2820  -24.9450  -27.9900 C.3    66  ASP66       0.1674
     52  C          1.0720  -24.6010  -29.4550 C.2    66  ASP66       0.2266
     53  O          0.2480  -23.7330  -29.7740 O.2    66  ASP66      -0.2867
     54  CB         1.3170  -23.6650  -27.1540 C.3    66  ASP66       0.1410
     55  CG         1.1050  -23.9390  -25.6850 C.2    66  ASP66       0.3668
     56  OD1        0.5490  -25.0130  -25.3660 O.co2  66  ASP66      -0.2456
     57  OD2        1.4780  -23.0810  -24.8560 O.co2  66  ASP66      -0.2456
     58  N         -2.3080  -24.0220  -31.0910 N.3    69  GLU69      -0.1245
     59  CA        -3.0890  -22.8290  -30.7860 C.3    69  GLU69       0.1567
     60  C         -3.0670  -21.8020  -31.9130 C.2    69  GLU69       0.2260
     61  O         -3.8840  -20.8660  -31.8930 O.2    69  GLU69      -0.2867
     62  CB        -2.6090  -22.2310  -29.4630 C.3    69  GLU69       0.0388
     63  CG        -2.8810  -23.2020  -28.3070 C.3    69  GLU69       0.1160
     64  CD        -2.6440  -22.6280  -26.9330 C.2    69  GLU69       0.3649
     65  OE1       -2.0120  -21.5650  -26.8250 O.co2  69  GLU69      -0.2457
     66  OE2       -3.0980  -23.2560  -25.9530 O.co2  69  GLU69      -0.2457
     67  N         -5.8590  -19.6590  -28.0630 N.3    74  HIS74      -0.1241
     68  CA        -5.5560  -20.0840  -26.7080 C.3    74  HIS74       0.1621
     69  C         -6.8250  -19.9920  -25.8740 C.2    74  HIS74       0.2264
     70  O         -7.3420  -18.8980  -25.6210 O.2    74  HIS74      -0.2867
     71  CB        -4.4320  -19.2750  -26.0730 C.3    74  HIS74       0.0745
     72  CG        -4.2560  -19.6090  -24.6280 C.ar   74  HIS74       0.0817
     73  ND1       -3.6130  -20.7560  -24.2130 N.ar   74  HIS74      -0.2268
     74  CD2       -4.7450  -19.0250  -23.5110 C.ar   74  HIS74       0.1154
     75  CE1       -3.6680  -20.8300  -22.8940 C.ar   74  HIS74       0.1986
     76  NE2       -4.3490  -19.7940  -22.4450 N.ar   74  HIS74      -0.2212
     77  N         -8.5200  -20.3570  -22.4010 N.3    76  ILE76      -0.1231
     78  CA        -8.0300  -20.3320  -21.0290 C.3    76  ILE76       0.1692
     79  C         -8.5120  -21.5760  -20.2860 C.2    76  ILE76       0.2593
     80  O         -9.5730  -22.1400  -20.5870 O.2    76  ILE76      -0.2718
     81  CB        -8.4580  -19.0470  -20.3040 C.3    76  ILE76       0.0266
     82  CG1       -9.9800  -18.9720  -20.1580 C.3    76  ILE76       0.0019
     83  CG2       -7.9260  -17.8160  -21.0560 C.3    76  ILE76       0.0020
     84  CD1      -10.4520  -17.7840  -19.3090 C.3    76  ILE76       0.0001
     85  N         -7.7090  -22.0190  -19.3180 N.am   77  SER77      -0.1939
     86  CA        -7.9690  -23.3230  -18.7110 C.3    77  SER77       0.2040
     87  C         -9.2940  -23.4110  -17.9520 C.2    77  SER77       0.2485
     88  O         -9.8850  -24.5060  -17.9540 O.2    77  SER77      -0.2729
     89  CB        -6.7970  -23.7270  -17.8020 C.3    77  SER77       0.2129
     90  OG        -6.7730  -22.9840  -16.5990 O.3    77  SER77      -0.2179
     91  N         -9.8170  -22.3610  -17.3030 N.am   78  PRO78      -0.2726
     92  CA       -11.1460  -22.4960  -16.6800 C.3    78  PRO78       0.1402
     93  C        -12.2450  -22.8360  -17.6670 C.2    78  PRO78       0.2269
     94  O        -13.2760  -23.3930  -17.2700 O.2    78  PRO78      -0.2865
     95  CB       -11.3770  -21.1230  -16.0360 C.3    78  PRO78       0.0296
     96  CG       -10.0100  -20.6150  -15.7640 C.3    78  PRO78       0.0237
     97  CD        -9.1790  -21.0810  -16.9250 C.3    78  PRO78       0.0939
     98  N        -11.4510  -24.4280  -20.9900 N.3    80  LYS80      -0.1231
     99  CA       -11.0090  -25.6620  -21.6290 C.3    80  LYS80       0.1693
    100  C        -11.2110  -26.8710  -20.7280 C.2    80  LYS80       0.2591
    101  O        -11.4710  -27.9780  -21.2190 O.2    80  LYS80      -0.2718
    102  CB        -9.5320  -25.5000  -22.0070 C.3    80  LYS80       0.0285
    103  CG        -8.8940  -26.5660  -22.8590 C.3    80  LYS80       0.0035
    104  CD        -7.5110  -26.0640  -23.2740 C.3    80  LYS80       0.0206
    105  CE        -6.7650  -25.4590  -22.0820 C.3    80  LYS80       0.1093
    106  NZ        -5.7290  -24.4490  -22.4590 N.3    80  LYS80      -0.1314
    107  N        -11.1120  -26.6870  -19.4140 N.am   81  LYS81      -0.1980
    108  CA       -11.2190  -27.8160  -18.5000 C.3    81  LYS81       0.1596
    109  C        -12.6300  -28.0190  -17.9700 C.2    81  LYS81       0.2287
    110  O        -12.8360  -28.8930  -17.1200 O.2    81  LYS81      -0.2864
    111  CB       -10.2320  -27.6500  -17.3420 C.3    81  LYS81       0.0298
    112  CG        -8.7930  -27.7050  -17.8090 C.3    81  LYS81       0.0038
    113  CD        -7.8040  -27.3830  -16.7040 C.3    81  LYS81       0.0206
    114  CE        -6.3850  -27.6400  -17.1850 C.3    81  LYS81       0.1093
    115  NZ        -6.2360  -29.0370  -17.6810 N.3    81  LYS81      -0.1314
    116  N          4.2650  -25.6490  -17.6710 N.3   131  ASP131     -0.1225
    117  CA         3.1590  -24.7610  -18.0350 C.3   131  ASP131      0.1805
    118  C          2.5200  -24.1600  -16.7980 C.2   131  ASP131      0.2597
    119  O          2.1730  -22.9700  -16.7740 O.2   131  ASP131     -0.2718
    120  CB         2.0990  -25.5230  -18.8230 C.3   131  ASP131      0.1424
    121  CG         2.3350  -25.4940  -20.3100 C.2   131  ASP131      0.3668
    122  OD1        3.2330  -24.7660  -20.7860 O.co2 131  ASP131     -0.2456
    123  OD2        1.5980  -26.2120  -21.0110 O.co2 131  ASP131     -0.2456
    124  N          2.3300  -24.9790  -15.7630 N.am  132  HIS132     -0.1975
    125  CA         1.7390  -24.4570  -14.5430 C.3   132  HIS132      0.1656
    126  C          2.6730  -23.4820  -13.8530 C.2   132  HIS132      0.2291
    127  O          2.2240  -22.4470  -13.3440 O.2   132  HIS132     -0.2864
    128  CB         1.3710  -25.5850  -13.5820 C.3   132  HIS132      0.0771
    129  CG         0.5290  -25.1090  -12.4460 C.ar  132  HIS132      0.0820
    130  ND1       -0.8440  -25.0230  -12.5290 N.ar  132  HIS132     -0.2267
    131  CD2        0.8660  -24.6200  -11.2300 C.ar  132  HIS132      0.1154
    132  CE1       -1.3190  -24.5340  -11.3980 C.ar  132  HIS132      0.1986
    133  NE2       -0.3030  -24.2740  -10.5970 N.ar  132  HIS132     -0.2212
    134  N          2.4630  -20.1570  -15.7500 N.3   135  ALA135     -0.1245
    135  CA         1.2380  -19.4220  -15.4650 C.3   135  ALA135      0.1562
    136  C          1.3070  -18.7910  -14.0840 C.2   135  ALA135      0.2260
    137  O          0.8830  -17.6460  -13.8870 O.2   135  ALA135     -0.2867
    138  CB         0.0200  -20.3400  -15.5660 C.3   135  ALA135      0.0290
    139  N         -6.1060  -15.1350   -9.1020 N.3   153  ILE153     -0.1245
    140  CA        -5.4660  -16.0590  -10.0300 C.3   153  ILE153      0.1561
    141  C         -4.1790  -16.6000   -9.4280 C.2   153  ILE153      0.2260
    142  O         -3.9130  -17.8100   -9.4600 O.2   153  ILE153     -0.2867
    143  CB        -5.2020  -15.3550  -11.3760 C.3   153  ILE153      0.0252
    144  CG1       -6.5310  -14.8900  -11.9900 C.3   153  ILE153      0.0019
    145  CG2       -4.4100  -16.2620  -12.3100 C.3   153  ILE153      0.0019
    146  CD1       -6.3860  -14.2450  -13.3750 C.3   153  ILE153      0.0001
    147  N         -5.0190  -19.1500   -6.7290 N.3   156  SER156     -0.1202
    148  CA        -5.4640  -20.4360   -7.2470 C.3   156  SER156      0.2020
    149  C         -4.2950  -21.2430   -7.8070 C.2   156  SER156      0.2618
    150  O         -4.1370  -22.4350   -7.5050 O.2   156  SER156     -0.2717
    151  CB        -6.5310  -20.2070   -8.3190 C.3   156  SER156      0.2103
    152  OG        -6.9150  -21.4320   -8.9200 O.3   156  SER156     -0.2182
    153  N         -3.4660  -20.6040   -8.6320 N.am  157  LEU157     -0.1979
    154  CA        -2.3280  -21.3000   -9.2290 C.3   157  LEU157      0.1596
    155  C         -1.3040  -21.6970   -8.1730 C.2   157  LEU157      0.2287
    156  O         -0.6780  -22.7630   -8.2730 O.2   157  LEU157     -0.2864
    157  CB        -1.6800  -20.4060  -10.2830 C.3   157  LEU157      0.0297
    158  CG        -2.5060  -20.1280  -11.5340 C.3   157  LEU157      0.0022
    159  CD1       -1.9180  -18.9410  -12.3250 C.3   157  LEU157      0.0001
    160  CD2       -2.5470  -21.3640  -12.3990 C.3   157  LEU157      0.0001
@<TRIPOS>BOND
     1    60    61    2
     2    60    59    1
     3    58    59    1
     4    59    62    1
     5    53    52    2
     6    62    63    1
     7    52    51    1
     8    63    64    1
     9    67    68    1
    10    51    50    1
    11    51    54    1
    12    54    55    1
    13    64    65   ar
    14    64    66   ar
    15    68    71    1
    16    68    69    1
    17    71    72    1
    18    69    70    2
    19    33    31   ar
    20    55    56   ar
    21    55    57   ar
    22    32    31   ar
    23    31    30    1
    24     1     2    1
    25    72    73   ar
    26    72    74   ar
    27    73    75   ar
    28    40    41    1
    29     6     7    1
    30     6     5    1
    31    74    76   ar
    32    30    27    1
    33     2     5    1
    34     2     3    1
    35    47    49   ar
    36    47    45   ar
    37   104   103    1
    38   104   105    1
    39     7     8    1
    40    42    41    1
    41    42    43    2
    42    44    41    1
    43    44    45    1
    44    75    76   ar
    45   103   102    1
    46     4     3    2
    47    49    48   ar
    48    45    46   ar
    49     3    12   am
    50   106   105    1
    51    27    26    1
    52    27    28    1
    53    77    78    1
    54    26    14   am
    55   102    99    1
    56    10     9    1
    57     8     9    2
    58    99    98    1
    59    99   100    1
    60    12    13    1
    61    48    46   ar
    62     9    11    1
    63    28    29    2
    64   101   100    2
    65    83    81    1
    66    78    81    1
    67    78    79    1
    68   123   121   ar
    69    14    13    1
    70    14    15    2
    71   122   121   ar
    72   100   107   am
    73    80    79    2
    74    13    16    1
    75   121   120    1
    76    81    82    1
    77    79    85   am
    78    82    84    1
    79    18    17   ar
    80    18    20   ar
    81    16    17    1
    82   107   108    1
    83    85    86    1
    84    17    19   ar
    85    37    36    2
    86    20    21   ar
    87   120   117    1
    88    34    35    1
    89    86    87    1
    90    86    89    1
    91   108   109    1
    92   108   111    1
    93    36    35    1
    94   117   116    1
    95   117   118    1
    96    19    21   ar
    97    19    22   ar
    98   109   110    2
    99    88    87    2
   100    87    91   am
   101    21    23   ar
   102   112   111    1
   103   112   113    1
   104    89    90    1
   105   115   114    1
   106    93    94    2
   107    93    92    1
   108    35    38    1
   109    91    97    1
   110    91    92    1
   111   114   113    1
   112    38    39    1
   113    22    24   ar
   114    97    96    1
   115    23    25   ar
   116   118   119    2
   117   118   124   am
   118    92    95    1
   119    95    96    1
   120    24    25   ar
   121   124   125    1
   122   134   135    1
   123   138   135    1
   124   135   136    1
   125   125   126    1
   126   125   128    1
   127   136   137    2
   128   126   127    2
   129   128   129    1
   130   146   144    1
   131   130   129   ar
   132   130   132   ar
   133   129   131   ar
   134   160   158    1
   135   159   158    1
   136   145   143    1
   137   144   143    1
   138   158   157    1
   139   132   133   ar
   140   143   140    1
   141   131   133   ar
   142   157   154    1
   143   140   141    1
   144   140   139    1
   145   142   141    2
   146   154   153    1
   147   154   155    1
   148   152   151    1
   149   153   149   am
   150   151   148    1
   151   156   155    2
   152   149   150    2
   153   149   148    1
   154   148   147    1
