@<TRIPOS>MOLECULE
tmp/5tk9A00.pdb
 113 110 0 0 0
SMALL
GASTEIGER

@<TRIPOS>ATOM
      1  N         -2.6790  -14.7510  -24.6500 N.3    15  ARG15      -0.1231
      2  CA        -3.0660  -15.5190  -23.4800 C.3    15  ARG15       0.1694
      3  C         -3.8230  -14.6260  -22.4960 C.2    15  ARG15       0.2592
      4  O         -3.8840  -13.4030  -22.6430 O.2    15  ARG15      -0.2718
      5  CB        -1.8190  -16.1370  -22.8350 C.3    15  ARG15       0.0321
      6  CG        -1.2260  -17.2670  -23.6960 C.3    15  ARG15       0.0489
      7  CD         0.1640  -17.7050  -23.2300 C.3    15  ARG15       0.2205
      8  NE         0.2300  -17.9430  -21.7780 N.pl3  15  ARG15      -0.0865
      9  CZ        -0.0780  -19.0980  -21.1950 C.cat  15  ARG15       0.5346
     10  NH1       -0.5050  -20.1270  -21.9290 N.pl3  15  ARG15       0.1354
     11  NH2        0.0180  -19.2210  -19.8800 N.pl3  15  ARG15       0.1354
     12  N         -4.4490  -15.2690  -21.5130 N.am   16  TRP16      -0.1962
     13  CA        -5.1680  -14.5950  -20.4240 C.3    16  TRP16       0.1771
     14  C         -6.3660  -13.7880  -20.9160 C.2    16  TRP16       0.2619
     15  O         -6.6950  -12.7590  -20.3320 O.2    16  TRP16      -0.2715
     16  CB        -4.2340  -13.6940  -19.6140 C.3    16  TRP16       0.0590
     17  CG        -3.1100  -14.4550  -19.0540 C.ar   16  TRP16       0.0006
     18  CD1       -1.8640  -14.5670  -19.5770 C.ar   16  TRP16       0.0946
     19  CD2       -3.1320  -15.2620  -17.8780 C.ar   16  TRP16       0.0152
     20  NE1       -1.0970  -15.3840  -18.7970 N.ar   16  TRP16      -0.2442
     21  CE2       -1.8530  -15.8330  -17.7470 C.ar   16  TRP16       0.0810
     22  CE3       -4.1130  -15.5660  -16.9270 C.ar   16  TRP16       0.0012
     23  CZ2       -1.5180  -16.6780  -16.6930 C.ar   16  TRP16       0.0191
     24  CZ3       -3.7830  -16.4110  -15.8810 C.ar   16  TRP16       0.0001
     25  CH2       -2.4950  -16.9530  -15.7730 C.ar   16  TRP16       0.0015
     26  N         -7.0290  -14.2260  -21.9900 N.am   17  ASP17      -0.1971
     27  CA        -8.2620  -13.5670  -22.4190 C.3    17  ASP17       0.1709
     28  C         -9.2080  -13.3660  -21.2470 C.2    17  ASP17       0.2293
     29  O         -9.3640  -14.2520  -20.4010 O.2    17  ASP17      -0.2864
     30  CB        -8.9950  -14.4050  -23.4640 C.3    17  ASP17       0.1436
     31  CG        -8.4420  -14.2410  -24.8390 C.2    17  ASP17       0.3671
     32  OD1       -7.3790  -13.5990  -25.0080 O.co2  17  ASP17      -0.2456
     33  OD2       -9.0870  -14.7870  -25.7580 O.co2  17  ASP17      -0.2456
     34  N         -8.9840  -11.3090  -18.7690 N.3    19  SER19      -0.1217
     35  CA        -8.3420  -10.7520  -17.5840 C.3    19  SER19       0.1889
     36  C         -7.6210   -9.4700  -17.9550 C.2    19  SER19       0.2288
     37  O         -6.9360   -9.4160  -18.9800 O.2    19  SER19      -0.2866
     38  CB        -7.3340  -11.7400  -16.9830 C.3    19  SER19       0.2089
     39  OG        -7.9660  -12.9410  -16.5660 O.3    19  SER19      -0.2183
     40  N         -5.8360  -19.5230  -27.9920 N.3    74  HIS74      -0.1226
     41  CA        -5.5450  -19.9550  -26.6350 C.3    74  HIS74       0.1752
     42  C         -6.8180  -19.8830  -25.8010 C.2    74  HIS74       0.2596
     43  O         -7.2640  -18.7950  -25.4240 O.2    74  HIS74      -0.2718
     44  CB        -4.4420  -19.1190  -25.9910 C.3    74  HIS74       0.0759
     45  CG        -4.2660  -19.4320  -24.5430 C.ar   74  HIS74       0.0818
     46  ND1       -3.5780  -20.5420  -24.1110 N.ar   74  HIS74      -0.2268
     47  CD2       -4.7340  -18.8170  -23.4300 C.ar   74  HIS74       0.1154
     48  CE1       -3.6000  -20.5830  -22.7890 C.ar   74  HIS74       0.1986
     49  NE2       -4.2920  -19.5450  -22.3510 N.ar   74  HIS74      -0.2212
     50  N         -7.4060  -21.0450  -25.5220 N.am   75  ILE75      -0.1966
     51  CA        -8.5790  -21.1500  -24.6580 C.3    75  ILE75       0.1727
     52  C         -8.0860  -21.2320  -23.2200 C.2    75  ILE75       0.2616
     53  O         -7.3370  -22.1550  -22.8790 O.2    75  ILE75      -0.2715
     54  CB        -9.4120  -22.3920  -25.0170 C.3    75  ILE75       0.0290
     55  CG1       -9.5400  -22.5220  -26.5350 C.3    75  ILE75       0.0022
     56  CG2      -10.7770  -22.3590  -24.3130 C.3    75  ILE75       0.0023
     57  CD1      -10.2930  -21.4010  -27.1770 C.3    75  ILE75       0.0001
     58  N         -8.5080  -20.2840  -22.3720 N.am   76  ILE76      -0.1963
     59  CA        -8.0110  -20.2410  -20.9960 C.3    76  ILE76       0.1727
     60  C         -8.4780  -21.4760  -20.2280 C.2    76  ILE76       0.2617
     61  O         -9.5390  -22.0430  -20.5020 O.2    76  ILE76      -0.2715
     62  CB        -8.4580  -18.9500  -20.2890 C.3    76  ILE76       0.0290
     63  CG1       -9.9790  -18.9070  -20.1640 C.3    76  ILE76       0.0022
     64  CG2       -7.9510  -17.7240  -21.0660 C.3    76  ILE76       0.0023
     65  CD1      -10.4770  -17.8090  -19.2490 C.3    76  ILE76       0.0001
     66  N         -7.6830  -21.8850  -19.2370 N.am   77  SER77      -0.1936
     67  CA        -7.9300  -23.1730  -18.5880 C.3    77  SER77       0.2040
     68  C         -9.2740  -23.2840  -17.8700 C.2    77  SER77       0.2485
     69  O         -9.8460  -24.3850  -17.8830 O.2    77  SER77      -0.2729
     70  CB        -6.7790  -23.4940  -17.6290 C.3    77  SER77       0.2129
     71  OG        -5.7050  -24.0600  -18.3640 O.3    77  SER77      -0.2179
     72  N         -9.8170  -22.2420  -17.2220 N.am   78  PRO78      -0.2726
     73  CA       -11.1690  -22.3830  -16.6490 C.3    78  PRO78       0.1402
     74  C        -12.2250  -22.7900  -17.6610 C.2    78  PRO78       0.2269
     75  O        -13.2250  -23.4170  -17.2870 O.2    78  PRO78      -0.2865
     76  CB       -11.4480  -20.9880  -16.0770 C.3    78  PRO78       0.0296
     77  CG       -10.1070  -20.4820  -15.7110 C.3    78  PRO78       0.0237
     78  CD        -9.1780  -20.9890  -16.7800 C.3    78  PRO78       0.0939
     79  N          4.3680  -25.6370  -17.5300 N.3   131  ASP131     -0.1239
     80  CA         3.2540  -24.7820  -17.9380 C.3   131  ASP131      0.1674
     81  C          2.5550  -24.1840  -16.7310 C.2   131  ASP131      0.2266
     82  O          2.1950  -23.0010  -16.7240 O.2   131  ASP131     -0.2867
     83  CB         2.2570  -25.5940  -18.7620 C.3   131  ASP131      0.1410
     84  CG         1.3410  -24.7240  -19.5750 C.2   131  ASP131      0.3668
     85  OD1        1.8110  -24.2090  -20.5980 O.co2 131  ASP131     -0.2456
     86  OD2        0.1650  -24.5620  -19.2000 O.co2 131  ASP131     -0.2456
     87  N          2.4670  -20.1340  -15.5900 N.3   135  ALA135     -0.1245
     88  CA         1.2400  -19.4050  -15.2870 C.3   135  ALA135      0.1562
     89  C          1.3180  -18.7630  -13.9120 C.2   135  ALA135      0.2260
     90  O          0.9050  -17.6110  -13.7220 O.2   135  ALA135     -0.2867
     91  CB         0.0340  -20.3380  -15.3720 C.3   135  ALA135      0.0290
     92  N         -6.0530  -15.1700   -8.8890 N.3   153  ILE153     -0.1245
     93  CA        -5.4310  -16.0830   -9.8420 C.3   153  ILE153      0.1561
     94  C         -4.1370  -16.6380   -9.2600 C.2   153  ILE153      0.2260
     95  O         -3.8800  -17.8480   -9.3060 O.2   153  ILE153     -0.2867
     96  CB        -5.1800  -15.3680  -11.1830 C.3   153  ILE153      0.0252
     97  CG1       -6.5020  -14.9560  -11.8320 C.3   153  ILE153      0.0019
     98  CG2       -4.3720  -16.2580  -12.1270 C.3   153  ILE153      0.0019
     99  CD1       -6.3260  -14.2340  -13.1560 C.3   153  ILE153      0.0001
    100  N         -4.9200  -19.2270   -6.4510 N.3   156  SER156     -0.1202
    101  CA        -5.3560  -20.5540   -6.8730 C.3   156  SER156      0.2020
    102  C         -4.2330  -21.3070   -7.5820 C.2   156  SER156      0.2618
    103  O         -4.0760  -22.5230   -7.3940 O.2   156  SER156     -0.2717
    104  CB        -6.6030  -20.4480   -7.7540 C.3   156  SER156      0.2103
    105  OG        -6.3160  -19.8150   -8.9830 O.3   156  SER156     -0.2182
    106  N         -3.4270  -20.6070   -8.3840 N.am  157  LEU157     -0.1979
    107  CA        -2.2900  -21.2630   -9.0280 C.3   157  LEU157      0.1596
    108  C         -1.2230  -21.6500   -8.0110 C.2   157  LEU157      0.2287
    109  O         -0.5910  -22.7110   -8.1380 O.2   157  LEU157     -0.2864
    110  CB        -1.6800  -20.3580  -10.1070 C.3   157  LEU157      0.0297
    111  CG        -2.5250  -20.0490  -11.3410 C.3   157  LEU157      0.0022
    112  CD1       -1.8790  -18.9060  -12.1510 C.3   157  LEU157      0.0001
    113  CD2       -2.6610  -21.2750  -12.2050 C.3   157  LEU157      0.0001
@<TRIPOS>BOND
     1    40    41    1
     2    57    55    1
     3    41    44    1
     4    41    42    1
     5    55    54    1
     6    44    45    1
     7    42    50   am
     8    42    43    2
     9    33    31   ar
    10    50    51    1
    11    54    51    1
    12    54    56    1
    13    32    31   ar
    14    31    30    1
    15    51    52    1
    16     1     2    1
    17    45    46   ar
    18    45    47   ar
    19    46    48   ar
    20     6     7    1
    21     6     5    1
    22     2     5    1
    23     2     3    1
    24    30    27    1
    25    47    49   ar
    26     7     8    1
    27    52    53    2
    28    52    58   am
    29    48    49   ar
    30     4     3    2
    31     3    12   am
    32    27    26    1
    33    27    28    1
    34    58    59    1
    35    26    14   am
    36    10     9    1
    37     8     9    2
    38    12    13    1
    39    28    29    2
    40     9    11    1
    41    64    62    1
    42    59    62    1
    43    59    60    1
    44    14    13    1
    45    14    15    2
    46    85    84   ar
    47    61    60    2
    48    13    16    1
    49    62    63    1
    50    60    66   am
    51    63    65    1
    52    16    17    1
    53    18    17   ar
    54    18    20   ar
    55    84    86   ar
    56    84    83    1
    57    66    67    1
    58    17    19   ar
    59    37    36    2
    60    20    21   ar
    61    34    35    1
    62    83    80    1
    63    67    68    1
    64    67    70    1
    65    71    70    1
    66    36    35    1
    67    80    79    1
    68    80    81    1
    69    69    68    2
    70    19    21   ar
    71    19    22   ar
    72    68    72   am
    73    21    23   ar
    74    74    75    2
    75    74    73    1
    76    35    38    1
    77    72    78    1
    78    72    73    1
    79    38    39    1
    80    22    24   ar
    81    78    77    1
    82    81    82    2
    83    23    25   ar
    84    73    76    1
    85    76    77    1
    86    24    25   ar
    87    87    88    1
    88    91    88    1
    89    88    89    1
    90    89    90    2
    91    99    97    1
    92   113   111    1
    93   112   111    1
    94    98    96    1
    95    97    96    1
    96   111   110    1
    97    96    93    1
    98   110   107    1
    99    93    94    1
   100    93    92    1
   101    95    94    2
   102   107   106    1
   103   107   108    1
   104   105   104    1
   105   106   102   am
   106   109   108    2
   107   104   101    1
   108   102   103    2
   109   102   101    1
   110   101   100    1
