@<TRIPOS>MOLECULE
tmp/5tkbC00.pdb
 206 200 0 0 0
SMALL
GASTEIGER

@<TRIPOS>ATOM
      1  N         -8.3290    2.5420   36.9340 N.3    74  TYR74      -0.1227
      2  CA        -9.6410    1.9190   36.8050 C.3    74  TYR74       0.1736
      3  C         -9.7500    0.9620   35.6060 C.2    74  TYR74       0.2595
      4  O        -10.1020   -0.1950   35.8000 O.2    74  TYR74      -0.2718
      5  CB       -10.7470    3.0030   36.7860 C.3    74  TYR74       0.0548
      6  CG       -12.1470    2.4380   36.6760 C.ar   74  TYR74      -0.0200
      7  CD1      -12.7040    2.1440   35.4380 C.ar   74  TYR74      -0.0009
      8  CD2      -12.9260    2.2170   37.8150 C.ar   74  TYR74      -0.0009
      9  CE1      -13.9660    1.5770   35.3300 C.ar   74  TYR74       0.0417
     10  CE2      -14.2090    1.6770   37.7170 C.ar   74  TYR74       0.0417
     11  CZ       -14.7200    1.3510   36.4710 C.ar   74  TYR74       0.1957
     12  OH       -15.9700    0.7950   36.3550 O.3    74  TYR74      -0.2866
     13  N         -9.4810    1.4500   34.3680 N.am   75  HIS75      -0.1975
     14  CA        -9.6340    0.6640   33.1460 C.3    75  HIS75       0.1656
     15  C         -8.4740   -0.3170   32.9290 C.2    75  HIS75       0.2291
     16  O         -7.7250   -0.2360   31.9510 O.2    75  HIS75      -0.2864
     17  CB        -9.8710    1.5920   31.9540 C.3    75  HIS75       0.0771
     18  CG       -11.2030    2.2840   31.9900 C.ar   75  HIS75       0.0820
     19  ND1      -11.3190    3.6120   32.3580 N.ar   75  HIS75      -0.2267
     20  CD2      -12.4340    1.7990   31.7240 C.ar   75  HIS75       0.1154
     21  CE1      -12.6020    3.8970   32.2860 C.ar   75  HIS75       0.1986
     22  NE2      -13.3100    2.8370   31.8950 N.ar   75  HIS75      -0.2212
     23  N        -10.9340   -4.3950   36.3890 N.3    79  HIS79      -0.1241
     24  CA       -12.2080   -3.9360   35.8340 C.3    79  HIS79       0.1621
     25  C        -12.7510   -4.9380   34.7950 C.2    79  HIS79       0.2264
     26  O        -13.9330   -5.2740   34.8520 O.2    79  HIS79      -0.2867
     27  CB       -12.0650   -2.5390   35.2130 C.3    79  HIS79       0.0745
     28  CG       -13.2470   -2.1290   34.3850 C.ar   79  HIS79       0.0817
     29  ND1      -14.4990   -1.9390   34.9520 N.ar   79  HIS79      -0.2268
     30  CD2      -13.3200   -1.8710   33.0630 C.ar   79  HIS79       0.1154
     31  CE1      -15.3000   -1.5870   33.9640 C.ar   79  HIS79       0.1986
     32  NE2      -14.6340   -1.5170   32.8040 N.ar   79  HIS79      -0.2212
     33  N         -6.7110    0.1030   27.1650 N.3   119  HIS119     -0.1241
     34  CA        -7.2460    1.4120   27.5220 C.3   119  HIS119      0.1621
     35  C         -6.0820    2.2980   28.0520 C.2   119  HIS119      0.2264
     36  O         -5.3720    1.8800   28.9710 O.2   119  HIS119     -0.2867
     37  CB        -8.3610    1.2830   28.5740 C.3   119  HIS119      0.0745
     38  CG        -9.2740    2.4660   28.6270 C.ar  119  HIS119      0.0817
     39  ND1       -8.8230    3.7120   29.0300 N.ar  119  HIS119     -0.2268
     40  CD2      -10.5880    2.5580   28.3280 C.ar  119  HIS119      0.1154
     41  CE1       -9.8690    4.5260   28.9590 C.ar  119  HIS119      0.1986
     42  NE2      -10.9520    3.8810   28.5450 N.ar  119  HIS119     -0.2212
     43  N        -10.0330    9.6800   28.0040 N.3   123  SER123     -0.1217
     44  CA       -11.2640    9.6510   27.2390 C.3   123  SER123      0.1889
     45  C        -11.0030    9.7400   25.7280 C.2   123  SER123      0.2288
     46  O         -9.9420   10.1950   25.2910 O.2   123  SER123     -0.2866
     47  CB       -12.1590   10.8140   27.6710 C.3   123  SER123      0.2089
     48  OG       -11.5760   12.0580   27.2990 O.3   123  SER123     -0.2183
     49  N        -20.7120   -0.3120   24.3370 N.3   186  THR186     -0.1218
     50  CA       -20.1120    0.1320   25.6180 C.3   186  THR186      0.1862
     51  C        -19.6800    1.6020   25.5650 C.2   186  THR186      0.2287
     52  O        -19.2950    2.1510   26.6010 O.2   186  THR186     -0.2866
     53  CB       -18.9830   -0.7820   26.1290 C.3   186  THR186      0.1770
     54  OG1      -17.8330   -0.6470   25.2980 O.3   186  THR186     -0.2211
     55  CG2      -19.4120   -2.2530   26.3020 C.3   186  THR186      0.0375
     56  N        -20.2210    5.2710   25.9010 N.3   188  MET188     -0.1245
     57  CA       -21.2210    6.0680   26.6450 C.3   188  MET188      0.1570
     58  C        -22.0510    7.0110   25.7640 C.2   188  MET188      0.2261
     59  O        -23.1870    7.3200   26.1310 O.2   188  MET188     -0.2867
     60  CB       -20.6000    6.8310   27.8230 C.3   188  MET188      0.0387
     61  CG       -20.3960    5.9690   29.0670 C.3   188  MET188      0.0595
     62  SD       -21.9050    5.2060   29.7710 S.3   188  MET188     -0.1393
     63  CE       -22.8850    6.6630   30.0980 C.3   188  MET188      0.0692
     64  N        -23.5360   -3.7100   29.0560 N.3   226  HIS226     -0.1241
     65  CA       -23.5680   -2.2950   29.4220 C.3   226  HIS226      0.1621
     66  C        -23.9270   -2.1560   30.9290 C.2   226  HIS226      0.2264
     67  O        -23.2550   -1.4090   31.6410 O.2   226  HIS226     -0.2867
     68  CB       -24.5600   -1.5460   28.5220 C.3   226  HIS226      0.0745
     69  CG       -24.6310   -0.0700   28.7680 C.ar  226  HIS226      0.0817
     70  ND1      -23.4880    0.7050   28.8540 N.ar  226  HIS226     -0.2268
     71  CD2      -25.7150    0.7340   28.8850 C.ar  226  HIS226      0.1154
     72  CE1      -23.9100    1.9420   29.0520 C.ar  226  HIS226      0.1986
     73  NE2      -25.2430    2.0020   29.1000 N.ar  226  HIS226     -0.2212
     74  N        -20.9170   -3.3230   32.8770 N.3   229  ASP229     -0.1225
     75  CA       -19.9120   -2.2560   32.8150 C.3   229  ASP229      0.1805
     76  C        -20.2470   -1.1380   33.8140 C.2   229  ASP229      0.2597
     77  O        -19.3460   -0.5620   34.4210 O.2   229  ASP229     -0.2718
     78  CB       -19.8750   -1.7030   31.3850 C.3   229  ASP229      0.1424
     79  CG       -18.5830   -1.0470   30.9700 C.2   229  ASP229      0.3668
     80  OD1      -17.5660   -1.2570   31.6560 O.co2 229  ASP229     -0.2456
     81  OD2      -18.5800   -0.3680   29.9250 O.co2 229  ASP229     -0.2456
     82  N        -21.5510   -0.8650   34.0060 N.am  230  LEU230     -0.1979
     83  CA       -22.0780    0.1550   34.9160 C.3   230  LEU230      0.1596
     84  C        -22.6450   -0.4790   36.2290 C.2   230  LEU230      0.2287
     85  O        -23.6050    0.0340   36.7980 O.2   230  LEU230     -0.2864
     86  CB       -23.2000    0.9490   34.1860 C.3   230  LEU230      0.0297
     87  CG       -22.7890    1.8140   32.9890 C.3   230  LEU230      0.0022
     88  CD1      -23.9690    2.5330   32.4370 C.3   230  LEU230      0.0001
     89  CD2      -21.7930    2.8570   33.3790 C.3   230  LEU230      0.0001
     90  N        -20.7420   -1.1380   39.1720 N.3   232  ASN232     -0.1240
     91  CA       -20.0440   -0.7790   40.4210 C.3   232  ASN232      0.1653
     92  C        -20.9680   -0.2250   41.5200 C.2   232  ASN232      0.2266
     93  O        -20.8520   -0.7050   42.6510 O.2   232  ASN232     -0.2867
     94  CB       -18.8920    0.2030   40.2040 C.3   232  ASN232      0.1155
     95  CG       -17.8140   -0.1970   39.2380 C.2   232  ASN232      0.2627
     96  OD1      -17.1290    0.6700   38.7290 O.2   232  ASN232     -0.2716
     97  ND2      -17.5960   -1.4900   38.9900 N.am  232  ASN232     -0.0877
     98  N        -17.7110   -1.0160   45.8310 N.3   240  TYR240     -0.1241
     99  CA       -18.0860    0.2410   45.1800 C.3   240  TYR240      0.1605
    100  C        -17.1240    1.3900   45.5100 C.2   240  TYR240      0.2264
    101  O        -16.6620    2.0740   44.5930 O.2   240  TYR240     -0.2867
    102  CB       -19.5490    0.5980   45.4890 C.3   240  TYR240      0.0534
    103  CG       -20.0750    1.8890   44.8820 C.ar  240  TYR240     -0.0201
    104  CD1      -19.5350    2.4070   43.7030 C.ar  240  TYR240     -0.0009
    105  CD2      -21.1750    2.5400   45.4320 C.ar  240  TYR240     -0.0009
    106  CE1      -20.0270    3.5810   43.1340 C.ar  240  TYR240      0.0417
    107  CE2      -21.6970    3.6990   44.8550 C.ar  240  TYR240      0.0417
    108  CZ       -21.1040    4.2310   43.7190 C.ar  240  TYR240      0.1957
    109  OH       -21.6220    5.3590   43.1330 O.3   240  TYR240     -0.2866
    110  N        -13.9220    1.0460   43.6480 N.3   243  TRP243     -0.1227
    111  CA       -14.1430    1.4140   42.2500 C.3   243  TRP243      0.1737
    112  C        -14.1900    2.9290   42.0830 C.2   243  TRP243      0.2596
    113  O        -13.6160    3.4440   41.1230 O.2   243  TRP243     -0.2718
    114  CB       -15.4250    0.7790   41.6820 C.3   243  TRP243      0.0564
    115  CG       -15.3230   -0.7020   41.5020 C.ar  243  TRP243      0.0003
    116  CD1      -16.1440   -1.6520   42.0380 C.ar  243  TRP243      0.0946
    117  CD2      -14.3250   -1.4070   40.7510 C.ar  243  TRP243      0.0152
    118  NE1      -15.7260   -2.9060   41.6630 N.ar  243  TRP243     -0.2442
    119  CE2      -14.6000   -2.7890   40.8850 C.ar  243  TRP243      0.0810
    120  CE3      -13.2340   -1.0050   39.9550 C.ar  243  TRP243      0.0012
    121  CZ2      -13.8190   -3.7700   40.2650 C.ar  243  TRP243      0.0191
    122  CZ3      -12.4450   -1.9770   39.3640 C.ar  243  TRP243      0.0001
    123  CH2      -12.7350   -3.3410   39.5270 C.ar  243  TRP243      0.0015
    124  N        -14.8650    3.6380   43.0240 N.am  244  THR244     -0.1953
    125  CA       -14.9430    5.1040   43.0240 C.3   244  THR244      0.1897
    126  C        -13.5460    5.7220   43.1930 C.2   244  THR244      0.2313
    127  O        -13.1970    6.6190   42.4280 O.2   244  THR244     -0.2863
    128  CB       -15.9400    5.5990   44.0740 C.3   244  THR244      0.1794
    129  OG1      -17.2190    5.0570   43.7590 O.3   244  THR244     -0.2208
    130  CG2      -16.0300    7.1330   44.1250 C.3   244  THR244      0.0378
    131  N        -11.6670    5.1780   39.7610 N.3   247  ILE247     -0.1231
    132  CA       -12.1250    6.0210   38.6480 C.3   247  ILE247      0.1692
    133  C        -11.7530    7.4940   38.8860 C.2   247  ILE247      0.2591
    134  O        -11.3520    8.1650   37.9330 O.2   247  ILE247     -0.2718
    135  CB       -13.6290    5.8180   38.2510 C.3   247  ILE247      0.0266
    136  CG1      -13.9370    6.3520   36.8310 C.3   247  ILE247      0.0019
    137  CG2      -14.6030    6.3840   39.2820 C.3   247  ILE247      0.0020
    138  CD1      -13.0370    5.8290   35.6470 C.3   247  ILE247      0.0001
    139  N        -11.8380    7.9730   40.1510 N.am  248  MET248     -0.1979
    140  CA       -11.4840    9.3550   40.5050 C.3   248  MET248      0.1605
    141  C        -10.0010    9.5980   40.3030 C.2   248  MET248      0.2287
    142  O         -9.6380   10.6180   39.7400 O.2   248  MET248     -0.2864
    143  CB       -11.9340    9.7330   41.9290 C.3   248  MET248      0.0413
    144  CG       -13.4550    9.9050   42.0870 C.3   248  MET248      0.0598
    145  SD       -14.4290   10.6670   40.7260 S.3   248  MET248     -0.1393
    146  CE       -13.8670   12.3390   40.7950 C.3   248  MET248      0.0692
    147  N         -9.5970    9.8210   36.5250 N.3   251  PHE251     -0.1241
    148  CA       -10.1420   11.1050   36.0750 C.3   251  PHE251      0.1605
    149  C         -9.2040   12.2560   36.4370 C.2   251  PHE251      0.2264
    150  O         -8.9120   13.0810   35.5720 O.2   251  PHE251     -0.2867
    151  CB       -11.5320   11.3530   36.6840 C.3   251  PHE251      0.0534
    152  CG       -12.6920   10.6230   36.0440 C.ar  251  PHE251     -0.0203
    153  CD1      -12.5100    9.8480   34.8990 C.ar  251  PHE251     -0.0042
    154  CD2      -13.9710   10.7040   36.5880 C.ar  251  PHE251     -0.0042
    155  CE1      -13.5930    9.1970   34.2960 C.ar  251  PHE251     -0.0003
    156  CE2      -15.0480   10.0350   35.9980 C.ar  251  PHE251     -0.0003
    157  CZ       -14.8560    9.3050   34.8450 C.ar  251  PHE251     -0.0000
    158  N        -15.1270   17.2870   32.7050 N.3   267  PRO267     -0.2102
    159  CA       -15.9500   17.1360   33.9280 C.3   267  PRO267      0.1504
    160  C        -15.4440   16.0260   34.8530 C.2   267  PRO267      0.2575
    161  O        -15.1040   14.9380   34.3780 O.2   267  PRO267     -0.2718
    162  CB       -17.3410   16.7720   33.3790 C.3   267  PRO267      0.0282
    163  CG       -17.3640   17.2960   31.9830 C.3   267  PRO267      0.0208
    164  CD       -15.9530   17.1650   31.4820 C.3   267  PRO267      0.0893
    165  N        -15.3590   16.3250   36.1720 N.am  268  MET268     -0.1980
    166  CA       -14.9130   15.4470   37.2800 C.3   268  MET268      0.1605
    167  C        -13.4010   15.1810   37.3100 C.2   268  MET268      0.2287
    168  O        -12.9420   14.3950   38.1480 O.2   268  MET268     -0.2864
    169  CB       -15.6710   14.1020   37.3070 C.3   268  MET268      0.0413
    170  CG       -17.1710   14.2340   37.3960 C.3   268  MET268      0.0598
    171  SD       -17.9660   12.6530   37.0780 S.3   268  MET268     -0.1393
    172  CE       -17.7410   12.5280   35.2480 C.3   268  MET268      0.0692
    173  N        -20.6470   13.6010   42.6220 N.3   279  SER279     -0.1202
    174  CA       -20.4080   12.9500   41.3300 C.3   279  SER279      0.2020
    175  C        -21.0140   11.5420   41.3140 C.2   279  SER279      0.2618
    176  O        -21.6540   11.1720   40.3280 O.2   279  SER279     -0.2717
    177  CB       -18.9150   12.9060   41.0150 C.3   279  SER279      0.2103
    178  OG       -18.4510   14.2340   40.8180 O.3   279  SER279     -0.2182
    179  N        -20.8680   10.7860   42.4330 N.am  280  GLN280     -0.1979
    180  CA       -21.4480    9.4460   42.5440 C.3   280  GLN280      0.1601
    181  C        -22.9620    9.4910   42.5780 C.2   280  GLN280      0.2287
    182  O        -23.6050    8.7230   41.8610 O.2   280  GLN280     -0.2864
    183  CB       -20.8570    8.6570   43.7270 C.3   280  GLN280      0.0394
    184  CG       -19.3850    8.2770   43.5190 C.3   280  GLN280      0.0908
    185  CD       -19.1150    7.7080   42.1380 C.2   280  GLN280      0.2608
    186  OE1      -19.6070    6.6370   41.7750 O.2   280  GLN280     -0.2717
    187  NE2      -18.3760    8.4480   41.3150 N.am  280  GLN280     -0.0878
    188  N        -24.0730   10.3840   39.0130 N.3   283  PHE283     -0.1241
    189  CA       -23.9190    9.2230   38.1260 C.3   283  PHE283      0.1605
    190  C        -25.0480    8.1990   38.3350 C.2   283  PHE283      0.2264
    191  O        -25.6340    7.7260   37.3530 O.2   283  PHE283     -0.2867
    192  CB       -22.5360    8.5970   38.3520 C.3   283  PHE283      0.0534
    193  CG       -22.1590    7.3660   37.5580 C.ar  283  PHE283     -0.0203
    194  CD1      -22.2400    7.3610   36.1700 C.ar  283  PHE283     -0.0042
    195  CD2      -21.5940    6.2630   38.1890 C.ar  283  PHE283     -0.0042
    196  CE1      -21.8500    6.2380   35.4340 C.ar  283  PHE283     -0.0003
    197  CE2      -21.1850    5.1470   37.4510 C.ar  283  PHE283     -0.0003
    198  CZ       -21.3010    5.1500   36.0760 C.ar  283  PHE283     -0.0000
    199  N        -27.5820    8.1180   35.2120 N.3   287  ILE287     -0.1245
    200  CA       -27.1620    7.0320   34.3230 C.3   287  ILE287      0.1561
    201  C        -27.4960    5.6260   34.8560 C.2   287  ILE287      0.2260
    202  O        -28.2260    4.8870   34.1940 O.2   287  ILE287     -0.2867
    203  CB       -25.6350    7.1670   33.9540 C.3   287  ILE287      0.0252
    204  CG1      -25.3550    8.4440   33.1250 C.3   287  ILE287      0.0019
    205  CG2      -25.1180    5.9240   33.1950 C.3   287  ILE287      0.0019
    206  CD1      -23.8690    8.8730   33.0560 C.3   287  ILE287      0.0001
@<TRIPOS>BOND
     1    49    50    1
     2    46    45    2
     3    54    53    1
     4    51    50    1
     5    51    52    2
     6    50    53    1
     7    45    44    1
     8    58    59    2
     9    58    57    1
    10    56    57    1
    11    53    55    1
    12    57    60    1
    13    33    34    1
    14    44    47    1
    15    44    43    1
    16    48    47    1
    17    34    35    1
    18    34    37    1
    19    60    61    1
    20    35    36    2
    21    40    42   ar
    22    40    38   ar
    23    68    69    1
    24    68    65    1
    25    42    41   ar
    26    37    38    1
    27    38    39   ar
    28    69    70   ar
    29    69    71   ar
    30    70    72   ar
    31    71    73   ar
    32    41    39   ar
    33    72    73   ar
    34    64    65    1
    35    61    62    1
    36    65    66    1
    37    62    63    1
    38    81    79   ar
    39    66    67    2
    40    79    78    1
    41    79    80   ar
    42    78    75    1
    43   164   163    1
    44   164   158    1
    45    20    22   ar
    46    20    18   ar
    47    22    21   ar
    48    16    15    2
    49    17    18    1
    50    17    14    1
    51   163   162    1
    52    18    19   ar
    53    21    19   ar
    54    88    87    1
    55   158   159    1
    56    32    30   ar
    57    32    31   ar
    58    75    74    1
    59    75    76    1
    60    15    14    1
    61    87    89    1
    62    87    86    1
    63   206   204    1
    64    30    28   ar
    65   204   203    1
    66    14    13    1
    67   205   203    1
    68   162   159    1
    69    76    82   am
    70    76    77    2
    71   159   160    1
    72   203   200    1
    73    31    29   ar
    74    82    83    1
    75    86    83    1
    76   202   201    2
    77   155   157   ar
    78   155   153   ar
    79   200   201    1
    80   200   199    1
    81    13     3   am
    82   161   160    2
    83    28    29   ar
    84    28    27    1
    85    25    26    2
    86    25    24    1
    87   157   156   ar
    88   160   165   am
    89   153   152   ar
    90    83    84    1
    91    27    24    1
    92   172   171    1
    93     9     7   ar
    94     9    11   ar
    95   196   198   ar
    96   196   194   ar
    97     7     6   ar
    98   150   149    2
    99     3     4    2
   100     3     2    1
   101   138   136    1
   102    24    23    1
   103   156   154   ar
   104   152   154   ar
   105   152   151    1
   106   148   149    1
   107   148   147    1
   108   148   151    1
   109   198   197   ar
   110   194   193   ar
   111   165   166    1
   112    84    85    2
   113    12    11    1
   114    11    10   ar
   115     6     5    1
   116     6     8   ar
   117     5     2    1
   118     2     1    1
   119   136   135    1
   120   171   170    1
   121   166   169    1
   122   166   167    1
   123   169   170    1
   124   167   168    2
   125   191   190    2
   126   197   195   ar
   127   193   195   ar
   128   193   192    1
   129    10     8   ar
   130   134   133    2
   131   189   190    1
   132   189   192    1
   133   189   188    1
   134   135   132    1
   135   135   137    1
   136   132   133    1
   137   132   131    1
   138    96    95    2
   139   133   139   am
   140    97    95   am
   141    90    91    1
   142    95    94    1
   143   122   123   ar
   144   122   120   ar
   145   123   121   ar
   146   142   141    2
   147   120   117   ar
   148   139   140    1
   149    94    91    1
   150   121   119   ar
   151   141   140    1
   152   176   175    2
   153    91    92    1
   154   140   143    1
   155   145   146    1
   156   145   144    1
   157   117   119   ar
   158   117   115   ar
   159   178   177    1
   160   119   118   ar
   161   177   174    1
   162   113   112    2
   163   175   174    1
   164   175   179   am
   165   187   185   am
   166   174   173    1
   167   115   114    1
   168   115   116   ar
   169    92    93    2
   170   118   116   ar
   171   114   111    1
   172   186   185    2
   173   182   181    2
   174   143   144    1
   175   112   111    1
   176   112   124   am
   177   185   184    1
   178   111   110    1
   179   127   126    2
   180   179   180    1
   181   180   181    1
   182   180   183    1
   183   125   124    1
   184   125   126    1
   185   125   128    1
   186   109   108    1
   187   106   104   ar
   188   106   108   ar
   189   184   183    1
   190   104   103   ar
   191   108   107   ar
   192   129   128    1
   193   128   130    1
   194   101   100    2
   195   107   105   ar
   196   103   105   ar
   197   103   102    1
   198    99   102    1
   199    99   100    1
   200    99    98    1
