@<TRIPOS>MOLECULE
tmp/5tkcA00.pdb
 130 120 0 0 0
SMALL
GASTEIGER

@<TRIPOS>ATOM
      1  N        -33.4990    0.2890   -9.5120 N.3    31  ALA31      -0.1245
      2  CA       -32.6670    1.4880   -9.4660 C.3    31  ALA31       0.1562
      3  C        -33.4230    2.5790  -10.2040 C.2    31  ALA31       0.2260
      4  O        -33.4680    2.6130  -11.4410 O.2    31  ALA31      -0.2867
      5  CB       -31.2970    1.2300  -10.0700 C.3    31  ALA31       0.0290
      6  N        -32.9480    5.9420   -9.2900 N.3    33  ASP33      -0.1239
      7  CA       -32.2780    7.1090   -8.7280 C.3    33  ASP33       0.1674
      8  C        -31.6240    7.9940   -9.7870 C.2    33  ASP33       0.2266
      9  O        -30.6590    8.7000   -9.4850 O.2    33  ASP33      -0.2867
     10  CB       -31.2370    6.6720   -7.6890 C.3    33  ASP33       0.1410
     11  CG       -30.1180    5.8100   -8.2820 C.2    33  ASP33       0.3668
     12  OD1      -30.3990    4.8330   -9.0060 O.co2  33  ASP33      -0.2456
     13  OD2      -28.9380    6.1050   -8.0030 O.co2  33  ASP33      -0.2456
     14  N        -33.0180    9.6600  -20.3820 N.3    42  ARG42      -0.1245
     15  CA       -34.0340    8.6160  -20.4700 C.3    42  ARG42       0.1563
     16  C        -35.3310    9.1620  -21.0590 C.2    42  ARG42       0.2260
     17  O        -35.9500    8.5220  -21.9150 O.2    42  ARG42      -0.2867
     18  CB       -34.2840    8.0040  -19.0840 C.3    42  ARG42       0.0307
     19  CG       -33.0270    7.5530  -18.3470 C.3    42  ARG42       0.0489
     20  CD       -32.3000    6.4410  -19.0740 C.3    42  ARG42       0.2205
     21  NE       -31.2200    5.8890  -18.2600 N.pl3  42  ARG42      -0.0865
     22  CZ       -29.9270    6.1780  -18.3910 C.cat  42  ARG42       0.5346
     23  NH1      -29.5050    7.0230  -19.3260 N.pl3  42  ARG42       0.1354
     24  NH2      -29.0420    5.6120  -17.5780 N.pl3  42  ARG42       0.1354
     25  N        -33.9150    2.2650   -5.1380 N.3    76  ILE76      -0.1245
     26  CA       -32.9810    3.3640   -4.9580 C.3    76  ILE76       0.1561
     27  C        -33.6230    4.6270   -5.4900 C.2    76  ILE76       0.2260
     28  O        -34.0160    4.6810   -6.6610 O.2    76  ILE76      -0.2867
     29  CB       -31.6480    3.1150   -5.6820 C.3    76  ILE76       0.0252
     30  CG1      -31.1680    1.6770   -5.4970 C.3    76  ILE76       0.0019
     31  CG2      -30.5910    4.1250   -5.1490 C.3    76  ILE76       0.0019
     32  CD1      -29.8380    1.3810   -6.1730 C.3    76  ILE76       0.0001
     33  N        -26.4870    4.3790   -1.8280 N.3   145  LYS145     -0.1245
     34  CA       -25.7480    3.9830   -3.0030 C.3   145  LYS145      0.1561
     35  C        -24.7560    5.0690   -3.3950 C.2   145  LYS145      0.2260
     36  O        -25.0800    6.2610   -3.3750 O.2   145  LYS145     -0.2867
     37  CB       -26.6850    3.7050   -4.1730 C.3   145  LYS145      0.0271
     38  CG       -26.0180    2.8920   -5.2830 C.3   145  LYS145      0.0035
     39  CD       -26.4150    3.3450   -6.6530 C.3   145  LYS145      0.0206
     40  CE       -25.7810    4.6610   -6.9690 C.3   145  LYS145      0.1093
     41  NZ       -26.2550    5.1700   -8.2770 N.3   145  LYS145     -0.1314
     42  N        -21.8410    5.6190   -6.5450 N.3   147  ARG147     -0.1245
     43  CA       -21.3140    5.1070   -7.8010 C.3   147  ARG147      0.1563
     44  C        -19.9210    5.6680   -8.0750 C.2   147  ARG147      0.2260
     45  O        -19.7410    6.8920   -8.1580 O.2   147  ARG147     -0.2867
     46  CB       -22.2370    5.4530   -8.9590 C.3   147  ARG147      0.0307
     47  CG       -21.7180    4.9310  -10.2990 C.3   147  ARG147      0.0489
     48  CD       -22.7610    5.1450  -11.3870 C.3   147  ARG147      0.2205
     49  NE       -22.3410    4.6890  -12.7140 N.pl3 147  ARG147     -0.0865
     50  CZ       -22.0270    5.4860  -13.7340 C.cat 147  ARG147      0.5346
     51  NH1      -22.0560    6.8070  -13.6090 N.pl3 147  ARG147      0.1354
     52  NH2      -21.6960    4.9500  -14.9110 N.pl3 147  ARG147      0.1354
     53  N        -20.6370    0.4650   -5.2350 N.3   188  GLU188     -0.1245
     54  CA       -20.7680    0.3370   -6.6880 C.3   188  GLU188      0.1567
     55  C        -19.4880    0.7850   -7.3750 C.2   188  GLU188      0.2260
     56  O        -19.3400    1.9710   -7.6980 O.2   188  GLU188     -0.2867
     57  CB       -21.9380    1.1420   -7.2410 C.3   188  GLU188      0.0388
     58  CG       -22.0270    1.0380   -8.7910 C.3   188  GLU188      0.1160
     59  CD       -23.2770    1.7070   -9.4050 C.2   188  GLU188      0.3649
     60  OE1      -24.0560    2.3300   -8.6770 O.co2 188  GLU188     -0.2457
     61  OE2      -23.4680    1.6150  -10.6340 O.co2 188  GLU188     -0.2457
     62  N        -18.1860    0.6220  -10.7460 N.3   190  GLU190     -0.1245
     63  CA       -18.6000    0.2300  -12.0850 C.3   190  GLU190      0.1567
     64  C        -17.4210    0.3520  -13.0430 C.2   190  GLU190      0.2260
     65  O        -16.9120    1.4500  -13.2730 O.2   190  GLU190     -0.2867
     66  CB       -19.7690    1.0610  -12.6150 C.3   190  GLU190      0.0388
     67  CG       -20.0200    0.7290  -14.0720 C.3   190  GLU190      0.1160
     68  CD       -21.3160    1.2810  -14.6830 C.2   190  GLU190      0.3649
     69  OE1      -21.9790    2.1430  -14.0830 O.co2 190  GLU190     -0.2457
     70  OE2      -21.6290    0.8570  -15.8170 O.co2 190  GLU190     -0.2457
     71  N        -22.4700   -3.8050   -5.7770 N.3   230  LYS230     -0.1245
     72  CA       -23.1500   -3.5920   -7.0540 C.3   230  LYS230      0.1561
     73  C        -22.0750   -3.4560   -8.1270 C.2   230  LYS230      0.2260
     74  O        -21.6440   -2.3420   -8.4530 O.2   230  LYS230     -0.2867
     75  CB       -24.0470   -2.3540   -6.9940 C.3   230  LYS230      0.0271
     76  CG       -24.7700   -2.0270   -8.2800 C.3   230  LYS230      0.0035
     77  CD       -25.7920   -0.9210   -8.1150 C.3   230  LYS230      0.0206
     78  CE       -26.4180   -0.5950   -9.4750 C.3   230  LYS230      0.1093
     79  NZ       -27.4540    0.4990   -9.4320 N.3   230  LYS230     -0.1314
     80  N        -25.3410   -4.2840  -11.5710 N.3   271  LEU271     -0.1231
     81  CA       -25.8040   -3.2650  -12.4980 C.3   271  LEU271      0.1693
     82  C        -25.9300   -3.8640  -13.8940 C.2   271  LEU271      0.2593
     83  O        -25.2460   -4.8370  -14.2380 O.2   271  LEU271     -0.2718
     84  CB       -24.8380   -2.0780  -12.5000 C.3   271  LEU271      0.0284
     85  CG       -23.3920   -2.3700  -12.8990 C.3   271  LEU271      0.0019
     86  CD1      -23.1900   -2.1490  -14.4240 C.3   271  LEU271      0.0001
     87  CD2      -22.4130   -1.5070  -12.0950 C.3   271  LEU271      0.0001
     88  N        -26.8340   -3.3030  -14.7030 N.am  272  SER272     -0.1938
     89  CA       -27.0310   -3.8420  -16.0450 C.3   272  SER272      0.2055
     90  C        -26.1860   -3.1300  -17.0880 C.2   272  SER272      0.2643
     91  O        -25.9210   -3.7060  -18.1500 O.2   272  SER272     -0.2714
     92  CB       -28.5150   -3.7880  -16.4430 C.3   272  SER272      0.2130
     93  OG       -29.0280   -2.4640  -16.4570 O.3   272  SER272     -0.2179
     94  N        -25.7510   -1.9080  -16.8040 N.am  273  GLY273     -0.1954
     95  CA       -24.7470   -1.2210  -17.6000 C.3   273  GLY273      0.1869
     96  C        -24.8880   -1.2790  -19.1140 C.2   273  GLY273      0.2309
     97  O        -23.9180   -1.5860  -19.8160 O.2   273  GLY273     -0.2863
     98  N        -29.5870   -5.0500   -9.3730 N.3   300  SER300     -0.1202
     99  CA       -29.9810   -3.6750   -9.0600 C.3   300  SER300      0.2020
    100  C        -30.0060   -2.9520  -10.3920 C.2   300  SER300      0.2619
    101  O        -29.0280   -2.3090  -10.7950 O.2   300  SER300     -0.2717
    102  CB       -29.0340   -3.0250   -8.0600 C.3   300  SER300      0.2103
    103  OG       -29.3360   -1.6360   -7.8500 O.3   300  SER300     -0.2182
    104  N        -31.1420   -3.0520  -11.0690 N.am  301  TYR301     -0.1961
    105  CA       -31.2640   -2.6620  -12.4600 C.3   301  TYR301      0.1771
    106  C        -32.0340   -1.3660  -12.5770 C.2   301  TYR301      0.2620
    107  O        -33.0630   -1.1880  -11.9210 O.2   301  TYR301     -0.2715
    108  CB       -31.9910   -3.7360  -13.2630 C.3   301  TYR301      0.0574
    109  CG       -31.2280   -5.0010  -13.4840 C.ar  301  TYR301     -0.0198
    110  CD1      -29.8700   -5.0990  -13.1880 C.ar  301  TYR301     -0.0009
    111  CD2      -31.8550   -6.0990  -14.0350 C.ar  301  TYR301     -0.0009
    112  CE1      -29.1790   -6.2700  -13.4190 C.ar  301  TYR301      0.0417
    113  CE2      -31.1790   -7.2710  -14.2600 C.ar  301  TYR301      0.0417
    114  CZ       -29.8320   -7.3500  -13.9630 C.ar  301  TYR301      0.1957
    115  OH       -29.1620   -8.5310  -14.2030 O.3   301  TYR301     -0.2866
    116  N        -31.5380   -0.4760  -13.4300 N.am  302  GLY302     -0.1940
    117  CA       -32.2750    0.7060  -13.8130 C.3   302  GLY302      0.2014
    118  C        -32.8620    0.5290  -15.1990 C.2   302  GLY302      0.2638
    119  O        -34.0450    0.2240  -15.3480 O.2   302  GLY302     -0.2714
    120  N        -32.0200    0.6980  -16.2190 N.am  303  ARG303     -0.1977
    121  CA       -32.4680    0.5650  -17.6020 C.3   303  ARG303      0.1597
    122  C        -33.0920   -0.8030  -17.8580 C.2   303  ARG303      0.2287
    123  O        -34.1260   -0.9100  -18.5250 O.2   303  ARG303     -0.2864
    124  CB       -31.2800    0.8000  -18.5430 C.3   303  ARG303      0.0334
    125  CG       -30.7250    2.2330  -18.5050 C.3   303  ARG303      0.0492
    126  CD       -29.3360    2.3500  -19.1460 C.3   303  ARG303      0.2205
    127  NE       -28.2560    2.1080  -18.1890 N.pl3 303  ARG303     -0.0865
    128  CZ       -26.9590    2.2550  -18.4570 C.cat 303  ARG303      0.5346
    129  NH1      -26.0560    2.0140  -17.5140 N.pl3 303  ARG303      0.1354
    130  NH2      -26.5540    2.6390  -19.6640 N.pl3 303  ARG303      0.1354
@<TRIPOS>BOND
     1    17    16    2
     2    16    15    1
     3    15    14    1
     4    15    18    1
     5    97    96    2
     6   130   128    1
     7    23    22    1
     8   126   125    1
     9   126   127    1
    10    96    95    1
    11    18    19    1
    12    20    19    1
    13    20    21    1
    14   124   125    1
    15   124   121    1
    16   123   122    2
    17   128   127    2
    18   128   129    1
    19    22    21    2
    20    22    24    1
    21    91    90    2
    22   122   121    1
    23   121   120    1
    24    95    94    1
    25    90    94   am
    26    90    89    1
    27    93    92    1
    28    92    89    1
    29   120   118   am
    30    89    88    1
    31    70    68   ar
    32   119   118    2
    33   118   117    1
    34    52    50    1
    35    88    82   am
    36    68    69   ar
    37    68    67    1
    38    86    85    1
    39   113   111   ar
    40   113   114   ar
    41    83    82    2
    42   115   114    1
    43    67    66    1
    44   111   109   ar
    45   114   112   ar
    46    82    81    1
    47   117   116    1
    48    50    51    1
    49    50    49    2
    50   109   108    1
    51   109   110   ar
    52   116   106   am
    53   112   110   ar
    54    65    64    2
    55   108   105    1
    56    64    63    1
    57    85    84    1
    58    85    87    1
    59    49    48    1
    60    66    63    1
    61   106   105    1
    62   106   107    2
    63    84    81    1
    64    81    80    1
    65   105   104    1
    66    63    62    1
    67     4     3    2
    68    48    47    1
    69   104   100   am
    70   101   100    2
    71    61    59   ar
    72   100    99    1
    73    47    46    1
    74     3     2    1
    75     5     2    1
    76     8     9    2
    77     8     7    1
    78     1     2    1
    79    78    79    1
    80    78    77    1
    81    59    58    1
    82    59    60   ar
    83    98    99    1
    84     6     7    1
    85    99   102    1
    86    12    11   ar
    87    46    43    1
    88    58    57    1
    89     7    10    1
    90    74    73    2
    91    11    13   ar
    92    11    10    1
    93    76    77    1
    94    76    75    1
    95    41    40    1
    96    45    44    2
    97    73    72    1
    98    44    43    1
    99   102   103    1
   100    43    42    1
   101    56    55    2
   102    55    54    1
   103    57    54    1
   104    72    75    1
   105    72    71    1
   106    40    39    1
   107    54    53    1
   108    28    27    2
   109    39    38    1
   110    32    30    1
   111    29    30    1
   112    29    31    1
   113    29    26    1
   114    27    26    1
   115    38    37    1
   116    25    26    1
   117    37    34    1
   118    35    36    2
   119    35    34    1
   120    34    33    1
