@<TRIPOS>MOLECULE
tmp/5tkdA00.pdb
 145 139 0 0 0
SMALL
GASTEIGER

@<TRIPOS>ATOM
      1  N         13.3530  -10.0990   32.2830 N.3    15  LEU15      -0.1231
      2  CA        12.5680   -9.1990   31.4320 C.3    15  LEU15       0.1693
      3  C         12.8420   -9.4400   29.9630 C.2    15  LEU15       0.2593
      4  O         11.9370   -9.3190   29.1520 O.2    15  LEU15      -0.2718
      5  CB        12.8270   -7.7310   31.7760 C.3    15  LEU15       0.0284
      6  CG        12.3390   -7.2080   33.1270 C.3    15  LEU15       0.0019
      7  CD1       12.8700   -5.8120   33.3570 C.3    15  LEU15       0.0001
      8  CD2       10.7940   -7.2390   33.2440 C.3    15  LEU15       0.0001
      9  N         14.0840   -9.7470   29.6200 N.am   16  GLY16      -0.1942
     10  CA        14.4770   -9.9840   28.2390 C.3    16  GLY16       0.2014
     11  C         15.9840  -10.0030   28.0850 C.2    16  GLY16       0.2639
     12  O         16.7210   -9.9670   29.0700 O.2    16  GLY16      -0.2714
     13  N         16.4410  -10.0860   26.8530 N.am   17  GLN17      -0.1963
     14  CA        17.8560  -10.1320   26.5710 C.3    17  GLN17       0.1733
     15  C         18.2460   -8.9720   25.6920 C.2    17  GLN17       0.2616
     16  O         17.4790   -8.5610   24.8120 O.2    17  GLN17      -0.2715
     17  CB        18.2320  -11.4400   25.8590 C.3    17  GLN17       0.0408
     18  CG        17.8900  -12.6970   26.6460 C.3    17  GLN17       0.0908
     19  CD        18.4840  -13.9080   26.0100 C.2    17  GLN17       0.2608
     20  OE1       18.1450  -14.2610   24.8870 O.2    17  GLN17      -0.2717
     21  NE2       19.3470  -14.5910   26.7430 N.am   17  GLN17      -0.0878
     22  N         19.4370   -8.4610   25.9490 N.am   18  GLY18      -0.1955
     23  CA        20.0640   -7.4170   25.1570 C.3    18  GLY18       0.1869
     24  C         21.2850   -8.0240   24.5040 C.2    18  GLY18       0.2309
     25  O         21.4760   -9.2440   24.5690 O.2    18  GLY18      -0.2863
     26  N         18.4470   -9.0760   31.0790 N.3    23  VAL23      -0.1245
     27  CA        17.8770   -7.9510   31.7880 C.3    23  VAL23       0.1561
     28  C         16.7850   -8.4460   32.7330 C.2    23  VAL23       0.2260
     29  O         15.8950   -9.1760   32.3000 O.2    23  VAL23      -0.2867
     30  CB        17.4040   -6.8810   30.7770 C.3    23  VAL23       0.0252
     31  CG1       16.7120   -5.7220   31.4760 C.3    23  VAL23       0.0019
     32  CG2       18.5820   -6.3760   29.9240 C.3    23  VAL23       0.0019
     33  N         16.2220   -2.0050   37.1850 N.3    33  VAL33      -0.1245
     34  CA        16.4850   -3.0010   36.1870 C.3    33  VAL33       0.1561
     35  C         17.9740   -3.3690   36.3550 C.2    33  VAL33       0.2260
     36  O         18.7870   -2.5070   36.6670 O.2    33  VAL33      -0.2867
     37  CB        16.0850   -2.4310   34.8050 C.3    33  VAL33       0.0252
     38  CG1       16.8810   -3.0360   33.6880 C.3    33  VAL33       0.0019
     39  CG2       14.5850   -2.6150   34.5800 C.3    33  VAL33       0.0019
     40  N         21.0800   -5.1270   34.3470 N.3    35  LYS35      -0.1245
     41  CA        21.5130   -5.5830   33.0200 C.3    35  LYS35       0.1561
     42  C         22.7720   -6.3590   33.2620 C.2    35  LYS35       0.2260
     43  O         23.8280   -5.7760   33.5170 O.2    35  LYS35      -0.2867
     44  CB        21.7250   -4.4050   32.0670 C.3    35  LYS35       0.0271
     45  CG        20.4940   -3.5210   32.0180 C.3    35  LYS35       0.0035
     46  CD        20.5120   -2.5640   30.8610 C.3    35  LYS35       0.0206
     47  CE        19.1270   -1.9450   30.7510 C.3    35  LYS35       0.1093
     48  NZ        19.0120   -1.0840   29.5420 N.3    35  LYS35      -0.1314
     49  N         20.0820    0.1020   36.2880 N.3    80  THR80      -0.1203
     50  CA        19.5000    1.2260   35.5680 C.3    80  THR80       0.1994
     51  C         18.0350    1.4540   35.9460 C.2    80  THR80       0.2618
     52  O         17.4370    0.6560   36.6750 O.2    80  THR80      -0.2717
     53  CB        19.7210    1.0710   34.0290 C.3    80  THR80       0.1784
     54  OG1       18.9320   -0.0030   33.5480 O.3    80  THR80      -0.2211
     55  CG2       21.1850    0.8040   33.6430 C.3    80  THR80       0.0376
     56  N         17.4670    2.5540   35.4280 N.am   81  GLU81      -0.1965
     57  CA        16.0950    2.9650   35.7220 C.3    81  GLU81       0.1733
     58  C         15.0540    1.9430   35.2660 C.2    81  GLU81       0.2616
     59  O         15.0650    1.5080   34.1050 O.2    81  GLU81      -0.2715
     60  CB        15.8480    4.3230   35.0610 C.3    81  GLU81       0.0429
     61  CG        14.5210    4.9560   35.4210 C.3    81  GLU81       0.1163
     62  CD        14.3160    6.3440   34.8580 C.2    81  GLU81       0.3649
     63  OE1       15.2560    6.8990   34.2500 O.co2  81  GLU81      -0.2457
     64  OE2       13.2190    6.8990   35.0660 O.co2  81  GLU81      -0.2457
     65  N         14.1410    1.5660   36.1700 N.am   82  TYR82      -0.1960
     66  CA        13.0010    0.7300   35.8010 C.3    82  TYR82       0.1771
     67  C         11.9950    1.7180   35.2180 C.2    82  TYR82       0.2619
     68  O         11.6240    2.6830   35.8940 O.2    82  TYR82      -0.2715
     69  CB        12.4010    0.0230   37.0190 C.3    82  TYR82       0.0574
     70  CG        11.2370   -0.8960   36.6840 C.ar   82  TYR82      -0.0198
     71  CD1        9.9400   -0.4030   36.5830 C.ar   82  TYR82      -0.0009
     72  CD2       11.4360   -2.2530   36.4680 C.ar   82  TYR82      -0.0009
     73  CE1        8.8610   -1.2470   36.3020 C.ar   82  TYR82       0.0417
     74  CE2       10.3670   -3.1060   36.1710 C.ar   82  TYR82       0.0417
     75  CZ         9.0790   -2.5990   36.1160 C.ar   82  TYR82       0.1957
     76  OH         8.0140   -3.4290   35.8620 O.3    82  TYR82      -0.2866
     77  N         11.6170    1.5300   33.9530 N.am   83  VAL83      -0.1963
     78  CA        10.6930    2.4460   33.2710 C.3    83  VAL83       0.1727
     79  C          9.3600    1.6960   33.1340 C.2    83  VAL83       0.2616
     80  O          9.3250    0.5960   32.5940 O.2    83  VAL83      -0.2715
     81  CB        11.2640    3.0250   31.9560 C.3    83  VAL83       0.0290
     82  CG1       10.2970    4.0400   31.3520 C.3    83  VAL83       0.0023
     83  CG2       12.6200    3.6950   32.1920 C.3    83  VAL83       0.0023
     84  N          8.2810    2.2880   33.6740 N.am   84  GLU84      -0.1963
     85  CA         6.9710    1.6830   33.8840 C.3    84  GLU84       0.1733
     86  C          6.4700    0.7160   32.8090 C.2    84  GLU84       0.2616
     87  O          6.0510   -0.3830   33.1600 O.2    84  GLU84      -0.2715
     88  CB         5.8940    2.7540   34.1460 C.3    84  GLU84       0.0429
     89  CG         4.5690    2.1760   34.6350 C.3    84  GLU84       0.1163
     90  CD         4.5900    1.4760   35.9840 C.2    84  GLU84       0.3649
     91  OE1        5.3850    1.8800   36.8660 O.co2  84  GLU84      -0.2457
     92  OE2        3.7920    0.5290   36.1610 O.co2  84  GLU84      -0.2457
     93  N          6.4450    1.1210   31.5300 N.am   85  HIS85      -0.1959
     94  CA         5.8090    0.3010   30.5120 C.3    85  HIS85       0.1787
     95  C          6.7520   -0.3910   29.5420 C.2    85  HIS85       0.2621
     96  O          6.3050   -1.0100   28.5810 O.2    85  HIS85      -0.2715
     97  CB         4.7570    1.1350   29.7690 C.3    85  HIS85       0.0785
     98  CG         3.6720    1.6020   30.6860 C.ar   85  HIS85       0.0821
     99  ND1        3.6080    2.9200   31.1180 N.ar   85  HIS85      -0.2267
    100  CD2        2.6550    0.9080   31.2460 C.ar   85  HIS85       0.1154
    101  CE1        2.5520    2.9870   31.9140 C.ar   85  HIS85       0.1986
    102  NE2        1.9600    1.7980   32.0390 N.ar   85  HIS85      -0.2212
    103  N          8.0340   -0.3640   29.8380 N.am   86  GLY86      -0.1940
    104  CA         8.9760   -1.0950   29.0110 C.3    86  GLY86       0.1998
    105  C          9.1860   -0.5800   27.5970 C.2    86  GLY86       0.2480
    106  O          8.8210    0.5530   27.2750 O.2    86  GLY86      -0.2729
    107  N          9.7910   -1.4300   26.7510 N.am   87  PRO87      -0.2726
    108  CA        10.2120   -0.9840   25.3980 C.3    87  PRO87       0.1402
    109  C          9.1120   -0.5710   24.4240 C.2    87  PRO87       0.2269
    110  O          8.0710   -1.2150   24.3370 O.2    87  PRO87      -0.2865
    111  CB        11.0090   -2.1780   24.8670 C.3    87  PRO87       0.0296
    112  CG        11.5340   -2.8450   26.1340 C.3    87  PRO87       0.0237
    113  CD        10.3300   -2.7690   27.0520 C.3    87  PRO87       0.0939
    114  N          7.8700   -3.2610   21.4670 N.3    90  VAL90      -0.1245
    115  CA         6.9490   -4.2860   21.9830 C.3    90  VAL90       0.1561
    116  C          5.5630   -3.6850   22.0910 C.2    90  VAL90       0.2260
    117  O          4.5910   -4.2650   21.6020 O.2    90  VAL90      -0.2867
    118  CB         7.4400   -4.8700   23.3380 C.3    90  VAL90       0.0252
    119  CG1        6.3830   -5.7950   23.9630 C.3    90  VAL90       0.0019
    120  CG2        8.7650   -5.6090   23.1610 C.3    90  VAL90       0.0019
    121  N         13.6300   -0.6760   20.5470 N.3   131  ARG131     -0.1245
    122  CA        13.8960   -1.5110   21.7190 C.3   131  ARG131      0.1563
    123  C         14.5670   -0.7100   22.8390 C.2   131  ARG131      0.2260
    124  O         14.3610   -1.0090   24.0160 O.2   131  ARG131     -0.2867
    125  CB        14.7530   -2.7320   21.3320 C.3   131  ARG131      0.0307
    126  CG        15.1900   -3.6360   22.5340 C.3   131  ARG131      0.0489
    127  CD        14.0060   -4.2210   23.3210 C.3   131  ARG131      0.2205
    128  NE        13.0300   -4.8880   22.4480 N.pl3 131  ARG131     -0.0865
    129  CZ        13.1290   -6.1580   22.0490 C.cat 131  ARG131      0.5346
    130  NH1       12.2180   -6.6770   21.2340 N.pl3 131  ARG131      0.1354
    131  NH2       14.1420   -6.9170   22.4630 N.pl3 131  ARG131      0.1354
    132  N         12.1520    3.5040   26.0740 N.3   134  LEU134     -0.1245
    133  CA        11.2790    2.9800   27.1110 C.3   134  LEU134      0.1561
    134  C         10.1080    3.9430   27.3750 C.2   134  LEU134      0.2260
    135  O         10.2780    5.1590   27.2920 O.2   134  LEU134     -0.2867
    136  CB        12.1230    2.8050   28.3750 C.3   134  LEU134      0.0270
    137  CG        13.3590    1.8890   28.2060 C.3   134  LEU134      0.0019
    138  CD1       14.4020    2.1980   29.2890 C.3   134  LEU134      0.0001
    139  CD2       12.9500    0.4000   28.1700 C.3   134  LEU134      0.0001
    140  N         17.0290    4.5450   26.5730 N.3   151  SER151     -0.1217
    141  CA        17.7900    3.6350   27.4230 C.3   151  SER151      0.1889
    142  C         19.3010    3.8180   27.1810 C.2   151  SER151      0.2288
    143  O         19.7180    4.3910   26.1640 O.2   151  SER151     -0.2866
    144  CB        17.3900    2.1940   27.0880 C.3   151  SER151      0.2089
    145  OG        18.2750    1.2240   27.6250 O.3   151  SER151     -0.2183
@<TRIPOS>BOND
     1   121   122    1
     2   130   129    1
     3   125   122    1
     4   125   126    1
     5   114   115    1
     6   117   116    2
     7   122   123    1
     8   115   116    1
     9   115   118    1
    10   129   128    2
    11   129   131    1
    12   128   127    1
    13   126   127    1
    14   123   124    2
    15   120   118    1
    16   118   119    1
    17   110   109    2
    18   109   108    1
    19    24    25    2
    20    24    23    1
    21    16    15    2
    22   111   108    1
    23   111   112    1
    24    20    19    2
    25    23    22    1
    26   108   107    1
    27    15    22   am
    28    15    14    1
    29    17    14    1
    30    17    18    1
    31    19    18    1
    32    19    21   am
    33   132   133    1
    34   112   113    1
    35   143   142    2
    36    14    13    1
    37   140   141    1
    38   107   113    1
    39   107   105   am
    40    13    11   am
    41   144   141    1
    42   144   145    1
    43   133   134    1
    44   133   136    1
    45   142   141    1
    46   106   105    2
    47   135   134    2
    48   105   104    1
    49    11    10    1
    50    11    12    2
    51   139   137    1
    52   137   136    1
    53   137   138    1
    54    10     9    1
    55    96    95    2
    56   104   103    1
    57     4     3    2
    58    95   103   am
    59    95    94    1
    60    48    47    1
    61     9     3   am
    62    97    94    1
    63    97    98    1
    64    32    30    1
    65     3     2    1
    66    94    93    1
    67    98    99   ar
    68    98   100   ar
    69    47    46    1
    70    30    31    1
    71    30    27    1
    72    46    45    1
    73    26    27    1
    74    99   101   ar
    75   100   102   ar
    76    82    81    1
    77     2     5    1
    78     2     1    1
    79    93    86   am
    80     5     6    1
    81    27    28    1
    82   101   102   ar
    83    81    83    1
    84    81    78    1
    85    45    44    1
    86    44    41    1
    87    29    28    2
    88    80    79    2
    89    86    87    2
    90    86    85    1
    91    41    42    1
    92    41    40    1
    93     6     8    1
    94     6     7    1
    95    79    78    1
    96    79    84   am
    97    42    43    2
    98    78    77    1
    99    54    53    1
   100    55    53    1
   101    84    85    1
   102    38    37    1
   103    85    88    1
   104    77    67   am
   105    53    50    1
   106    59    58    2
   107    88    89    1
   108    63    62   ar
   109    39    37    1
   110    89    90    1
   111    37    34    1
   112    62    64   ar
   113    62    61    1
   114    60    61    1
   115    60    57    1
   116    67    66    1
   117    67    68    2
   118    58    57    1
   119    58    65   am
   120    56    57    1
   121    56    51   am
   122    50    51    1
   123    50    49    1
   124    66    65    1
   125    66    69    1
   126    76    75    1
   127    51    52    2
   128    90    92   ar
   129    90    91   ar
   130    75    74   ar
   131    75    73   ar
   132    74    72   ar
   133    34    35    1
   134    34    33    1
   135    73    71   ar
   136    35    36    2
   137    72    70   ar
   138    71    70   ar
   139    70    69    1
