@<TRIPOS>MOLECULE
tmp/5tklA00.pdb
 173 159 0 0 0
SMALL
GASTEIGER

@<TRIPOS>ATOM
      1  N        -33.4640    0.2790   -9.5220 N.3    32  ALA32      -0.1245
      2  CA       -32.6290    1.4780   -9.4450 C.3    32  ALA32       0.1562
      3  C        -33.3520    2.5900  -10.1930 C.2    32  ALA32       0.2260
      4  O        -33.3220    2.6520  -11.4260 O.2    32  ALA32      -0.2867
      5  CB       -31.2410    1.2260  -10.0200 C.3    32  ALA32       0.0290
      6  N        -32.8970    5.9440   -9.3080 N.3    34  ASP34      -0.1225
      7  CA       -32.2320    7.1040   -8.7200 C.3    34  ASP34       0.1805
      8  C        -31.5680    8.0020   -9.7580 C.2    34  ASP34       0.2598
      9  O        -30.6030    8.7090   -9.4370 O.2    34  ASP34      -0.2718
     10  CB       -31.1970    6.6440   -7.6960 C.3    34  ASP34       0.1424
     11  CG       -30.1210    5.7640   -8.3080 C.2    34  ASP34       0.3668
     12  OD1      -30.4690    4.8020   -9.0270 O.co2  34  ASP34      -0.2456
     13  OD2      -28.9270    6.0350   -8.0730 O.co2  34  ASP34      -0.2456
     14  N        -32.0770    8.0170  -10.9860 N.am   35  GLU35      -0.1965
     15  CA       -31.5500    8.9210  -12.0030 C.3    35  GLU35       0.1733
     16  C        -31.6220   10.3650  -11.5290 C.2    35  GLU35       0.2617
     17  O        -32.7010   10.8660  -11.1980 O.2    35  GLU35      -0.2715
     18  CB       -32.3270    8.7780  -13.3100 C.3    35  GLU35       0.0429
     19  CG       -32.2550    7.4070  -13.9380 C.3    35  GLU35       0.1163
     20  CD       -33.3560    6.4840  -13.4580 C.2    35  GLU35       0.3649
     21  OE1      -34.0630    6.8510  -12.4950 O.co2  35  GLU35      -0.2457
     22  OE2      -33.5050    5.3930  -14.0460 O.co2  35  GLU35      -0.2457
     23  N        -30.4750   11.0410  -11.5210 N.am   36  SER36      -0.1950
     24  CA       -30.4490   12.4640  -11.2460 C.3    36  SER36       0.1924
     25  C        -31.2160   13.2270  -12.3290 C.2    36  SER36       0.2314
     26  O        -31.6620   12.6670  -13.3340 O.2    36  SER36      -0.2863
     27  CB       -29.0060   12.9630  -11.1690 C.3    36  SER36       0.2116
     28  OG       -28.3010   12.6640  -12.3650 O.3    36  SER36      -0.2180
     29  N        -29.5580   12.8060  -15.7020 N.3    39  THR39      -0.1218
     30  CA       -29.6080   11.4570  -16.2480 C.3    39  THR39       0.1862
     31  C        -31.0270   11.0850  -16.6610 C.2    39  THR39       0.2287
     32  O        -31.2220   10.4400  -17.6970 O.2    39  THR39      -0.2866
     33  CB       -29.0550   10.4550  -15.2340 C.3    39  THR39       0.1770
     34  OG1      -27.6730   10.7430  -14.9820 O.3    39  THR39      -0.2211
     35  CG2      -29.1690    9.0300  -15.7610 C.3    39  THR39       0.0375
     36  N        -32.8340    9.6720  -20.2890 N.3    43  ARG43      -0.1245
     37  CA       -33.8930    8.6690  -20.3590 C.3    43  ARG43       0.1563
     38  C        -35.1480    9.2400  -21.0030 C.2    43  ARG43       0.2260
     39  O        -35.7540    8.6020  -21.8700 O.2    43  ARG43      -0.2867
     40  CB       -34.2020    8.1330  -18.9570 C.3    43  ARG43       0.0307
     41  CG       -33.3840    6.9150  -18.5540 C.3    43  ARG43       0.0489
     42  CD       -31.9110    7.0700  -18.8790 C.3    43  ARG43       0.2205
     43  NE       -31.0800    6.1000  -18.1710 N.pl3  43  ARG43      -0.0865
     44  CZ       -29.7530    6.0480  -18.2560 C.cat  43  ARG43       0.5346
     45  NH1      -29.0930    6.9040  -19.0280 N.pl3  43  ARG43       0.1354
     46  NH2      -29.0790    5.1370  -17.5710 N.pl3  43  ARG43       0.1354
     47  N        -33.8740    2.2730   -5.1520 N.3    77  ILE77      -0.1245
     48  CA       -32.9600    3.3920   -4.9640 C.3    77  ILE77       0.1561
     49  C        -33.6060    4.6500   -5.5170 C.2    77  ILE77       0.2260
     50  O        -34.0340    4.6820   -6.6790 O.2    77  ILE77      -0.2867
     51  CB       -31.6080    3.1570   -5.6560 C.3    77  ILE77       0.0252
     52  CG1      -31.1130    1.7250   -5.4780 C.3    77  ILE77       0.0019
     53  CG2      -30.5820    4.1360   -5.0770 C.3    77  ILE77       0.0019
     54  CD1      -29.7950    1.4410   -6.2140 C.3    77  ILE77       0.0001
     55  N        -29.5190    7.4820   -3.1890 N.3   107  LYS107     -0.1245
     56  CA       -28.2270    7.7370   -3.8100 C.3   107  LYS107      0.1561
     57  C        -27.6080    8.9000   -3.0380 C.2   107  LYS107      0.2260
     58  O        -28.2270    9.8730   -2.8760 O.2   107  LYS107     -0.2867
     59  CB       -28.3790    8.1460   -5.2690 C.3   107  LYS107      0.0271
     60  CG       -27.0570    8.4430   -5.9630 C.3   107  LYS107      0.0035
     61  CD       -27.0140    9.6960   -6.7610 C.3   107  LYS107      0.0206
     62  CE       -28.0170    9.7120   -7.8620 C.3   107  LYS107      0.1093
     63  NZ       -27.8080    8.6690   -8.8530 N.3   107  LYS107     -0.1314
     64  N        -23.9820    9.9280   -3.4680 N.3   109  ASP109     -0.1239
     65  CA       -22.8120   10.5670   -4.0370 C.3   109  ASP109      0.1674
     66  C        -23.2170   11.8430   -4.7580 C.2   109  ASP109      0.2266
     67  O        -24.3900   12.0800   -5.0670 O.2   109  ASP109     -0.2867
     68  CB       -22.0510    9.6330   -4.9840 C.3   109  ASP109      0.1410
     69  CG       -22.8030    9.3240   -6.2760 C.2   109  ASP109      0.3668
     70  OD1      -22.8480   10.1950   -7.1780 O.co2 109  ASP109     -0.2456
     71  OD2      -23.2920    8.1720   -6.4100 O.co2 109  ASP109     -0.2456
     72  N        -21.7300   12.7870   -7.6650 N.3   111  GLY111     -0.1225
     73  CA       -21.2740   12.6930   -9.0360 C.3   111  GLY111      0.1811
     74  C        -19.7600   12.6340   -9.1550 C.2   111  GLY111      0.2280
     75  O        -19.0210   12.4360   -8.1850 O.2   111  GLY111     -0.2866
     76  N        -26.4610    4.3660   -1.8260 N.3   146  LYS146     -0.1245
     77  CA       -25.7260    3.9710   -3.0100 C.3   146  LYS146      0.1561
     78  C        -24.7500    5.0710   -3.4030 C.2   146  LYS146      0.2260
     79  O        -25.0830    6.2580   -3.3600 O.2   146  LYS146     -0.2867
     80  CB       -26.6720    3.6670   -4.1720 C.3   146  LYS146      0.0271
     81  CG       -26.0150    2.8340   -5.2610 C.3   146  LYS146      0.0035
     82  CD       -26.4070    3.2820   -6.6510 C.3   146  LYS146      0.0206
     83  CE       -25.8150    4.6340   -6.9630 C.3   146  LYS146      0.1093
     84  NZ       -26.2350    5.0830   -8.3070 N.3   146  LYS146     -0.1314
     85  N        -21.8230    5.6230   -6.5730 N.3   148  ARG148     -0.1245
     86  CA       -21.3070    5.0970   -7.8320 C.3   148  ARG148      0.1563
     87  C        -19.9190    5.6600   -8.1270 C.2   148  ARG148      0.2260
     88  O        -19.7470    6.8810   -8.2400 O.2   148  ARG148     -0.2867
     89  CB       -22.2460    5.4280   -8.9910 C.3   148  ARG148      0.0307
     90  CG       -21.7160    4.9540  -10.3500 C.3   148  ARG148      0.0489
     91  CD       -22.7490    5.2130  -11.4420 C.3   148  ARG148      0.2205
     92  NE       -22.3360    4.7310  -12.7650 N.pl3 148  ARG148     -0.0865
     93  CZ       -22.0060    5.5070  -13.8000 C.cat 148  ARG148      0.5346
     94  NH1      -22.0200    6.8300  -13.7010 N.pl3 148  ARG148      0.1354
     95  NH2      -21.6740    4.9470  -14.9590 N.pl3 148  ARG148      0.1354
     96  N        -20.6450    0.4560   -5.2650 N.3   189  GLU189     -0.1245
     97  CA       -20.7480    0.3220   -6.7220 C.3   189  GLU189      0.1567
     98  C        -19.4590    0.7790   -7.3990 C.2   189  GLU189      0.2260
     99  O        -19.3080    1.9630   -7.7360 O.2   189  GLU189     -0.2867
    100  CB       -21.9360    1.0960   -7.2860 C.3   189  GLU189      0.0388
    101  CG       -22.0450    0.9700   -8.8250 C.3   189  GLU189      0.1160
    102  CD       -23.2220    1.7230   -9.4190 C.2   189  GLU189      0.3649
    103  OE1      -23.9410    2.4130   -8.6740 O.co2 189  GLU189     -0.2457
    104  OE2      -23.4140    1.6270  -10.6490 O.co2 189  GLU189     -0.2457
    105  N        -18.2070    0.6210  -10.7300 N.3   191  GLU191     -0.1245
    106  CA       -18.5960    0.2120  -12.0690 C.3   191  GLU191      0.1567
    107  C        -17.4160    0.3330  -13.0160 C.2   191  GLU191      0.2260
    108  O        -16.9010    1.4330  -13.2430 O.2   191  GLU191     -0.2867
    109  CB       -19.7540    1.0360  -12.6160 C.3   191  GLU191      0.0388
    110  CG       -20.0170    0.6720  -14.0750 C.3   191  GLU191      0.1160
    111  CD       -21.2670    1.2770  -14.6770 C.2   191  GLU191      0.3649
    112  OE1      -21.9160    2.1160  -14.0270 O.co2 191  GLU191     -0.2457
    113  OE2      -21.5900    0.9020  -15.8260 O.co2 191  GLU191     -0.2457
    114  N        -22.4500   -3.8080   -5.7830 N.3   231  LYS231     -0.1245
    115  CA       -23.1210   -3.5700   -7.0620 C.3   231  LYS231      0.1561
    116  C        -22.0520   -3.4410   -8.1430 C.2   231  LYS231      0.2260
    117  O        -21.6680   -2.3230   -8.5200 O.2   231  LYS231     -0.2867
    118  CB       -24.0050   -2.3220   -7.0140 C.3   231  LYS231      0.0271
    119  CG       -24.7600   -2.0370   -8.3180 C.3   231  LYS231      0.0035
    120  CD       -25.5980   -0.7600   -8.2520 C.3   231  LYS231      0.0206
    121  CE       -26.4460   -0.6010   -9.5160 C.3   231  LYS231      0.1093
    122  NZ       -26.9870    0.7730   -9.7370 N.3   231  LYS231     -0.1314
    123  N        -25.2970   -4.2920  -11.5930 N.3   272  LEU272     -0.1231
    124  CA       -25.7600   -3.2460  -12.4960 C.3   272  LEU272      0.1693
    125  C        -25.9260   -3.8210  -13.9020 C.2   272  LEU272      0.2593
    126  O        -25.2800   -4.8060  -14.2650 O.2   272  LEU272     -0.2718
    127  CB       -24.7640   -2.0840  -12.5010 C.3   272  LEU272      0.0284
    128  CG       -23.3300   -2.3720  -12.9520 C.3   272  LEU272      0.0019
    129  CD1      -23.1610   -2.1410  -14.4570 C.3   272  LEU272      0.0001
    130  CD2      -22.3580   -1.5080  -12.1620 C.3   272  LEU272      0.0001
    131  N        -26.8040   -3.2090  -14.7030 N.am  273  SER273     -0.1938
    132  CA       -27.0340   -3.7520  -16.0400 C.3   273  SER273      0.2055
    133  C        -26.1630   -3.0740  -17.0850 C.2   273  SER273      0.2643
    134  O        -25.8700   -3.6780  -18.1240 O.2   273  SER273     -0.2714
    135  CB       -28.5200   -3.6590  -16.4310 C.3   273  SER273      0.2130
    136  OG       -28.9990   -2.3280  -16.5230 O.3   273  SER273     -0.2179
    137  N        -25.7460   -1.8400  -16.8270 N.am  274  GLY274     -0.1954
    138  CA       -24.6450   -1.2330  -17.5750 C.3   274  GLY274      0.1869
    139  C        -24.7910   -1.2320  -19.0810 C.2   274  GLY274      0.2309
    140  O        -23.8030   -1.4500  -19.7970 O.2   274  GLY274     -0.2863
    141  N        -29.5900   -5.0310   -9.4130 N.3   301  SER301     -0.1202
    142  CA       -29.9430   -3.6540   -9.0570 C.3   301  SER301      0.2020
    143  C        -29.9700   -2.9210  -10.3920 C.2   301  SER301      0.2619
    144  O        -28.9940   -2.2860  -10.8070 O.2   301  SER301     -0.2717
    145  CB       -28.9620   -3.0270   -8.0670 C.3   301  SER301      0.2103
    146  OG       -29.2620   -1.6500   -7.8600 O.3   301  SER301     -0.2182
    147  N        -31.0950   -3.0500  -11.0850 N.am  302  TYR302     -0.1961
    148  CA       -31.2060   -2.6480  -12.4760 C.3   302  TYR302      0.1771
    149  C        -31.9590   -1.3340  -12.5900 C.2   302  TYR302      0.2620
    150  O        -32.9980   -1.1410  -11.9530 O.2   302  TYR302     -0.2715
    151  CB       -31.9320   -3.7200  -13.2960 C.3   302  TYR302      0.0574
    152  CG       -31.1670   -5.0020  -13.5240 C.ar  302  TYR302     -0.0198
    153  CD1      -29.8040   -5.0980  -13.2490 C.ar  302  TYR302     -0.0009
    154  CD2      -31.8100   -6.1150  -14.0450 C.ar  302  TYR302     -0.0009
    155  CE1      -29.1100   -6.2730  -13.4760 C.ar  302  TYR302      0.0417
    156  CE2      -31.1260   -7.3010  -14.2760 C.ar  302  TYR302      0.0417
    157  CZ       -29.7770   -7.3720  -13.9990 C.ar  302  TYR302      0.1957
    158  OH       -29.1120   -8.5620  -14.2340 O.3   302  TYR302     -0.2866
    159  N        -31.4270   -0.4360  -13.4110 N.am  303  GLY303     -0.1940
    160  CA       -32.1530    0.7490  -13.8040 C.3   303  GLY303      0.2014
    161  C        -32.6950    0.5580  -15.2030 C.2   303  GLY303      0.2638
    162  O        -33.8710    0.2360  -15.3920 O.2   303  GLY303     -0.2714
    163  N        -31.8140    0.7170  -16.1920 N.am  304  ARG304     -0.1977
    164  CA       -32.2230    0.5950  -17.5880 C.3   304  ARG304      0.1597
    165  C        -32.8760   -0.7560  -17.8640 C.2   304  ARG304      0.2287
    166  O        -33.8990   -0.8290  -18.5500 O.2   304  ARG304     -0.2864
    167  CB       -31.0080    0.8060  -18.4960 C.3   304  ARG304      0.0334
    168  CG       -30.5360    2.2560  -18.5570 C.3   304  ARG304      0.0492
    169  CD       -29.1480    2.3930  -19.1730 C.3   304  ARG304      0.2205
    170  NE       -28.0910    2.0690  -18.2190 N.pl3 304  ARG304     -0.0865
    171  CZ       -26.7910    2.2250  -18.4550 C.cat 304  ARG304      0.5346
    172  NH1      -25.9070    1.9050  -17.5220 N.pl3 304  ARG304      0.1354
    173  NH2      -26.3720    2.7020  -19.6230 N.pl3 304  ARG304      0.1354
@<TRIPOS>BOND
     1    39    38    2
     2    38    37    1
     3    37    36    1
     4    37    40    1
     5   140   139    2
     6   173   171    1
     7   169   168    1
     8   169   170    1
     9   139   138    1
    10    45    44    1
    11    40    41    1
    12    42    41    1
    13    42    43    1
    14   168   167    1
    15   166   165    2
    16   167   164    1
    17   171   170    2
    18   171   172    1
    19    44    43    2
    20    44    46    1
    21   134   133    2
    22   165   164    1
    23    32    31    2
    24   164   163    1
    25   138   137    1
    26   133   137   am
    27   133   132    1
    28    31    30    1
    29   136   135    1
    30   135   132    1
    31    30    29    1
    32    30    33    1
    33   163   161   am
    34   132   131    1
    35   113   111   ar
    36    35    33    1
    37   162   161    2
    38    33    34    1
    39   161   160    1
    40    95    93    1
    41   131   125   am
    42   111   110    1
    43   111   112   ar
    44   129   128    1
    45   156   154   ar
    46   156   157   ar
    47   126   125    2
    48   158   157    1
    49   110   109    1
    50    22    20   ar
    51   154   152   ar
    52   157   155   ar
    53    19    20    1
    54    19    18    1
    55   125   124    1
    56   160   159    1
    57    93    94    1
    58    93    92    2
    59   152   151    1
    60   152   153   ar
    61   155   153   ar
    62    20    21   ar
    63   159   149   am
    64    26    25    2
    65    18    15    1
    66   151   148    1
    67   108   107    2
    68   107   106    1
    69   128   127    1
    70   128   130    1
    71    92    91    1
    72   109   106    1
    73   149   148    1
    74   149   150    2
    75   127   124    1
    76   124   123    1
    77   148   147    1
    78    28    27    1
    79    25    24    1
    80   106   105    1
    81    15    16    1
    82    15    14    1
    83    16    23   am
    84    16    17    2
    85    23    24    1
    86    91    90    1
    87     4     3    2
    88    24    27    1
    89   147   143   am
    90    14     8   am
    91   144   143    2
    92   104   102   ar
    93   143   142    1
    94    90    89    1
    95     3     2    1
    96     5     2    1
    97     8     9    2
    98     8     7    1
    99   122   121    1
   100     1     2    1
   101   121   120    1
   102   102   101    1
   103   102   103   ar
   104   141   142    1
   105     6     7    1
   106    74    73    1
   107    74    75    2
   108   142   145    1
   109    73    72    1
   110    12    11   ar
   111    89    86    1
   112    63    62    1
   113   101   100    1
   114     7    10    1
   115   117   116    2
   116   119   120    1
   117   119   118    1
   118    11    13   ar
   119    11    10    1
   120    84    83    1
   121    88    87    2
   122   116   115    1
   123    87    86    1
   124   145   146    1
   125    62    61    1
   126    86    85    1
   127    99    98    2
   128    98    97    1
   129   100    97    1
   130    70    69   ar
   131   115   118    1
   132   115   114    1
   133    83    82    1
   134    61    60    1
   135    97    96    1
   136    50    49    2
   137    82    81    1
   138    71    69   ar
   139    69    68    1
   140    54    52    1
   141    60    59    1
   142    51    52    1
   143    51    53    1
   144    51    48    1
   145    49    48    1
   146    59    56    1
   147    81    80    1
   148    47    48    1
   149    67    66    2
   150    68    65    1
   151    66    65    1
   152    80    77    1
   153    65    64    1
   154    56    55    1
   155    56    57    1
   156    78    79    2
   157    78    77    1
   158    57    58    2
   159    77    76    1
