@<TRIPOS>MOLECULE
tmp/5tklA01.pdb
 137 123 0 0 0
SMALL
GASTEIGER

@<TRIPOS>ATOM
      1  N        -33.4640    0.2790   -9.5220 N.3    32  ALA32      -0.1245
      2  CA       -32.6290    1.4780   -9.4450 C.3    32  ALA32       0.1562
      3  C        -33.3520    2.5900  -10.1930 C.2    32  ALA32       0.2260
      4  O        -33.3220    2.6520  -11.4260 O.2    32  ALA32      -0.2867
      5  CB       -31.2410    1.2260  -10.0200 C.3    32  ALA32       0.0290
      6  N        -32.8970    5.9440   -9.3080 N.3    34  ASP34      -0.1225
      7  CA       -32.2320    7.1040   -8.7200 C.3    34  ASP34       0.1805
      8  C        -31.5680    8.0020   -9.7580 C.2    34  ASP34       0.2598
      9  O        -30.6030    8.7090   -9.4370 O.2    34  ASP34      -0.2718
     10  CB       -31.1970    6.6440   -7.6960 C.3    34  ASP34       0.1424
     11  CG       -30.1210    5.7640   -8.3080 C.2    34  ASP34       0.3668
     12  OD1      -30.4690    4.8020   -9.0270 O.co2  34  ASP34      -0.2456
     13  OD2      -28.9270    6.0350   -8.0730 O.co2  34  ASP34      -0.2456
     14  N        -32.0770    8.0170  -10.9860 N.am   35  GLU35      -0.1965
     15  CA       -31.5500    8.9210  -12.0030 C.3    35  GLU35       0.1733
     16  C        -31.6220   10.3650  -11.5290 C.2    35  GLU35       0.2617
     17  O        -32.7010   10.8660  -11.1980 O.2    35  GLU35      -0.2715
     18  CB       -32.3270    8.7780  -13.3100 C.3    35  GLU35       0.0429
     19  CG       -32.2550    7.4070  -13.9380 C.3    35  GLU35       0.1163
     20  CD       -33.3560    6.4840  -13.4580 C.2    35  GLU35       0.3649
     21  OE1      -34.0630    6.8510  -12.4950 O.co2  35  GLU35      -0.2457
     22  OE2      -33.5050    5.3930  -14.0460 O.co2  35  GLU35      -0.2457
     23  N        -30.4750   11.0410  -11.5210 N.am   36  SER36      -0.1950
     24  CA       -30.4490   12.4640  -11.2460 C.3    36  SER36       0.1924
     25  C        -31.2160   13.2270  -12.3290 C.2    36  SER36       0.2314
     26  O        -31.6620   12.6670  -13.3340 O.2    36  SER36      -0.2863
     27  CB       -29.0060   12.9630  -11.1690 C.3    36  SER36       0.2116
     28  OG       -28.3010   12.6640  -12.3650 O.3    36  SER36      -0.2180
     29  N        -29.5580   12.8060  -15.7020 N.3    39  THR39      -0.1218
     30  CA       -29.6080   11.4570  -16.2480 C.3    39  THR39       0.1862
     31  C        -31.0270   11.0850  -16.6610 C.2    39  THR39       0.2287
     32  O        -31.2220   10.4400  -17.6970 O.2    39  THR39      -0.2866
     33  CB       -29.0550   10.4550  -15.2340 C.3    39  THR39       0.1770
     34  OG1      -27.6730   10.7430  -14.9820 O.3    39  THR39      -0.2211
     35  CG2      -29.1690    9.0300  -15.7610 C.3    39  THR39       0.0375
     36  N        -32.8340    9.6720  -20.2890 N.3    43  ARG43      -0.1245
     37  CA       -33.8930    8.6690  -20.3590 C.3    43  ARG43       0.1563
     38  C        -35.1480    9.2400  -21.0030 C.2    43  ARG43       0.2260
     39  O        -35.7540    8.6020  -21.8700 O.2    43  ARG43      -0.2867
     40  CB       -34.2020    8.1330  -18.9570 C.3    43  ARG43       0.0307
     41  CG       -33.3840    6.9150  -18.5540 C.3    43  ARG43       0.0489
     42  CD       -31.9110    7.0700  -18.8790 C.3    43  ARG43       0.2205
     43  NE       -31.0800    6.1000  -18.1710 N.pl3  43  ARG43      -0.0865
     44  CZ       -29.7530    6.0480  -18.2560 C.cat  43  ARG43       0.5346
     45  NH1      -29.0930    6.9040  -19.0280 N.pl3  43  ARG43       0.1354
     46  NH2      -29.0790    5.1370  -17.5710 N.pl3  43  ARG43       0.1354
     47  N        -29.5190    7.4820   -3.1890 N.3   107  LYS107     -0.1245
     48  CA       -28.2270    7.7370   -3.8100 C.3   107  LYS107      0.1561
     49  C        -27.6080    8.9000   -3.0380 C.2   107  LYS107      0.2260
     50  O        -28.2270    9.8730   -2.8760 O.2   107  LYS107     -0.2867
     51  CB       -28.3790    8.1460   -5.2690 C.3   107  LYS107      0.0271
     52  CG       -27.0570    8.4430   -5.9630 C.3   107  LYS107      0.0035
     53  CD       -27.0140    9.6960   -6.7610 C.3   107  LYS107      0.0206
     54  CE       -28.0170    9.7120   -7.8620 C.3   107  LYS107      0.1093
     55  NZ       -27.8080    8.6690   -8.8530 N.3   107  LYS107     -0.1314
     56  N        -23.9820    9.9280   -3.4680 N.3   109  ASP109     -0.1239
     57  CA       -22.8120   10.5670   -4.0370 C.3   109  ASP109      0.1674
     58  C        -23.2170   11.8430   -4.7580 C.2   109  ASP109      0.2266
     59  O        -24.3900   12.0800   -5.0670 O.2   109  ASP109     -0.2867
     60  CB       -22.0510    9.6330   -4.9840 C.3   109  ASP109      0.1410
     61  CG       -22.8030    9.3240   -6.2760 C.2   109  ASP109      0.3668
     62  OD1      -22.8480   10.1950   -7.1780 O.co2 109  ASP109     -0.2456
     63  OD2      -23.2920    8.1720   -6.4100 O.co2 109  ASP109     -0.2456
     64  N        -21.7300   12.7870   -7.6650 N.3   111  GLY111     -0.1225
     65  CA       -21.2740   12.6930   -9.0360 C.3   111  GLY111      0.1811
     66  C        -19.7600   12.6340   -9.1550 C.2   111  GLY111      0.2280
     67  O        -19.0210   12.4360   -8.1850 O.2   111  GLY111     -0.2866
     68  N        -26.4610    4.3660   -1.8260 N.3   146  LYS146     -0.1245
     69  CA       -25.7260    3.9710   -3.0100 C.3   146  LYS146      0.1561
     70  C        -24.7500    5.0710   -3.4030 C.2   146  LYS146      0.2260
     71  O        -25.0830    6.2580   -3.3600 O.2   146  LYS146     -0.2867
     72  CB       -26.6720    3.6670   -4.1720 C.3   146  LYS146      0.0271
     73  CG       -26.0150    2.8340   -5.2610 C.3   146  LYS146      0.0035
     74  CD       -26.4070    3.2820   -6.6510 C.3   146  LYS146      0.0206
     75  CE       -25.8150    4.6340   -6.9630 C.3   146  LYS146      0.1093
     76  NZ       -26.2350    5.0830   -8.3070 N.3   146  LYS146     -0.1314
     77  N        -21.8230    5.6230   -6.5730 N.3   148  ARG148     -0.1245
     78  CA       -21.3070    5.0970   -7.8320 C.3   148  ARG148      0.1563
     79  C        -19.9190    5.6600   -8.1270 C.2   148  ARG148      0.2260
     80  O        -19.7470    6.8810   -8.2400 O.2   148  ARG148     -0.2867
     81  CB       -22.2460    5.4280   -8.9910 C.3   148  ARG148      0.0307
     82  CG       -21.7160    4.9540  -10.3500 C.3   148  ARG148      0.0489
     83  CD       -22.7490    5.2130  -11.4420 C.3   148  ARG148      0.2205
     84  NE       -22.3360    4.7310  -12.7650 N.pl3 148  ARG148     -0.0865
     85  CZ       -22.0060    5.5070  -13.8000 C.cat 148  ARG148      0.5346
     86  NH1      -22.0200    6.8300  -13.7010 N.pl3 148  ARG148      0.1354
     87  NH2      -21.6740    4.9470  -14.9590 N.pl3 148  ARG148      0.1354
     88  N        -20.6450    0.4560   -5.2650 N.3   189  GLU189     -0.1245
     89  CA       -20.7480    0.3220   -6.7220 C.3   189  GLU189      0.1567
     90  C        -19.4590    0.7790   -7.3990 C.2   189  GLU189      0.2260
     91  O        -19.3080    1.9630   -7.7360 O.2   189  GLU189     -0.2867
     92  CB       -21.9360    1.0960   -7.2860 C.3   189  GLU189      0.0388
     93  CG       -22.0450    0.9700   -8.8250 C.3   189  GLU189      0.1160
     94  CD       -23.2220    1.7230   -9.4190 C.2   189  GLU189      0.3649
     95  OE1      -23.9410    2.4130   -8.6740 O.co2 189  GLU189     -0.2457
     96  OE2      -23.4140    1.6270  -10.6490 O.co2 189  GLU189     -0.2457
     97  N        -18.2070    0.6210  -10.7300 N.3   191  GLU191     -0.1245
     98  CA       -18.5960    0.2120  -12.0690 C.3   191  GLU191      0.1567
     99  C        -17.4160    0.3330  -13.0160 C.2   191  GLU191      0.2260
    100  O        -16.9010    1.4330  -13.2430 O.2   191  GLU191     -0.2867
    101  CB       -19.7540    1.0360  -12.6160 C.3   191  GLU191      0.0388
    102  CG       -20.0170    0.6720  -14.0750 C.3   191  GLU191      0.1160
    103  CD       -21.2670    1.2770  -14.6770 C.2   191  GLU191      0.3649
    104  OE1      -21.9160    2.1160  -14.0270 O.co2 191  GLU191     -0.2457
    105  OE2      -21.5900    0.9020  -15.8260 O.co2 191  GLU191     -0.2457
    106  N        -22.4500   -3.8080   -5.7830 N.3   231  LYS231     -0.1245
    107  CA       -23.1210   -3.5700   -7.0620 C.3   231  LYS231      0.1561
    108  C        -22.0520   -3.4410   -8.1430 C.2   231  LYS231      0.2260
    109  O        -21.6680   -2.3230   -8.5200 O.2   231  LYS231     -0.2867
    110  CB       -24.0050   -2.3220   -7.0140 C.3   231  LYS231      0.0271
    111  CG       -24.7600   -2.0370   -8.3180 C.3   231  LYS231      0.0035
    112  CD       -25.5980   -0.7600   -8.2520 C.3   231  LYS231      0.0206
    113  CE       -26.4460   -0.6010   -9.5160 C.3   231  LYS231      0.1093
    114  NZ       -26.9870    0.7730   -9.7370 N.3   231  LYS231     -0.1314
    115  N        -25.2970   -4.2920  -11.5930 N.3   272  LEU272     -0.1245
    116  CA       -25.7600   -3.2460  -12.4960 C.3   272  LEU272      0.1561
    117  C        -25.9260   -3.8210  -13.9020 C.2   272  LEU272      0.2260
    118  O        -25.2800   -4.8060  -14.2650 O.2   272  LEU272     -0.2867
    119  CB       -24.7640   -2.0840  -12.5010 C.3   272  LEU272      0.0270
    120  CG       -23.3300   -2.3720  -12.9520 C.3   272  LEU272      0.0019
    121  CD1      -23.1610   -2.1410  -14.4570 C.3   272  LEU272      0.0001
    122  CD2      -22.3580   -1.5080  -12.1620 C.3   272  LEU272      0.0001
    123  N        -31.4270   -0.4360  -13.4110 N.3   303  GLY303     -0.1210
    124  CA       -32.1530    0.7490  -13.8040 C.3   303  GLY303      0.1956
    125  C        -32.6950    0.5580  -15.2030 C.2   303  GLY303      0.2611
    126  O        -33.8710    0.2360  -15.3920 O.2   303  GLY303     -0.2717
    127  N        -31.8140    0.7170  -16.1920 N.am  304  ARG304     -0.1979
    128  CA       -32.2230    0.5950  -17.5880 C.3   304  ARG304      0.1597
    129  C        -32.8760   -0.7560  -17.8640 C.2   304  ARG304      0.2287
    130  O        -33.8990   -0.8290  -18.5500 O.2   304  ARG304     -0.2864
    131  CB       -31.0080    0.8060  -18.4960 C.3   304  ARG304      0.0334
    132  CG       -30.5360    2.2560  -18.5570 C.3   304  ARG304      0.0492
    133  CD       -29.1480    2.3930  -19.1730 C.3   304  ARG304      0.2205
    134  NE       -28.0910    2.0690  -18.2190 N.pl3 304  ARG304     -0.0865
    135  CZ       -26.7910    2.2250  -18.4550 C.cat 304  ARG304      0.5346
    136  NH1      -25.9070    1.9050  -17.5220 N.pl3 304  ARG304      0.1354
    137  NH2      -26.3720    2.7020  -19.6230 N.pl3 304  ARG304      0.1354
@<TRIPOS>BOND
     1    39    38    2
     2    38    37    1
     3    37    36    1
     4    37    40    1
     5   137   135    1
     6   133   132    1
     7   133   134    1
     8    45    44    1
     9    40    41    1
    10    42    41    1
    11    42    43    1
    12   132   131    1
    13   130   129    2
    14   131   128    1
    15   135   134    2
    16   135   136    1
    17    44    43    2
    18    44    46    1
    19   129   128    1
    20    32    31    2
    21   128   127    1
    22    31    30    1
    23    30    29    1
    24    30    33    1
    25   127   125   am
    26   105   103   ar
    27    35    33    1
    28   126   125    2
    29    33    34    1
    30   125   124    1
    31    87    85    1
    32   103   102    1
    33   103   104   ar
    34   121   120    1
    35   118   117    2
    36   102   101    1
    37    22    20   ar
    38    19    20    1
    39    19    18    1
    40   117   116    1
    41   124   123    1
    42    85    86    1
    43    85    84    2
    44    20    21   ar
    45    26    25    2
    46    18    15    1
    47   100    99    2
    48    99    98    1
    49   120   119    1
    50   120   122    1
    51    84    83    1
    52   101    98    1
    53   119   116    1
    54   116   115    1
    55    28    27    1
    56    25    24    1
    57    98    97    1
    58    15    16    1
    59    15    14    1
    60    16    23   am
    61    16    17    2
    62    23    24    1
    63    83    82    1
    64     4     3    2
    65    24    27    1
    66    14     8   am
    67    96    94   ar
    68    82    81    1
    69     3     2    1
    70     5     2    1
    71     8     9    2
    72     8     7    1
    73   114   113    1
    74     1     2    1
    75   113   112    1
    76    94    93    1
    77    94    95   ar
    78     6     7    1
    79    66    65    1
    80    66    67    2
    81    65    64    1
    82    12    11   ar
    83    81    78    1
    84    55    54    1
    85    93    92    1
    86     7    10    1
    87   109   108    2
    88   111   112    1
    89   111   110    1
    90    11    13   ar
    91    11    10    1
    92    76    75    1
    93    80    79    2
    94   108   107    1
    95    79    78    1
    96    54    53    1
    97    78    77    1
    98    91    90    2
    99    90    89    1
   100    92    89    1
   101    62    61   ar
   102   107   110    1
   103   107   106    1
   104    75    74    1
   105    53    52    1
   106    89    88    1
   107    74    73    1
   108    63    61   ar
   109    61    60    1
   110    52    51    1
   111    51    48    1
   112    73    72    1
   113    59    58    2
   114    60    57    1
   115    58    57    1
   116    72    69    1
   117    57    56    1
   118    48    47    1
   119    48    49    1
   120    70    71    2
   121    70    69    1
   122    49    50    2
   123    69    68    1
