@<TRIPOS>MOLECULE
tmp/5tksA00.pdb
 202 200 0 0 0
SMALL
GASTEIGER

@<TRIPOS>ATOM
      1  N         49.5080  -27.4290   37.1710 N.3    26  ARG26      -0.1231
      2  CA        49.2960  -26.0280   36.8640 C.3    26  ARG26       0.1694
      3  C         47.8190  -25.6770   36.9970 C.2    26  ARG26       0.2592
      4  O         46.9600  -26.5550   36.9690 O.2    26  ARG26      -0.2718
      5  CB        49.8350  -25.6670   35.4820 C.3    26  ARG26       0.0321
      6  CG        49.0020  -26.1970   34.3280 C.3    26  ARG26       0.0489
      7  CD        49.8610  -26.6610   33.1460 C.3    26  ARG26       0.2205
      8  NE        50.8110  -25.6380   32.6850 N.pl3  26  ARG26      -0.0865
      9  CZ        50.6400  -24.8040   31.6550 C.cat  26  ARG26       0.5346
     10  NH1       49.5260  -24.8430   30.9290 N.pl3  26  ARG26       0.1354
     11  NH2       51.5840  -23.9240   31.3430 N.pl3  26  ARG26       0.1354
     12  N         47.5570  -24.3880   37.1190 N.am   27  HIS27      -0.1962
     13  CA        46.2150  -23.8610   37.1970 C.3    27  HIS27       0.1787
     14  C         45.4900  -24.2150   35.8720 C.2    27  HIS27       0.2620
     15  O         46.0670  -24.1030   34.7810 O.2    27  HIS27      -0.2715
     16  CB        46.2710  -22.3420   37.3610 C.3    27  HIS27       0.0785
     17  CG        44.9750  -21.6350   37.1310 C.ar   27  HIS27       0.0821
     18  ND1       44.0580  -21.4210   38.1560 N.ar   27  HIS27      -0.2267
     19  CD2       44.5150  -21.0500   36.0020 C.ar   27  HIS27       0.1154
     20  CE1       43.0430  -20.7640   37.5910 C.ar   27  HIS27       0.1986
     21  NE2       43.2880  -20.5020   36.3050 N.ar   27  HIS27      -0.2212
     22  N         44.2530  -24.6630   35.9900 N.am   28  LEU28      -0.1963
     23  CA        43.3840  -24.9910   34.8670 C.3    28  LEU28       0.1728
     24  C         42.2470  -23.9830   34.7040 C.2    28  LEU28       0.2616
     25  O         42.0230  -23.4320   33.6190 O.2    28  LEU28      -0.2715
     26  CB        42.8050  -26.3940   35.0960 C.3    28  LEU28       0.0311
     27  CG        41.7840  -26.9110   34.0920 C.3    28  LEU28       0.0022
     28  CD1       42.4470  -27.1340   32.7340 C.3    28  LEU28       0.0001
     29  CD2       41.1490  -28.2190   34.5430 C.3    28  LEU28       0.0001
     30  N         41.5000  -23.7250   35.7780 N.am   29  CYS29      -0.1968
     31  CA        40.2770  -22.9350   35.7180 C.3    29  CYS29       0.1712
     32  C         39.9530  -22.3610   37.0850 C.2    29  CYS29       0.2296
     33  O         40.4530  -22.8560   38.0900 O.2    29  CYS29      -0.2864
     34  CB        39.1310  -23.8320   35.2380 C.3    29  CYS29       0.0983
     35  SG        39.0000  -23.9690   33.4260 S.3    29  CYS29      -0.0798
     36  N         33.6220  -26.5970   29.8020 N.3    44  HIS44      -0.1226
     37  CA        34.7190  -26.6130   28.8250 C.3    44  HIS44       0.1752
     38  C         36.0810  -26.7960   29.4640 C.2    44  HIS44       0.2596
     39  O         37.0280  -27.1880   28.7690 O.2    44  HIS44      -0.2718
     40  CB        34.7020  -25.3880   27.9130 C.3    44  HIS44       0.0759
     41  CG        35.1990  -24.1320   28.5590 C.ar   44  HIS44       0.0818
     42  ND1       34.3390  -23.1390   28.9530 N.ar   44  HIS44      -0.2268
     43  CD2       36.4550  -23.7750   28.8970 C.ar   44  HIS44       0.1154
     44  CE1       35.0900  -22.1810   29.4870 C.ar   44  HIS44       0.1986
     45  NE2       36.3670  -22.5260   29.5080 N.ar   44  HIS44      -0.2212
     46  N         36.2100  -26.5430   30.7620 N.am   45  CYS45      -0.1970
     47  CA        37.4880  -26.7300   31.4630 C.3    45  CYS45       0.1712
     48  C         37.9540  -28.1620   31.3910 C.2    45  CYS45       0.2296
     49  O         39.1380  -28.3900   31.6080 O.2    45  CYS45      -0.2864
     50  CB        37.3750  -26.2600   32.8980 C.3    45  CYS45       0.0983
     51  SG        37.0910  -24.4880   33.0020 S.3    45  CYS45      -0.0798
     52  N         37.8440  -30.3690   28.8760 N.3    47  TYR47      -0.1241
     53  CA        38.1860  -30.9200   27.5700 C.3    47  TYR47       0.1605
     54  C         39.4300  -31.7830   27.7040 C.2    47  TYR47       0.2264
     55  O         40.4160  -31.3610   28.2920 O.2    47  TYR47      -0.2867
     56  CB        38.4020  -29.7720   26.5790 C.3    47  TYR47       0.0534
     57  CG        38.7820  -30.2720   25.2060 C.ar   47  TYR47      -0.0201
     58  CD1       37.8150  -30.7170   24.3240 C.ar   47  TYR47      -0.0009
     59  CD2       40.1090  -30.3710   24.8290 C.ar   47  TYR47      -0.0009
     60  CE1       38.1490  -31.1560   23.0540 C.ar   47  TYR47       0.0417
     61  CE2       40.4640  -30.8840   23.5830 C.ar   47  TYR47       0.0417
     62  CZ        39.4730  -31.3170   22.7210 C.ar   47  TYR47       0.1957
     63  OH        39.7470  -31.7770   21.4620 O.3    47  TYR47      -0.2866
     64  N         44.9740  -14.2670   32.3820 N.3   134  TYR134     -0.1241
     65  CA        45.8230  -13.3120   31.6660 C.3   134  TYR134      0.1605
     66  C         45.2480  -11.9270   31.7510 C.2   134  TYR134      0.2264
     67  O         44.0370  -11.7160   31.8680 O.2   134  TYR134     -0.2867
     68  CB        45.8580  -13.7230   30.1930 C.3   134  TYR134      0.0534
     69  CG        46.5850  -14.9860   29.7850 C.ar  134  TYR134     -0.0201
     70  CD1       47.0030  -15.9240   30.7240 C.ar  134  TYR134     -0.0009
     71  CD2       46.8910  -15.2290   28.4480 C.ar  134  TYR134     -0.0009
     72  CE1       47.6520  -17.0990   30.3350 C.ar  134  TYR134      0.0417
     73  CE2       47.4770  -16.4190   28.0470 C.ar  134  TYR134      0.0417
     74  CZ        47.8980  -17.3340   28.9890 C.ar  134  TYR134      0.1957
     75  OH        48.5120  -18.4990   28.5740 O.3   134  TYR134     -0.2866
     76  N         45.5430  -11.1210   25.6220 N.3   137  LEU137     -0.1245
     77  CA        45.6210  -12.4430   24.9640 C.3   137  LEU137      0.1561
     78  C         46.9170  -13.1680   25.0720 C.2   137  LEU137      0.2260
     79  O         46.8930  -14.3910   25.1580 O.2   137  LEU137     -0.2867
     80  CB        45.2440  -12.3920   23.4670 C.3   137  LEU137      0.0270
     81  CG        43.8010  -12.1550   23.1610 C.3   137  LEU137      0.0019
     82  CD1       43.6040  -12.0100   21.6490 C.3   137  LEU137      0.0001
     83  CD2       42.9110  -13.2880   23.6620 C.3   137  LEU137      0.0001
     84  N         50.3210  -14.4230   30.8390 N.3   140  LYS140     -0.1231
     85  CA        50.5370  -15.5810   31.6690 C.3   140  LYS140      0.1693
     86  C         49.5800  -15.4930   32.8300 C.2   140  LYS140      0.2591
     87  O         49.0370  -14.4390   33.0820 O.2   140  LYS140     -0.2718
     88  CB        51.9740  -15.5970   32.1910 C.3   140  LYS140      0.0285
     89  CG        52.3420  -14.3700   33.0070 C.3   140  LYS140      0.0035
     90  CD        53.8180  -14.3990   33.4180 C.3   140  LYS140      0.0206
     91  CE        54.0940  -13.4710   34.5820 C.3   140  LYS140      0.1093
     92  NZ        53.7400  -12.0600   34.2790 N.3   140  LYS140     -0.1314
     93  N         49.4440  -16.5770   33.5610 N.am  141  ILE141     -0.1980
     94  CA        48.6030  -16.6140   34.7720 C.3   141  ILE141      0.1595
     95  C         49.2080  -15.6210   35.7910 C.2   141  ILE141      0.2287
     96  O         50.4490  -15.5050   35.9140 O.2   141  ILE141     -0.2864
     97  CB        48.5480  -18.0640   35.3190 C.3   141  ILE141      0.0276
     98  CG1       47.7470  -18.9660   34.3340 C.3   141  ILE141      0.0022
     99  CG2       47.9430  -18.1610   36.7690 C.3   141  ILE141      0.0022
    100  CD1       46.3560  -18.5790   34.0410 C.3   141  ILE141      0.0001
    101  N         37.4790   -7.1630   31.3720 N.3   182  ASP182     -0.1225
    102  CA        36.8440   -8.4330   30.9780 C.3   182  ASP182      0.1805
    103  C         37.5890   -9.5660   31.6230 C.2   182  ASP182      0.2598
    104  O         38.6760   -9.4070   32.1350 O.2   182  ASP182     -0.2718
    105  CB        36.9940   -8.6170   29.4400 C.3   182  ASP182      0.1424
    106  CG        36.1340   -9.6440   28.7120 C.2   182  ASP182      0.3668
    107  OD1       35.2020  -10.2100   29.3490 O.co2 182  ASP182     -0.2456
    108  OD2       36.3210   -9.8010   27.4580 O.co2 182  ASP182     -0.2456
    109  N         37.0220  -10.7650   31.4930 N.am  183  ALA183     -0.1966
    110  CA        37.7760  -11.9660   31.7600 C.3   183  ALA183      0.1728
    111  C         38.7140  -12.2670   30.6030 C.2   183  ALA183      0.2616
    112  O         38.5630  -11.7340   29.4960 O.2   183  ALA183     -0.2715
    113  CB        36.8160  -13.1330   31.9170 C.3   183  ALA183      0.0334
    114  N         39.7000  -13.1190   30.8340 N.am  184  CYS184     -0.1954
    115  CA        40.6220  -13.5740   29.8020 C.3   184  CYS184      0.1843
    116  C         41.0670  -15.0150   30.0940 C.2   184  CYS184      0.2625
    117  O         40.5380  -15.6760   30.9870 O.2   184  CYS184     -0.2714
    118  CB        41.7990  -12.6300   29.5200 C.3   184  CYS184      0.0997
    119  SG        42.4620  -12.7390   27.8040 S.3   184  CYS184     -0.0797
    120  N         41.9880  -15.5280   29.2900 N.am  185  LYS185     -0.1963
    121  CA        42.4700  -16.8910   29.3920 C.3   185  LYS185      0.1728
    122  C         42.9090  -17.2530   30.8120 C.2   185  LYS185      0.2616
    123  O         43.7480  -16.5540   31.3950 O.2   185  LYS185     -0.2715
    124  CB        43.6410  -17.0870   28.4320 C.3   185  LYS185      0.0311
    125  CG        43.2370  -17.0390   26.9670 C.3   185  LYS185      0.0038
    126  CD        44.4770  -16.8850   26.0890 C.3   185  LYS185      0.0206
    127  CE        44.1180  -16.8330   24.6370 C.3   185  LYS185      0.1093
    128  NZ        45.3560  -16.7950   23.8220 N.3   185  LYS185     -0.1314
    129  N         42.3540  -18.3170   31.3730 N.am  186  GLY186     -0.1955
    130  CA        42.6490  -18.7530   32.7360 C.3   186  GLY186      0.1869
    131  C         41.5900  -18.3290   33.7350 C.2   186  GLY186      0.2309
    132  O         41.5900  -18.8250   34.8700 O.2   186  GLY186     -0.2863
    133  N         38.2060  -18.6880   33.0240 N.3   188  SER188     -0.1217
    134  CA        36.9790  -19.4430   32.8360 C.3   188  SER188      0.1889
    135  C         36.6850  -20.3720   33.9840 C.2   188  SER188      0.2288
    136  O         37.5790  -20.8580   34.6620 O.2   188  SER188     -0.2866
    137  CB        36.9400  -20.1690   31.5050 C.3   188  SER188      0.2089
    138  OG        37.8940  -21.1990   31.4730 O.3   188  SER188     -0.2183
    139  N         32.1570  -17.6260   34.1850 N.3   206  THR206     -0.1203
    140  CA        32.9820  -17.1560   33.0760 C.3   206  THR206      0.1994
    141  C         33.0800  -18.2350   32.0080 C.2   206  THR206      0.2619
    142  O         33.5430  -19.3360   32.2950 O.2   206  THR206     -0.2717
    143  CB        34.3360  -16.7190   33.5950 C.3   206  THR206      0.1784
    144  OG1       34.0960  -15.6950   34.5670 O.3   206  THR206     -0.2211
    145  CG2       35.2400  -16.1780   32.4920 C.3   206  THR206      0.0376
    146  N         32.6690  -17.9040   30.7510 N.am  207  SER207     -0.1937
    147  CA        32.5850  -18.8840   29.6970 C.3   207  SER207      0.2055
    148  C         33.4060  -18.5280   28.4650 C.2   207  SER207      0.2643
    149  O         34.4110  -19.2140   28.2260 O.2   207  SER207     -0.2714
    150  CB        31.1090  -19.1480   29.3730 C.3   207  SER207      0.2130
    151  OG        30.9380  -20.1870   28.4240 O.3   207  SER207     -0.2179
    152  N         33.0210  -17.5150   27.6860 N.am  208  TRP208     -0.1959
    153  CA        33.7680  -17.2410   26.4530 C.3   208  TRP208      0.1771
    154  C         33.5530  -15.8130   25.9960 C.2   208  TRP208      0.2620
    155  O         32.6710  -15.1180   26.4800 O.2   208  TRP208     -0.2715
    156  CB        33.3210  -18.2170   25.3520 C.3   208  TRP208      0.0590
    157  CG        31.9080  -18.0570   24.9200 C.ar  208  TRP208      0.0006
    158  CD1       30.8160  -18.6040   25.5140 C.ar  208  TRP208      0.0946
    159  CD2       31.4170  -17.3080   23.8000 C.ar  208  TRP208      0.0152
    160  NE1       29.6760  -18.2340   24.8540 N.ar  208  TRP208     -0.2442
    161  CE2       30.0160  -17.4710   23.7730 C.ar  208  TRP208      0.0810
    162  CE3       32.0330  -16.5560   22.7900 C.ar  208  TRP208      0.0012
    163  CZ2       29.2020  -16.8470   22.8150 C.ar  208  TRP208      0.0191
    164  CZ3       31.2310  -15.9730   21.8130 C.ar  208  TRP208      0.0001
    165  CH2       29.8340  -16.1140   21.8450 C.ar  208  TRP208      0.0015
    166  N         34.3460  -15.4160   25.0250 N.am  209  GLY209     -0.1954
    167  CA        34.1790  -14.1160   24.3770 C.3   209  GLY209      0.1869
    168  C         35.0310  -14.0970   23.1310 C.2   209  GLY209      0.2309
    169  O         35.9000  -14.9440   22.9810 O.2   209  GLY209     -0.2863
    170  N         38.0340  -12.5870   21.7200 N.3   211  GLY211     -0.1210
    171  CA        39.1610  -11.8490   22.2670 C.3   211  GLY211      0.1956
    172  C         38.8710  -11.4930   23.7030 C.2   211  GLY211      0.2612
    173  O         37.9510  -12.0750   24.2930 O.2   211  GLY211     -0.2717
    174  N         39.6070  -10.5560   24.2700 N.am  212  CYS212     -0.1970
    175  CA        39.4520  -10.1300   25.6700 C.3   212  CYS212      0.1712
    176  C         39.2930   -8.6230   25.7360 C.2   212  CYS212      0.2296
    177  O         40.1830   -7.9150   25.2200 O.2   212  CYS212     -0.2864
    178  CB        40.6580  -10.5650   26.4950 C.3   212  CYS212      0.0983
    179  SG        40.9340  -12.3570   26.5150 S.3   212  CYS212     -0.0798
    180  N         31.8850  -10.0760   27.4930 N.3   219  GLY219     -0.1210
    181  CA        32.1350  -11.4460   27.9110 C.3   219  GLY219      0.1956
    182  C         30.8040  -12.1460   28.0280 C.2   219  GLY219      0.2612
    183  O         29.7780  -11.5530   28.3830 O.2   219  GLY219     -0.2717
    184  N         30.8090  -13.4550   27.7280 N.am  220  VAL220     -0.1965
    185  CA        29.6260  -14.3060   27.7850 C.3   220  VAL220      0.1727
    186  C         29.7730  -15.2930   28.9260 C.2   220  VAL220      0.2616
    187  O         30.8280  -15.9770   29.0700 O.2   220  VAL220     -0.2715
    188  CB        29.3340  -15.0230   26.4430 C.3   220  VAL220      0.0290
    189  CG1       27.9890  -15.7590   26.4910 C.3   220  VAL220      0.0023
    190  CG2       29.3380  -14.0170   25.2590 C.3   220  VAL220      0.0023
    191  N         28.7660  -15.3200   29.7840 N.am  221  TYR221     -0.1974
    192  CA        28.7630  -16.1250   30.9870 C.3   221  TYR221      0.1639
    193  C         27.5840  -17.0690   31.0250 C.2   221  TYR221      0.2290
    194  O         26.5280  -16.7740   30.4810 O.2   221  TYR221     -0.2864
    195  CB        28.6740  -15.1940   32.2150 C.3   221  TYR221      0.0560
    196  CG        29.8240  -14.2120   32.3430 C.ar  221  TYR221     -0.0198
    197  CD1       29.9030  -13.0760   31.5260 C.ar  221  TYR221     -0.0009
    198  CD2       30.8190  -14.3960   33.2910 C.ar  221  TYR221     -0.0009
    199  CE1       31.0010  -12.2110   31.5990 C.ar  221  TYR221      0.0417
    200  CE2       31.9280  -13.5560   33.3520 C.ar  221  TYR221      0.0417
    201  CZ        31.9890  -12.4370   32.5400 C.ar  221  TYR221      0.1957
    202  OH        33.0720  -11.6010   32.6920 O.3   221  TYR221     -0.2866
@<TRIPOS>BOND
     1    63    62    1
     2    82    81    1
     3   170   171    1
     4   164   165   ar
     5   164   162   ar
     6   165   163   ar
     7   171   172    1
     8    62    60   ar
     9    62    61   ar
    10   162   159   ar
    11   163   161   ar
    12   169   168    2
    13    60    58   ar
    14   168   167    1
    15    81    80    1
    16    81    83    1
    17    80    77    1
    18    61    59   ar
    19   172   174   am
    20   172   173    2
    21   161   159   ar
    22   161   160   ar
    23   159   157   ar
    24   128   127    1
    25   174   175    1
    26    58    57   ar
    27   167   166    1
    28   127   126    1
    29    59    57   ar
    30   160   158   ar
    31   157   156    1
    32   157   158   ar
    33    77    78    1
    34    77    76    1
    35   166   154   am
    36    78    79    2
    37    57    56    1
    38   177   176    2
    39   190   188    1
    40   156   153    1
    41   175   176    1
    42   175   178    1
    43   154   153    1
    44   154   155    2
    45   126   125    1
    46   188   189    1
    47   188   185    1
    48   153   152    1
    49   178   179    1
    50   179   119    1
    51    56    53    1
    52   125   124    1
    53   108   106   ar
    54   180   181    1
    55    53    54    1
    56    53    52    1
    57   152   148   am
    58    54    55    2
    59   184   185    1
    60   184   182   am
    61   185   186    1
    62   119   118    1
    63   181   182    1
    64    40    41    1
    65    40    37    1
    66   182   183    2
    67    73    71   ar
    68    73    74   ar
    69   149   148    2
    70   151   150    1
    71   124   121    1
    72    71    69   ar
    73   148   147    1
    74    41    43   ar
    75    41    42   ar
    76    75    74    1
    77   106   107   ar
    78   106   105    1
    79    39    38    2
    80    37    38    1
    81    37    36    1
    82    43    45   ar
    83   186   187    2
    84   186   191   am
    85    42    44   ar
    86    74    72   ar
    87   120   121    1
    88   120   116   am
    89   150   147    1
    90   121   122    1
    91   105   102    1
    92    38    46   am
    93    44    45   ar
    94   112   111    2
    95   118   115    1
    96   147   146    1
    97   191   192    1
    98    69    68    1
    99    69    70   ar
   100   115   116    1
   101   115   114    1
   102   116   117    2
   103    68    65    1
   104    72    70   ar
   105   194   193    2
   106   111   114   am
   107   111   110    1
   108   146   141   am
   109    46    47    1
   110   122   129   am
   111   122   123    2
   112    84    85    1
   113    10     9    1
   114   102   101    1
   115   102   103    1
   116   192   193    1
   117   192   195    1
   118    11     9    1
   119   129   130    1
   120    48    47    1
   121    48    49    2
   122    47    50    1
   123   138   137    1
   124   109   103   am
   125   109   110    1
   126   137   134    1
   127   197   199   ar
   128   197   196   ar
   129   199   201   ar
   130   103   104    2
   131     9     8    2
   132    65    66    1
   133    65    64    1
   134    85    88    1
   135    85    86    1
   136    66    67    2
   137   110   113    1
   138   141   142    2
   139   141   140    1
   140    88    89    1
   141   195   196    1
   142   196   198   ar
   143   145   143    1
   144   201   202    1
   145   201   200   ar
   146     8     7    1
   147    28    27    1
   148   130   131    1
   149    86    87    2
   150    86    93   am
   151   134   133    1
   152   134   135    1
   153    50    51    1
   154    51    35    1
   155    89    90    1
   156   140   143    1
   157   140   139    1
   158     7     6    1
   159   198   200   ar
   160    90    91    1
   161    35    34    1
   162    93    94    1
   163   143   144    1
   164    25    24    2
   165   131   132    2
   166   135   136    2
   167   100    98    1
   168    27    29    1
   169    27    26    1
   170    92    91    1
   171     6     5    1
   172    98    97    1
   173    24    23    1
   174    24    30   am
   175    94    97    1
   176    94    95    1
   177    15    14    2
   178    23    26    1
   179    23    22    1
   180    34    31    1
   181    97    99    1
   182     5     2    1
   183    31    30    1
   184    31    32    1
   185    95    96    2
   186    14    22   am
   187    14    13    1
   188    19    21   ar
   189    19    17   ar
   190    21    20   ar
   191     2     3    1
   192     2     1    1
   193     4     3    2
   194     3    12   am
   195    32    33    2
   196    12    13    1
   197    17    16    1
   198    17    18   ar
   199    13    16    1
   200    20    18   ar
