@<TRIPOS>MOLECULE
tmp/5tkvB02.pdb
 105 103 0 0 0
SMALL
GASTEIGER

@<TRIPOS>ATOM
      1  N         31.4750   -1.0690  -30.3950 N.3   351  GLY351     -0.1209
      2  CA        30.4490   -0.5450  -31.2930 C.3   351  GLY351      0.1959
      3  C         29.8080    0.7890  -30.8900 C.2   351  GLY351      0.2652
      4  O         30.0000    1.2890  -29.7690 O.2   351  GLY351     -0.2714
      5  N         29.0330    1.3680  -31.8060 N.am  352  GLY352     -0.1718
      6  CA        28.3200    2.6240  -31.5120 C.2   352  GLY352      0.1480
      7  C         27.4870    3.1880  -32.6640 C.2   352  GLY352      0.2820
      8  O         27.4710    2.6540  -33.8060 O.2   352  GLY352     -0.2669
      9  N         26.7780    4.2760  -32.3570 N.am  353  PHE353     -0.1939
     10  CA        25.9210    4.9470  -33.3290 C.3   353  PHE353      0.1642
     11  C         26.2240    6.4130  -33.2470 C.2   353  PHE353      0.2290
     12  O         26.6630    6.8710  -32.2020 O.2   353  PHE353     -0.2864
     13  CB        24.4450    4.6730  -33.0100 C.3   353  PHE353      0.0560
     14  CG        24.0320    3.2430  -33.2810 C.ar  353  PHE353     -0.0200
     15  CD1       23.6530    2.8340  -34.5780 C.ar  353  PHE353     -0.0042
     16  CD2       24.0460    2.2770  -32.2460 C.ar  353  PHE353     -0.0042
     17  CE1       23.2730    1.5080  -34.8220 C.ar  353  PHE353     -0.0003
     18  CE2       23.6730    0.9480  -32.4980 C.ar  353  PHE353     -0.0003
     19  CZ        23.2770    0.5640  -33.7800 C.ar  353  PHE353     -0.0000
     20  N         32.3820   -4.0180  -34.7850 N.3   379  CYS379     -0.1221
     21  CA        31.3190   -3.3210  -35.5250 C.3   379  CYS379      0.1808
     22  C         31.7800   -1.9040  -35.9650 C.2   379  CYS379      0.2601
     23  O         32.5400   -1.7670  -36.9250 O.2   379  CYS379     -0.2717
     24  CB        30.0160   -3.3080  -34.6940 C.3   379  CYS379      0.0970
     25  SG        28.4650   -3.2830  -35.6220 S.3   379  CYS379     -0.0800
     26  N         31.3160   -0.8720  -35.2510 N.am  380  LEU380     -0.1979
     27  CA        31.7980    0.4630  -35.4630 C.3   380  LEU380      0.1596
     28  C         33.3110    0.4400  -35.4950 C.2   380  LEU380      0.2287
     29  O         33.9130    0.9630  -36.4200 O.2   380  LEU380     -0.2864
     30  CB        31.2950    1.4350  -34.3870 C.3   380  LEU380      0.0297
     31  CG        31.7150    2.8960  -34.6730 C.3   380  LEU380      0.0022
     32  CD1       31.3160    3.3400  -36.0930 C.3   380  LEU380      0.0001
     33  CD2       31.1470    3.8450  -33.6310 C.3   380  LEU380      0.0001
     34  N         34.3980   -0.6140  -38.6310 N.3   383  GLN383     -0.1245
     35  CA        34.0990    0.3780  -39.6200 C.3   383  GLN383      0.1566
     36  C         35.1190    1.5140  -39.5490 C.2   383  GLN383      0.2260
     37  O         35.6750    1.8520  -40.5820 O.2   383  GLN383     -0.2867
     38  CB        32.6630    0.8600  -39.4850 C.3   383  GLN383      0.0367
     39  CG        31.6590   -0.1390  -40.0470 C.3   383  GLN383      0.0905
     40  CD        30.2720    0.1340  -39.5460 C.2   383  GLN383      0.2608
     41  OE1       29.9930    1.2120  -38.9990 O.2   383  GLN383     -0.2717
     42  NE2       29.3920   -0.8420  -39.7040 N.am  383  GLN383     -0.0878
     43  N         26.4950    6.9120  -42.8120 N.3   403  GLU403     -0.1245
     44  CA        25.9040    7.2190  -41.5130 C.3   403  GLU403      0.1567
     45  C         26.3560    8.5950  -40.9770 C.2   403  GLU403      0.2260
     46  O         25.6520    9.2150  -40.2020 O.2   403  GLU403     -0.2867
     47  CB        26.2150    6.1160  -40.4590 C.3   403  GLU403      0.0388
     48  CG        25.6720    6.4220  -39.0540 C.3   403  GLU403      0.1160
     49  CD        25.7630    5.2980  -38.0390 C.2   403  GLU403      0.3649
     50  OE1       26.0370    4.1630  -38.4460 O.co2 403  GLU403     -0.2457
     51  OE2       25.5450    5.5490  -36.8230 O.co2 403  GLU403     -0.2457
     52  N         24.2670   -7.0040  -35.0320 N.3   459  ARG459     -0.1231
     53  CA        23.3370   -5.9020  -34.8510 C.3   459  ARG459      0.1694
     54  C         23.9890   -4.6460  -35.4330 C.2   459  ARG459      0.2592
     55  O         24.7410   -3.9200  -34.6990 O.2   459  ARG459     -0.2718
     56  CB        22.9850   -5.6870  -33.3940 C.3   459  ARG459      0.0321
     57  CG        22.0800   -4.5000  -33.2060 C.3   459  ARG459      0.0489
     58  CD        21.3070   -4.5910  -31.9050 C.3   459  ARG459      0.2205
     59  NE        20.5160   -3.3980  -31.7590 N.pl3 459  ARG459     -0.0865
     60  CZ        20.9500   -2.3270  -31.1270 C.cat 459  ARG459      0.5346
     61  NH1       22.1520   -2.3410  -30.5890 N.pl3 459  ARG459      0.1354
     62  NH2       20.1850   -1.2520  -31.0310 N.pl3 459  ARG459      0.1354
     63  N         23.7130   -4.4300  -36.7390 N.am  460  HIS460     -0.1962
     64  CA        24.2310   -3.2870  -37.5600 C.3   460  HIS460      0.1787
     65  C         23.4900   -3.1400  -38.8870 C.2   460  HIS460      0.2620
     66  O         22.8620   -4.0970  -39.3750 O.2   460  HIS460     -0.2715
     67  CB        25.7310   -3.4130  -37.8460 C.3   460  HIS460      0.0785
     68  CG        26.0540   -4.4160  -38.9270 C.ar  460  HIS460      0.0821
     69  ND1       26.1980   -5.7370  -38.6750 N.ar  460  HIS460     -0.2267
     70  CD2       26.2310   -4.2570  -40.2970 C.ar  460  HIS460      0.1154
     71  CE1       26.4550   -6.3850  -39.8220 C.ar  460  HIS460      0.1986
     72  NE2       26.4840   -5.4830  -40.8130 N.ar  460  HIS460     -0.2212
     73  N         23.5310   -1.9410  -39.4900 N.am  461  ARG461     -0.1963
     74  CA        22.8970   -1.7810  -40.8130 C.3   461  ARG461      0.1729
     75  C         23.9180   -1.3580  -41.8750 C.2   461  ARG461      0.2616
     76  O         23.8210   -1.7780  -43.0300 O.2   461  ARG461     -0.2715
     77  CB        21.6400   -0.8970  -40.7920 C.3   461  ARG461      0.0348
     78  CG        21.7700    0.3850  -39.9780 C.3   461  ARG461      0.0492
     79  CD        20.5480    1.2710  -40.1830 C.3   461  ARG461      0.2205
     80  NE        19.2960    0.5640  -39.9030 N.pl3 461  ARG461     -0.0865
     81  CZ        18.7280    0.5030  -38.6940 C.cat 461  ARG461      0.5346
     82  NH1       19.3200    1.1120  -37.6560 N.pl3 461  ARG461      0.1354
     83  NH2       17.5730   -0.1630  -38.5140 N.pl3 461  ARG461      0.1354
     84  N         24.9060   -0.5570  -41.4810 N.am  462  TYR462     -0.1974
     85  CA        25.9250   -0.0830  -42.4280 C.3   462  TYR462      0.1639
     86  C         26.9600   -1.1380  -42.8050 C.2   462  TYR462      0.2290
     87  O         27.6340   -1.6680  -41.9360 O.2   462  TYR462     -0.2864
     88  CB        26.6080    1.1380  -41.8590 C.3   462  TYR462      0.0560
     89  CG        25.6450    2.2620  -41.8520 C.ar  462  TYR462     -0.0198
     90  CD1       25.5020    3.0660  -42.9750 C.ar  462  TYR462     -0.0009
     91  CD2       24.8340    2.4940  -40.7500 C.ar  462  TYR462     -0.0009
     92  CE1       24.6030    4.0840  -42.9900 C.ar  462  TYR462      0.0417
     93  CE2       23.9290    3.5090  -40.7520 C.ar  462  TYR462      0.0417
     94  CZ        23.8290    4.2970  -41.8800 C.ar  462  TYR462      0.1957
     95  OH        22.9500    5.3160  -41.9000 O.3   462  TYR462     -0.2866
     96  N         29.1800   -9.1670  -33.3300 N.3   506  HIS506     -0.1241
     97  CA        29.5660   -8.8590  -31.9560 C.3   506  HIS506      0.1621
     98  C         30.0930  -10.0980  -31.3120 C.2   506  HIS506      0.2264
     99  O         29.3510  -10.8780  -30.7680 O.2   506  HIS506     -0.2867
    100  CB        28.3690   -8.3080  -31.2100 C.3   506  HIS506      0.0745
    101  CG        28.0940   -6.8600  -31.4990 C.ar  506  HIS506      0.0817
    102  ND1       28.7020   -5.8520  -30.8180 N.ar  506  HIS506     -0.2268
    103  CD2       27.2710   -6.2560  -32.4450 C.ar  506  HIS506      0.1154
    104  CE1       28.2810   -4.6730  -31.3020 C.ar  506  HIS506      0.1986
    105  NE2       27.4130   -4.9200  -32.3060 N.ar  506  HIS506     -0.2212
@<TRIPOS>BOND
     1    76    75    2
     2    92    90   ar
     3    92    94   ar
     4    90    89   ar
     5    43    44    1
     6    86    85    1
     7    86    87    2
     8    85    88    1
     9    85    84    1
    10    95    94    1
    11    94    93   ar
    12    75    84   am
    13    75    74    1
    14    88    89    1
    15    89    91   ar
    16    44    45    1
    17    44    47    1
    18    45    46    2
    19    74    77    1
    20    74    73    1
    21    72    70   ar
    22    72    71   ar
    23    77    78    1
    24    93    91   ar
    25    37    36    2
    26    47    48    1
    27    70    68   ar
    28    79    78    1
    29    79    80    1
    30    39    40    1
    31    39    38    1
    32    80    81    2
    33    71    69   ar
    34    42    40   am
    35    35    36    1
    36    35    38    1
    37    35    34    1
    38    40    41    2
    39    73    65   am
    40    66    65    2
    41    48    49    1
    42    68    69   ar
    43    68    67    1
    44    65    64    1
    45    81    83    1
    46    81    82    1
    47    50    49   ar
    48    49    51   ar
    49    67    64    1
    50    64    63    1
    51    23    22    2
    52    63    54   am
    53    29    28    2
    54    32    31    1
    55    22    21    1
    56    22    26   am
    57    25    24    1
    58    21    20    1
    59    21    24    1
    60    28    27    1
    61    27    26    1
    62    27    30    1
    63    54    53    1
    64    54    55    2
    65    52    53    1
    66    53    56    1
    67    17    15   ar
    68    17    19   ar
    69    31    30    1
    70    31    33    1
    71    15    14   ar
    72     8     7    2
    73    19    18   ar
    74    56    57    1
    75    96    97    1
    76    10    11    1
    77    10    13    1
    78    10     9    1
    79    14    13    1
    80    14    16   ar
    81    11    12    2
    82    57    58    1
    83     7     9   am
    84     7     6    1
    85    18    16   ar
    86   103   105   ar
    87   103   101   ar
    88   105   104   ar
    89    97    98    1
    90    97   100    1
    91    58    59    1
    92     5     6    2
    93     5     3    1
    94    59    60    2
    95   101   100    1
    96   101   102   ar
    97    98    99    2
    98   104   102   ar
    99     2     3    1
   100     2     1    1
   101    60    62    1
   102    60    61    1
   103     3     4    2
