@<TRIPOS>MOLECULE
tmp/5tkyA00.pdb
 198 185 0 0 0
SMALL
GASTEIGER

@<TRIPOS>ATOM
      1  N        -70.0450    6.1780  175.2400 N.3    10  ASP10      -0.1239
      2  CA       -70.0520    7.2400  176.2370 C.3    10  ASP10       0.1674
      3  C        -71.3450    8.0250  176.0610 C.2    10  ASP10       0.2266
      4  O        -71.5070    8.7620  175.0810 O.2    10  ASP10      -0.2867
      5  CB       -68.8260    8.1360  176.0790 C.3    10  ASP10       0.1410
      6  CG       -68.9110    9.4060  176.9100 C.2    10  ASP10       0.3668
      7  OD1      -69.5850    9.3970  177.9630 O.co2  10  ASP10      -0.2456
      8  OD2      -68.2910   10.4140  176.5120 O.co2  10  ASP10      -0.2456
      9  N        -73.1680   10.9050  177.1310 N.3    12  GLY12      -0.1210
     10  CA       -72.9430   12.1650  177.7990 C.3    12  GLY12       0.1956
     11  C        -74.1960   13.0230  177.8990 C.2    12  GLY12       0.2613
     12  O        -75.2150   12.7700  177.2620 O.2    12  GLY12      -0.2717
     13  N        -74.0950   14.0580  178.7370 N.am   13  THR13      -0.1938
     14  CA       -75.1930   15.0080  178.8800 C.3    13  THR13       0.2028
     15  C        -75.4340   15.7660  177.5820 C.2    13  THR13       0.2643
     16  O        -76.5850   15.9680  177.1780 O.2    13  THR13      -0.2714
     17  CB       -74.8970   15.9880  180.0150 C.3    13  THR13       0.1808
     18  OG1      -74.5730   15.2630  181.2080 O.3    13  THR13      -0.2208
     19  CG2      -76.1020   16.8780  180.2790 C.3    13  THR13       0.0379
     20  N        -74.3610   16.1860  176.9140 N.am   14  THR14      -0.1936
     21  CA       -74.4460   16.9610  175.6820 C.3    14  THR14       0.2028
     22  C        -74.0690   16.1710  174.4400 C.2    14  THR14       0.2642
     23  O        -74.7350   16.2980  173.4120 O.2    14  THR14      -0.2714
     24  CB       -73.5500   18.2010  175.7760 C.3    14  THR14       0.1808
     25  OG1      -72.2460   17.8190  176.2270 O.3    14  THR14      -0.2208
     26  CG2      -74.1400   19.2190  176.7420 C.3    14  THR14       0.0379
     27  N        -73.0150   15.3600  174.5040 N.am   15  TYR15      -0.1973
     28  CA       -72.5580   14.5820  173.3640 C.3    15  TYR15       0.1639
     29  C        -72.3330   13.1350  173.7750 C.2    15  TYR15       0.2290
     30  O        -71.9010   12.8490  174.8940 O.2    15  TYR15      -0.2864
     31  CB       -71.2590   15.1430  172.7660 C.3    15  TYR15       0.0560
     32  CG       -71.3650   16.5520  172.2360 C.ar   15  TYR15      -0.0198
     33  CD1      -71.8960   16.8030  170.9780 C.ar   15  TYR15      -0.0009
     34  CD2      -70.9200   17.6310  172.9870 C.ar   15  TYR15      -0.0009
     35  CE1      -71.9900   18.0910  170.4860 C.ar   15  TYR15       0.0417
     36  CE2      -71.0090   18.9220  172.5040 C.ar   15  TYR15       0.0417
     37  CZ       -71.5440   19.1470  171.2540 C.ar   15  TYR15       0.1957
     38  OH       -71.6330   20.4330  170.7700 O.3    15  TYR15      -0.2866
     39  N        -68.4180   12.7550  167.7890 N.3    37  THR37      -0.1218
     40  CA       -69.3210   13.0110  168.9030 C.3    37  THR37       0.1862
     41  C        -70.6750   13.4330  168.3490 C.2    37  THR37       0.2287
     42  O        -70.7530   14.3450  167.5200 O.2    37  THR37      -0.2866
     43  CB       -68.7720   14.0930  169.8410 C.3    37  THR37       0.1770
     44  OG1      -68.7090   15.3460  169.1490 O.3    37  THR37      -0.2211
     45  CG2      -67.3810   13.7210  170.3310 C.3    37  THR37       0.0375
     46  N        -79.9760   13.3900  180.7850 N.3    71  LYS71      -0.1245
     47  CA       -79.0150   12.8380  181.7310 C.3    71  LYS71       0.1561
     48  C        -79.0750   13.5670  183.0670 C.2    71  LYS71       0.2260
     49  O        -78.7470   12.9840  184.1060 O.2    71  LYS71      -0.2867
     50  CB       -77.6050   12.8970  181.1430 C.3    71  LYS71       0.0271
     51  CG       -76.5770   12.0540  181.8860 C.3    71  LYS71       0.0035
     52  CD       -75.2180   12.1290  181.2080 C.3    71  LYS71       0.0206
     53  CE       -74.1750   11.2880  181.9260 C.3    71  LYS71       0.1093
     54  NZ       -72.8270   11.4530  181.3130 N.3    71  LYS71      -0.1314
     55  N        -67.1080    6.9030  184.2910 N.3   175  GLU175     -0.1245
     56  CA       -66.4320    7.6540  183.2350 C.3   175  GLU175      0.1567
     57  C        -64.9840    8.0120  183.5630 C.2   175  GLU175      0.2260
     58  O        -64.1240    7.8360  182.6810 O.2   175  GLU175     -0.2867
     59  CB       -67.2500    8.9090  182.8990 C.3   175  GLU175      0.0388
     60  CG       -68.6330    8.5910  182.3470 C.3   175  GLU175      0.1160
     61  CD       -69.4820    9.8260  182.1070 C.2   175  GLU175      0.3649
     62  OE1      -68.9530   10.9530  182.2210 O.co2 175  GLU175     -0.2457
     63  OE2      -70.6840    9.6690  181.8030 O.co2 175  GLU175     -0.2457
     64  N        -62.7570   15.5470  185.4350 N.3   200  ASP200     -0.1239
     65  CA       -63.7190   15.4260  184.3380 C.3   200  ASP200      0.1674
     66  C        -64.8170   16.4650  184.5460 C.2   200  ASP200      0.2266
     67  O        -65.7050   16.2830  185.3840 O.2   200  ASP200     -0.2867
     68  CB       -64.2970   14.0120  184.2820 C.3   200  ASP200      0.1410
     69  CG       -65.1260   13.7570  183.0250 C.2   200  ASP200      0.3668
     70  OD1      -65.5080   14.7240  182.3310 O.co2 200  ASP200     -0.2456
     71  OD2      -65.4030   12.5740  182.7360 O.co2 200  ASP200     -0.2456
     72  N        -67.5840   17.9390  182.3070 N.3   202  GLY202     -0.1210
     73  CA       -68.2590   17.8170  181.0300 C.3   202  GLY202      0.1956
     74  C        -69.3180   18.8710  180.7890 C.2   202  GLY202      0.2612
     75  O        -69.1260   20.0470  181.1140 O.2   202  GLY202     -0.2717
     76  N        -70.4440   18.4590  180.2130 N.am  203  GLY203     -0.1942
     77  CA       -71.5020   19.3870  179.8720 C.3   203  GLY203      0.2014
     78  C        -72.5340   19.5610  180.9650 C.2   203  GLY203      0.2639
     79  O        -73.1880   20.6040  181.0460 O.2   203  GLY203     -0.2714
     80  N        -72.6900   18.5460  181.8120 N.am  204  GLY204     -0.1939
     81  CA       -73.6720   18.6020  182.8750 C.3   204  GLY204      0.2014
     82  C        -73.2140   17.9690  184.1730 C.2   204  GLY204      0.2638
     83  O        -73.7400   18.2890  185.2430 O.2   204  GLY204     -0.2714
     84  N        -72.2390   17.0700  184.0980 N.am  205  ALA205     -0.1977
     85  CA       -71.7390   16.3640  185.2650 C.3   205  ALA205      0.1597
     86  C        -70.2950   16.7550  185.5480 C.2   205  ALA205      0.2287
     87  O        -69.5720   17.2400  184.6730 O.2   205  ALA205     -0.2864
     88  CB       -71.8430   14.8470  185.0770 C.3   205  ALA205      0.0319
     89  N        -70.9510   22.6850  181.7930 N.3   231  GLY231     -0.1210
     90  CA       -70.8070   23.8760  180.9730 C.3   231  GLY231      0.1956
     91  C        -72.1220   24.5800  180.7070 C.2   231  GLY231      0.2611
     92  O        -72.1590   25.8070  180.5660 O.2   231  GLY231     -0.2717
     93  N        -73.2150   23.8200  180.6330 N.am  232  GLN232     -0.1979
     94  CA       -74.5260   24.4170  180.4250 C.3   232  GLN232      0.1601
     95  C        -74.9230   25.3320  181.5690 C.2   232  GLN232      0.2287
     96  O        -75.7490   26.2290  181.3700 O.2   232  GLN232     -0.2864
     97  CB       -75.5730   23.3270  180.2500 C.3   232  GLN232      0.0394
     98  CG       -75.7110   22.4210  181.4490 C.3   232  GLN232      0.0908
     99  CD       -76.7060   21.3340  181.1930 C.2   232  GLN232      0.2608
    100  OE1      -76.4370   20.1610  181.4290 O.2   232  GLN232     -0.2717
    101  NE2      -77.8730   21.7150  180.6990 N.am  232  GLN232     -0.0878
    102  N        -73.2410   28.5390  180.5450 N.3   235  ASP235     -0.1239
    103  CA       -74.1040   29.1010  179.5110 C.3   235  ASP235      0.1674
    104  C        -75.3680   29.7020  180.1090 C.2   235  ASP235      0.2266
    105  O        -75.8820   30.7040  179.5990 O.2   235  ASP235     -0.2867
    106  CB       -74.4720   28.0290  178.4860 C.3   235  ASP235      0.1410
    107  CG       -73.2680   27.5020  177.7380 C.2   235  ASP235      0.3668
    108  OD1      -72.2990   28.2680  177.5640 O.co2 235  ASP235     -0.2456
    109  OD2      -73.2910   26.3240  177.3240 O.co2 235  ASP235     -0.2456
    110  N        -73.3050   29.8560  174.2450 N.3   269  GLU269     -0.1245
    111  CA       -72.3600   28.7450  174.1810 C.3   269  GLU269      0.1567
    112  C        -71.2420   29.0430  173.1890 C.2   269  GLU269      0.2260
    113  O        -70.0590   28.8030  173.4750 O.2   269  GLU269     -0.2867
    114  CB       -73.0990   27.4590  173.8060 C.3   269  GLU269      0.0388
    115  CG       -72.3940   26.1720  174.2120 C.3   269  GLU269      0.1160
    116  CD       -71.3750   25.7100  173.1920 C.2   269  GLU269      0.3649
    117  OE1      -71.4360   26.1750  172.0350 O.co2 269  GLU269     -0.2457
    118  OE2      -70.5140   24.8780  173.5480 O.co2 269  GLU269     -0.2457
    119  N        -68.9010   31.5200  174.7170 N.3   272  LYS272     -0.1231
    120  CA       -68.0290   30.8750  175.6930 C.3   272  LYS272      0.1693
    121  C        -66.8760   30.1590  175.0010 C.2   272  LYS272      0.2591
    122  O        -65.7060   30.3380  175.3710 O.2   272  LYS272     -0.2718
    123  CB       -68.8340   29.8960  176.5460 C.3   272  LYS272      0.0285
    124  CG       -67.9820   29.0310  177.4560 C.3   272  LYS272      0.0035
    125  CD       -68.8160   27.9550  178.1250 C.3   272  LYS272      0.0206
    126  CE       -69.3940   26.9970  177.0980 C.3   272  LYS272      0.1093
    127  NZ       -70.2600   25.9660  177.7310 N.3   272  LYS272     -0.1314
    128  N        -67.1940   29.3390  173.9920 N.am  273  ARG273     -0.1980
    129  CA       -66.1490   28.6690  173.2220 C.3   273  ARG273      0.1597
    130  C        -65.1330   29.6670  172.6840 C.2   273  ARG273      0.2287
    131  O        -63.9220   29.4190  172.7270 O.2   273  ARG273     -0.2864
    132  CB       -66.7670   27.8740  172.0710 C.3   273  ARG273      0.0334
    133  CG       -67.5250   26.6250  172.4840 C.3   273  ARG273      0.0492
    134  CD       -68.1360   25.9520  171.2640 C.3   273  ARG273      0.2205
    135  NE       -68.7370   24.6590  171.5750 N.pl3 273  ARG273     -0.0865
    136  CZ       -68.1200   23.4910  171.4210 C.cat 273  ARG273      0.5346
    137  NH1      -66.8770   23.4500  170.9580 N.pl3 273  ARG273      0.1354
    138  NH2      -68.7450   22.3630  171.7280 N.pl3 273  ARG273      0.1354
    139  N        -62.8170   31.0200  175.4190 N.3   276  SER276     -0.1202
    140  CA       -61.7420   30.1300  175.8490 C.3   276  SER276      0.2020
    141  C        -60.4360   30.4270  175.1210 C.2   276  SER276      0.2619
    142  O        -59.3560   30.1270  175.6440 O.2   276  SER276     -0.2717
    143  CB       -62.1420   28.6710  175.6370 C.3   276  SER276      0.2103
    144  OG       -63.0160   28.2340  176.6610 O.3   276  SER276     -0.2182
    145  N        -60.5090   31.0170  173.9300 N.am  277  SER277     -0.1951
    146  CA       -59.3290   31.2930  173.1200 C.3   277  SER277      0.1924
    147  C        -58.9120   32.7570  173.1480 C.2   277  SER277      0.2314
    148  O        -57.7150   33.0520  173.2190 O.2   277  SER277     -0.2863
    149  CB       -59.5760   30.8650  171.6700 C.3   277  SER277      0.2116
    150  OG       -60.0140   29.5190  171.6040 O.3   277  SER277     -0.2180
    151  N        -63.3510   16.0720  179.5230 N.3   339  GLY339     -0.1210
    152  CA       -64.5320   16.8960  179.3740 C.3   339  GLY339      0.1956
    153  C        -64.2450   18.1740  178.6090 C.2   339  GLY339      0.2612
    154  O        -63.1730   18.7780  178.7280 O.2   339  GLY339     -0.2717
    155  N        -65.2230   18.5980  177.8070 N.am  340  GLY340     -0.1942
    156  CA       -65.0320   19.7830  176.9860 C.3   340  GLY340      0.2014
    157  C        -64.8460   21.0460  177.8040 C.2   340  GLY340      0.2639
    158  O        -63.9850   21.8760  177.4950 O.2   340  GLY340     -0.2714
    159  N        -65.6360   21.2030  178.8690 N.am  341  SER341     -0.1949
    160  CA       -65.5380   22.3830  179.7220 C.3   341  SER341      0.1924
    161  C        -64.1630   22.5440  180.3540 C.2   341  SER341      0.2314
    162  O        -63.8780   23.6090  180.9120 O.2   341  SER341     -0.2863
    163  CB       -66.6050   22.3300  180.8170 C.3   341  SER341      0.2116
    164  OG       -66.5340   23.4760  181.6470 O.3   341  SER341     -0.2180
    165  N        -61.5810   22.9810  178.7530 N.3   343  ARG343     -0.1231
    166  CA       -60.8590   23.9270  177.9110 C.3   343  ARG343      0.1694
    167  C        -60.9310   25.3590  178.4260 C.2   343  ARG343      0.2591
    168  O        -60.1920   26.2130  177.9250 O.2   343  ARG343     -0.2718
    169  CB       -61.3930   23.8620  176.4800 C.3   343  ARG343      0.0321
    170  CG       -61.1980   22.5080  175.8260 C.3   343  ARG343      0.0489
    171  CD       -61.5540   22.5430  174.3530 C.3   343  ARG343      0.2205
    172  NE       -61.2390   21.2790  173.6940 N.pl3 343  ARG343     -0.0865
    173  CZ       -62.1350   20.3390  173.4120 C.cat 343  ARG343      0.5346
    174  NH1      -63.4110   20.5210  173.7240 N.pl3 343  ARG343      0.1354
    175  NH2      -61.7560   19.2180  172.8150 N.pl3 343  ARG343      0.1354
    176  N        -61.7890   25.6400  179.4020 N.am  344  ILE344     -0.1980
    177  CA       -61.9050   26.9740  179.9850 C.3   344  ILE344      0.1595
    178  C        -60.5990   27.3140  180.6940 C.2   344  ILE344      0.2287
    179  O        -60.1970   26.6010  181.6250 O.2   344  ILE344     -0.2864
    180  CB       -63.1030   27.0620  180.9440 C.3   344  ILE344      0.0276
    181  CG1      -64.4060   26.7660  180.1960 C.3   344  ILE344      0.0022
    182  CG2      -63.1630   28.4340  181.6000 C.3   344  ILE344      0.0022
    183  CD1      -65.6390   26.8110  181.0710 C.3   344  ILE344      0.0001
    184  N        -59.7370   14.8500  175.2010 N.3   366  PRO366     -0.2102
    185  CA       -60.7540   15.1010  176.2360 C.3   366  PRO366      0.1504
    186  C        -62.1740   14.7650  175.8090 C.2   366  PRO366      0.2575
    187  O        -63.0720   14.7820  176.6610 O.2   366  PRO366     -0.2718
    188  CB       -60.6030   16.6010  176.5130 C.3   366  PRO366      0.0282
    189  CG       -60.0700   17.1580  175.2330 C.3   366  PRO366      0.0208
    190  CD       -59.1620   16.0980  174.6710 C.3   366  PRO366      0.0893
    191  N        -62.4100   14.4600  174.5330 N.am  367  ASP367     -0.1974
    192  CA       -63.7540   14.1710  174.0520 C.3   367  ASP367      0.1708
    193  C        -64.0100   12.6900  173.8100 C.2   367  ASP367      0.2293
    194  O        -65.1760   12.2870  173.7380 O.2   367  ASP367     -0.2864
    195  CB       -64.0290   14.9390  172.7530 C.3   367  ASP367      0.1436
    196  CG       -64.0470   16.4420  172.9550 C.2   367  ASP367      0.3671
    197  OD1      -64.6330   16.9040  173.9560 O.co2 367  ASP367     -0.2456
    198  OD2      -63.4710   17.1620  172.1120 O.co2 367  ASP367     -0.2456
@<TRIPOS>BOND
     1    42    41    2
     2    39    40    1
     3    41    40    1
     4    40    43    1
     5    44    43    1
     6    43    45    1
     7    35    33   ar
     8    35    37   ar
     9    38    37    1
    10   137   136    1
    11    33    32   ar
    12    37    36   ar
    13   134   135    1
    14   134   133    1
    15   136   135    2
    16   136   138    1
    17   150   149    1
    18   149   146    1
    19   117   116   ar
    20   132   133    1
    21   132   129    1
    22   198   196   ar
    23    32    31    1
    24    32    34   ar
    25    36    34   ar
    26   130   131    2
    27   130   129    1
    28   195   196    1
    29   195   192    1
    30    31    28    1
    31   175   173    1
    32   196   197   ar
    33   146   147    1
    34   146   145    1
    35   147   148    2
    36   112   113    2
    37   112   111    1
    38   116   118   ar
    39   116   115    1
    40   129   128    1
    41    28    29    1
    42    28    27    1
    43    23    22    2
    44   173   172    2
    45   173   174    1
    46   172   171    1
    47   194   193    2
    48    29    30    2
    49   114   111    1
    50   114   115    1
    51   193   192    1
    52   145   141   am
    53   128   121   am
    54   192   191    1
    55   111   110    1
    56   171   170    1
    57    22    27   am
    58    22    21    1
    59   191   186   am
    60   190   184    1
    61   190   189    1
    62   119   120    1
    63   121   122    2
    64   121   120    1
    65     4     3    2
    66   141   142    2
    67   141   140    1
    68   184   185    1
    69   189   188    1
    70     1     2    1
    71   139   140    1
    72   143   140    1
    73   143   144    1
    74    21    24    1
    75    21    20    1
    76   120   123    1
    77    24    25    1
    78    24    26    1
    79   186   185    1
    80   186   187    2
    81   170   169    1
    82     3     2    1
    83     5     2    1
    84     5     6    1
    85   185   188    1
    86   169   166    1
    87     8     6   ar
    88   123   124    1
    89     6     7   ar
    90    20    15   am
    91   156   157    1
    92   156   155    1
    93   126   127    1
    94   126   125    1
    95     9    10    1
    96    16    15    2
    97    12    11    2
    98   109   107   ar
    99   124   125    1
   100   158   157    2
   101   108   107   ar
   102    15    14    1
   103   107   106    1
   104    10    11    1
   105   157   159   am
   106   155   153   am
   107    11    13   am
   108   166   167    1
   109   166   165    1
   110   168   167    2
   111   167   176   am
   112   106   103    1
   113   153   154    2
   114   153   152    1
   115    13    14    1
   116   159   160    1
   117    14    17    1
   118   152   151    1
   119   176   177    1
   120   103   104    1
   121   103   102    1
   122   105   104    2
   123   160   161    1
   124   160   163    1
   125    77    76    1
   126    77    78    1
   127   177   178    1
   128   177   180    1
   129    17    19    1
   130    17    18    1
   131   181   180    1
   132   181   183    1
   133    76    74   am
   134    97    94    1
   135    97    98    1
   136   161   162    2
   137    94    93    1
   138    94    95    1
   139    92    91    2
   140    93    91   am
   141   178   179    2
   142   101    99   am
   143    91    90    1
   144    46    47    1
   145    74    73    1
   146    74    75    2
   147   163   164    1
   148   180   182    1
   149    78    79    2
   150    78    80   am
   151    90    89    1
   152    73    72    1
   153    50    47    1
   154    50    51    1
   155    99   100    2
   156    99    98    1
   157    52    51    1
   158    52    53    1
   159    54    53    1
   160    96    95    2
   161    47    48    1
   162    63    61   ar
   163    80    81    1
   164    61    62   ar
   165    61    60    1
   166    70    69   ar
   167    60    59    1
   168    58    57    2
   169    71    69   ar
   170    81    82    1
   171    59    56    1
   172    69    68    1
   173    48    49    2
   174    56    57    1
   175    56    55    1
   176    84    82   am
   177    84    85    1
   178    82    83    2
   179    68    65    1
   180    65    66    1
   181    65    64    1
   182    66    67    2
   183    87    86    2
   184    88    85    1
   185    85    86    1
