@<TRIPOS>MOLECULE
tmp/5tl9A00.pdb
 97 93 0 0 0
SMALL
GASTEIGER

@<TRIPOS>ATOM
      1  N         10.3590   -7.1870   21.6400 N.3    24  TYR24      -0.1241
      2  CA        10.3190   -8.6090   22.0020 C.3    24  TYR24       0.1605
      3  C         11.4170   -8.9550   23.0150 C.2    24  TYR24       0.2264
      4  O         11.1720   -9.7060   23.9660 O.2    24  TYR24      -0.2867
      5  CB        10.4370   -9.4980   20.7660 C.3    24  TYR24       0.0534
      6  CG         9.2540   -9.4790   19.8180 C.ar   24  TYR24      -0.0201
      7  CD1        7.9950   -8.9920   20.2070 C.ar   24  TYR24      -0.0009
      8  CD2        9.3910   -9.9980   18.5340 C.ar   24  TYR24      -0.0009
      9  CE1        6.9210   -8.9980   19.3200 C.ar   24  TYR24       0.0417
     10  CE2        8.3270  -10.0200   17.6450 C.ar   24  TYR24       0.0417
     11  CZ         7.0940   -9.5250   18.0390 C.ar   24  TYR24       0.1957
     12  OH         6.0480   -9.5640   17.1420 O.3    24  TYR24      -0.2866
     13  N         10.2150   -7.9050   26.3500 N.3    27  ALA27      -0.1231
     14  CA         9.2590   -8.9010   26.8590 C.3    27  ALA27       0.1694
     15  C          9.9640  -10.1220   27.4630 C.2    27  ALA27       0.2591
     16  O          9.5930  -10.5910   28.5480 O.2    27  ALA27      -0.2718
     17  CB         8.2820   -9.3270   25.7700 C.3    27  ALA27       0.0304
     18  N         10.9930  -10.6140   26.7690 N.am   28  ILE28      -0.1980
     19  CA        11.7490  -11.7820   27.2170 C.3    28  ILE28       0.1595
     20  C         12.5370  -11.4570   28.4920 C.2    28  ILE28       0.2287
     21  O         12.5220  -12.2380   29.4490 O.2    28  ILE28      -0.2864
     22  CB        12.6470  -12.3360   26.0870 C.3    28  ILE28       0.0276
     23  CG1       11.7700  -12.9520   24.9840 C.3    28  ILE28       0.0022
     24  CG2       13.6420  -13.3680   26.6190 C.3    28  ILE28       0.0022
     25  CD1       12.4400  -13.0790   23.6310 C.3    28  ILE28       0.0001
     26  N         10.2050  -11.4490   31.5020 N.3    31  GLY31      -0.1210
     27  CA         9.9750  -12.8200   31.9610 C.3    31  GLY31       0.1956
     28  C         11.1240  -13.3650   32.7970 C.2    31  GLY31       0.2611
     29  O         10.9040  -13.9770   33.8480 O.2    31  GLY31      -0.2717
     30  N         12.3510  -13.1230   32.3350 N.am   32  GLN32      -0.1979
     31  CA        13.5540  -13.5290   33.0670 C.3    32  GLN32       0.1601
     32  C         13.6480  -12.8760   34.4390 C.2    32  GLN32       0.2287
     33  O         13.9950  -13.5370   35.4160 O.2    32  GLN32      -0.2864
     34  CB        14.8200  -13.2520   32.2490 C.3    32  GLN32       0.0394
     35  CG        14.9830  -14.1580   31.0340 C.3    32  GLN32       0.0908
     36  CD        15.0800  -15.6260   31.4090 C.2    32  GLN32       0.2608
     37  OE1       15.9790  -16.0330   32.1470 O.2    32  GLN32      -0.2717
     38  NE2       14.1490  -16.4290   30.9040 N.am   32  GLN32      -0.0878
     39  N         11.0650  -11.6860   36.2080 N.3    34  ARG34      -0.1231
     40  CA        10.0020  -12.3110   37.0080 C.3    34  ARG34       0.1694
     41  C         10.4500  -13.6390   37.6190 C.2    34  ARG34       0.2591
     42  O         10.2390  -13.8840   38.8090 O.2    34  ARG34      -0.2718
     43  CB         8.7340  -12.5320   36.1800 C.3    34  ARG34       0.0321
     44  CG         7.9920  -11.2630   35.7990 C.3    34  ARG34       0.0489
     45  CD         6.6230  -11.6140   35.2440 C.3    34  ARG34       0.2205
     46  NE         5.8140  -10.4430   34.9140 N.pl3  34  ARG34      -0.0865
     47  CZ         5.1660   -9.6860   35.8000 C.cat  34  ARG34       0.5346
     48  NH1        5.2450   -9.9280   37.1090 N.pl3  34  ARG34       0.1354
     49  NH2        4.4440   -8.6600   35.3750 N.pl3  34  ARG34       0.1354
     50  N         11.0860  -14.4790   36.8040 N.am   35  LEU35      -0.1980
     51  CA        11.5670  -15.7840   37.2550 C.3    35  LEU35       0.1596
     52  C         12.6900  -15.6800   38.2790 C.2    35  LEU35       0.2287
     53  O         12.6610  -16.3570   39.3090 O.2    35  LEU35      -0.2864
     54  CB        12.0160  -16.6360   36.0640 C.3    35  LEU35       0.0297
     55  CG        10.9090  -17.2030   35.1720 C.3    35  LEU35       0.0022
     56  CD1       11.4890  -17.6420   33.8390 C.3    35  LEU35       0.0001
     57  CD2       10.1710  -18.3580   35.8420 C.3    35  LEU35       0.0001
     58  N          5.6570  -12.5990   40.3580 N.3    40  PHE40      -0.1241
     59  CA         4.6550  -12.9410   39.3590 C.3    40  PHE40       0.1605
     60  C          3.4100  -12.1040   39.5540 C.2    40  PHE40       0.2264
     61  O          3.0790  -11.7190   40.6760 O.2    40  PHE40      -0.2867
     62  CB         4.3610  -14.4440   39.4110 C.3    40  PHE40       0.0534
     63  CG         5.5990  -15.2800   39.3030 C.ar   40  PHE40      -0.0203
     64  CD1        6.2090  -15.4870   38.0610 C.ar   40  PHE40      -0.0042
     65  CD2        6.2030  -15.8140   40.4490 C.ar   40  PHE40      -0.0042
     66  CE1        7.3830  -16.2230   37.9600 C.ar   40  PHE40      -0.0003
     67  CE2        7.3790  -16.5460   40.3520 C.ar   40  PHE40      -0.0003
     68  CZ         7.9650  -16.7540   39.1060 C.ar   40  PHE40      -0.0000
     69  N          0.5020  -18.3410   38.3650 N.3    45  ASP45      -0.1239
     70  CA         1.9290  -18.3540   38.0370 C.3    45  ASP45       0.1674
     71  C          2.7520  -18.6270   39.2920 C.2    45  ASP45       0.2266
     72  O          3.6250  -19.5010   39.2940 O.2    45  ASP45      -0.2867
     73  CB         2.3830  -17.0150   37.4300 C.3    45  ASP45       0.1410
     74  CG         1.6550  -16.6480   36.1400 C.2    45  ASP45       0.3668
     75  OD1        0.9650  -17.4920   35.5270 O.co2  45  ASP45      -0.2456
     76  OD2        1.7900  -15.4740   35.7310 O.co2  45  ASP45      -0.2456
     77  N          2.8580  -22.2310   40.6520 N.3    48  ARG48      -0.1231
     78  CA         3.7420  -23.1020   39.8730 C.3    48  ARG48       0.1694
     79  C          5.2230  -22.8600   40.1950 C.2    48  ARG48       0.2592
     80  O          6.0320  -23.7910   40.1390 O.2    48  ARG48      -0.2718
     81  CB         3.4730  -22.9510   38.3720 C.3    48  ARG48       0.0321
     82  CG         4.4370  -23.7190   37.4780 C.3    48  ARG48       0.0489
     83  CD         3.9290  -23.8180   36.0570 C.3    48  ARG48       0.2205
     84  NE         4.9420  -24.3380   35.1430 N.pl3  48  ARG48      -0.0865
     85  CZ         5.1850  -25.6310   34.9320 C.cat  48  ARG48       0.5346
     86  NH1        4.5050  -26.5750   35.5800 N.pl3  48  ARG48       0.1354
     87  NH2        6.1250  -25.9820   34.0700 N.pl3  48  ARG48       0.1354
     88  N          5.5650  -21.6190   40.5410 N.am   49  HIS49      -0.1976
     89  CA         6.9620  -21.2130   40.7020 C.3    49  HIS49       0.1656
     90  C          7.3750  -20.8970   42.1440 C.2    49  HIS49       0.2291
     91  O          8.1540  -19.9690   42.3870 O.2    49  HIS49      -0.2864
     92  CB         7.2870  -20.0430   39.7700 C.3    49  HIS49       0.0771
     93  CG         7.1360  -20.3670   38.3190 C.ar   49  HIS49       0.0820
     94  ND1        8.0960  -21.0510   37.6060 N.ar   49  HIS49      -0.2267
     95  CD2        6.1310  -20.1120   37.4490 C.ar   49  HIS49       0.1154
     96  CE1        7.6890  -21.2020   36.3580 C.ar   49  HIS49       0.1986
     97  NE2        6.5000  -20.6410   36.2370 N.ar   49  HIS49      -0.2212
@<TRIPOS>BOND
     1    12    11    1
     2    10    11   ar
     3    10     8   ar
     4    11     9   ar
     5     8     6   ar
     6     9     7   ar
     7     6     7   ar
     8     6     5    1
     9     5     2    1
    10     1     2    1
    11     2     3    1
    12     3     4    2
    13    25    23    1
    14    23    22    1
    15    17    14    1
    16    22    24    1
    17    22    19    1
    18    13    14    1
    19    18    19    1
    20    18    15   am
    21    14    15    1
    22    19    20    1
    23    15    16    2
    24    20    21    2
    25    38    36   am
    26    35    36    1
    27    35    34    1
    28    36    37    2
    29    26    27    1
    30    27    28    1
    31    34    31    1
    32    30    28   am
    33    30    31    1
    34    28    29    2
    35    31    32    1
    36    56    55    1
    37    87    85    1
    38    32    33    2
    39    46    45    1
    40    46    47    2
    41    85    84    2
    42    85    86    1
    43    84    83    1
    44    55    57    1
    45    55    54    1
    46    45    44    1
    47    49    47    1
    48    75    74   ar
    49    76    74   ar
    50    44    43    1
    51    47    48    1
    52    83    82    1
    53    54    51    1
    54    74    73    1
    55    43    40    1
    56    39    40    1
    57    97    96   ar
    58    97    95   ar
    59    96    94   ar
    60    50    51    1
    61    50    41   am
    62    40    41    1
    63    51    52    1
    64    73    70    1
    65    95    93   ar
    66    82    81    1
    67    94    93   ar
    68    41    42    2
    69    66    64   ar
    70    66    68   ar
    71    70    69    1
    72    70    71    1
    73    64    63   ar
    74    52    53    2
    75    93    92    1
    76    81    78    1
    77    68    67   ar
    78    71    72    2
    79    63    62    1
    80    63    65   ar
    81    59    62    1
    82    59    60    1
    83    59    58    1
    84    60    61    2
    85    92    89    1
    86    78    79    1
    87    78    77    1
    88    80    79    2
    89    79    88   am
    90    67    65   ar
    91    88    89    1
    92    89    90    1
    93    90    91    2
