@<TRIPOS>MOLECULE
tmp/5tlbA00.pdb
 199 194 0 0 0
SMALL
GASTEIGER

@<TRIPOS>ATOM
      1  N        -10.8180   -0.4860   16.0940 N.3    41  TYR41      -0.1227
      2  CA       -11.1840   -1.5270   17.0440 C.3    41  TYR41       0.1736
      3  C        -12.6540   -1.4160   17.4010 C.2    41  TYR41       0.2595
      4  O        -13.2630   -0.3460   17.3160 O.2    41  TYR41      -0.2718
      5  CB       -10.3180   -1.4390   18.3100 C.3    41  TYR41       0.0548
      6  CG        -8.8610   -1.3270   17.9610 C.ar   41  TYR41      -0.0200
      7  CD1       -8.2960   -0.0920   17.7050 C.ar   41  TYR41      -0.0009
      8  CD2       -8.0570   -2.4550   17.8370 C.ar   41  TYR41      -0.0009
      9  CE1       -6.9680    0.0300   17.3510 C.ar   41  TYR41       0.0417
     10  CE2       -6.7190   -2.3410   17.4770 C.ar   41  TYR41       0.0417
     11  CZ        -6.1880   -1.0880   17.2420 C.ar   41  TYR41       0.1957
     12  OH        -4.8740   -0.9220   16.8810 O.3    41  TYR41      -0.2866
     13  N        -13.2180   -2.5470   17.8120 N.am   42  ARG42      -0.1966
     14  CA       -14.5960   -2.5590   18.2750 C.3    42  ARG42       0.1729
     15  C        -14.7630   -3.6140   19.3570 C.2    42  ARG42       0.2617
     16  O        -14.4030   -4.7810   19.1580 O.2    42  ARG42      -0.2715
     17  CB       -15.5580   -2.8310   17.1250 C.3    42  ARG42       0.0348
     18  CG       -16.9990   -2.9960   17.6080 C.3    42  ARG42       0.0492
     19  CD       -18.0000   -3.1540   16.4930 C.3    42  ARG42       0.2205
     20  NE       -19.2580   -3.6190   17.0620 N.pl3  42  ARG42      -0.0865
     21  CZ       -20.1440   -2.8410   17.6740 C.cat  42  ARG42       0.5346
     22  NH1      -21.2470   -3.3800   18.1850 N.pl3  42  ARG42       0.1354
     23  NH2      -19.9420   -1.5330   17.7770 N.pl3  42  ARG42       0.1354
     24  N        -15.3130   -3.1940   20.4960 N.am   43  SER43      -0.1936
     25  CA       -15.7290   -4.1230   21.5320 C.3    43  SER43       0.2055
     26  C        -17.0890   -4.6900   21.1710 C.2    43  SER43       0.2643
     27  O        -18.0300   -3.9390   20.8930 O.2    43  SER43      -0.2714
     28  CB       -15.8010   -3.4080   22.8800 C.3    43  SER43       0.2130
     29  OG       -14.5160   -3.1620   23.3900 O.3    43  SER43      -0.2179
     30  N        -17.1990   -6.0100   21.1880 N.am   44  ASP44      -0.1957
     31  CA       -18.4410   -6.6660   20.8290 C.3    44  ASP44       0.1840
     32  C        -18.4870   -7.9760   21.5980 C.2    44  ASP44       0.2623
     33  O        -17.4800   -8.6830   21.6900 O.2    44  ASP44      -0.2715
     34  CB       -18.5260   -6.8750   19.3080 C.3    44  ASP44       0.1450
     35  CG       -19.9470   -7.0470   18.8150 C.2    44  ASP44       0.3671
     36  OD1      -20.6070   -8.0170   19.2380 O.co2  44  ASP44      -0.2456
     37  OD2      -20.4030   -6.2190   17.9970 O.co2  44  ASP44      -0.2456
     38  N        -19.6430   -8.2720   22.1910 N.am   45  SER45      -0.1936
     39  CA       -19.7940   -9.5120   22.9390 C.3    45  SER45       0.2055
     40  C        -20.0200  -10.7220   22.0420 C.2    45  SER45       0.2642
     41  O        -19.9590  -11.8580   22.5340 O.2    45  SER45      -0.2714
     42  CB       -20.9570   -9.3900   23.9230 C.3    45  SER45       0.2130
     43  OG       -22.1660   -9.1430   23.2250 O.3    45  SER45      -0.2179
     44  N        -20.3010  -10.5180   20.7600 N.am   46  ARG46      -0.1977
     45  CA       -20.5420  -11.6300   19.8510 C.3    46  ARG46       0.1597
     46  C        -19.2330  -12.2870   19.4400 C.2    46  ARG46       0.2287
     47  O        -18.2300  -11.6080   19.2070 O.2    46  ARG46      -0.2864
     48  CB       -21.2880  -11.1430   18.6160 C.3    46  ARG46       0.0334
     49  CG       -22.7490  -10.8090   18.8890 C.3    46  ARG46       0.0492
     50  CD       -23.3990  -10.1900   17.6740 C.3    46  ARG46       0.2205
     51  NE       -22.7480   -8.9360   17.3290 N.pl3  46  ARG46      -0.0865
     52  CZ       -22.9310   -8.2760   16.1900 C.cat  46  ARG46       0.5346
     53  NH1      -23.7500   -8.7590   15.2620 N.pl3  46  ARG46       0.1354
     54  NH2      -22.2840   -7.1310   15.9790 N.pl3  46  ARG46       0.1354
     55  N        -20.8730  -12.7670    9.2350 N.3    54  GLN54      -0.1245
     56  CA       -21.8320  -11.7340    8.8560 C.3    54  GLN54       0.1566
     57  C        -21.2210  -10.3500    8.7020 C.2    54  GLN54       0.2260
     58  O        -21.8970   -9.4500    8.1920 O.2    54  GLN54      -0.2867
     59  CB       -22.9480  -11.6400    9.9040 C.3    54  GLN54       0.0367
     60  CG       -23.6440  -12.9480   10.1910 C.3    54  GLN54       0.0905
     61  CD       -24.4410  -12.8970   11.4680 C.2    54  GLN54       0.2608
     62  OE1      -24.6140  -11.8330   12.0720 O.2    54  GLN54      -0.2717
     63  NE2      -24.9140  -14.0490   11.9040 N.am   54  GLN54      -0.0878
     64  N        -23.1470   -5.8240   11.1050 N.3    57  LEU57      -0.1231
     65  CA       -24.3770   -5.2430   10.5860 C.3    57  LEU57       0.1678
     66  C        -24.9270   -4.2000   11.5580 C.2    57  LEU57       0.2434
     67  O        -24.8800   -4.4030   12.7760 O.2    57  LEU57      -0.2733
     68  CB       -25.4310   -6.3300   10.3530 C.3    57  LEU57       0.0284
     69  CG       -25.2220   -7.1710    9.0870 C.3    57  LEU57       0.0019
     70  CD1      -26.0960   -8.4130    9.0870 C.3    57  LEU57       0.0001
     71  CD2      -25.5120   -6.3350    7.8520 C.3    57  LEU57       0.0001
     72  N        -25.4520   -3.0840   11.0580 N.am   58  PRO58      -0.2718
     73  CA       -26.0900   -2.1030   11.9400 C.3    58  PRO58       0.1535
     74  C        -27.4810   -2.5550   12.3590 C.2    58  PRO58       0.2598
     75  O        -28.1380   -3.3510   11.6860 O.2    58  PRO58      -0.2715
     76  CB       -26.1640   -0.8490   11.0680 C.3    58  PRO58       0.0310
     77  CG       -26.3510   -1.4120    9.6840 C.3    58  PRO58       0.0237
     78  CD       -25.5400   -2.6810    9.6410 C.3    58  PRO58       0.0939
     79  N        -27.9360   -1.9990   13.4830 N.am   59  LYS59      -0.1978
     80  CA       -29.1800   -2.4690   14.0850 C.3    59  LYS59       0.1596
     81  C        -30.4190   -1.9910   13.3320 C.2    59  LYS59       0.2287
     82  O        -31.4240   -2.7090   13.2970 O.2    59  LYS59      -0.2864
     83  CB       -29.2370   -2.0390   15.5510 C.3    59  LYS59       0.0298
     84  CG       -28.3150   -2.8660   16.4140 C.3    59  LYS59       0.0038
     85  CD       -28.5160   -2.6220   17.8880 C.3    59  LYS59       0.0206
     86  CE       -27.7650   -3.6730   18.6900 C.3    59  LYS59       0.1093
     87  NZ       -27.6880   -3.3530   20.1370 N.3    59  LYS59      -0.1314
     88  N        -27.0240    9.5200   18.9270 N.3    71  TYR71      -0.1227
     89  CA       -26.5740    8.1350   19.0250 C.3    71  TYR71       0.1736
     90  C        -25.4120    7.9910   20.0020 C.2    71  TYR71       0.2595
     91  O        -25.3640    7.0320   20.7810 O.2    71  TYR71      -0.2718
     92  CB       -26.1870    7.6290   17.6310 C.3    71  TYR71       0.0548
     93  CG       -25.4270    6.3290   17.6510 C.ar   71  TYR71      -0.0200
     94  CD1      -26.0450    5.1470   18.0240 C.ar   71  TYR71      -0.0009
     95  CD2      -24.0890    6.2820   17.2970 C.ar   71  TYR71      -0.0009
     96  CE1      -25.3530    3.9630   18.0510 C.ar   71  TYR71       0.0417
     97  CE2      -23.3930    5.1000   17.3230 C.ar   71  TYR71       0.0417
     98  CZ       -24.0310    3.9420   17.6960 C.ar   71  TYR71       0.1957
     99  OH       -23.3380    2.7550   17.7250 O.3    71  TYR71      -0.2866
    100  N        -24.4590    8.9260   19.9760 N.am   72  VAL72      -0.1980
    101  CA       -23.3340    8.8630   20.9090 C.3    72  VAL72       0.1595
    102  C        -23.8230    9.0330   22.3420 C.2    72  VAL72       0.2287
    103  O        -23.3930    8.3180   23.2540 O.2    72  VAL72      -0.2864
    104  CB       -22.2820    9.9290   20.5500 C.3    72  VAL72       0.0276
    105  CG1      -21.2500   10.0800   21.6750 C.3    72  VAL72       0.0022
    106  CG2      -21.5870    9.5740   19.2400 C.3    72  VAL72       0.0022
    107  N        -27.1630    5.6910   23.3430 N.3    75  ASN75      -0.1240
    108  CA       -27.1020    4.5370   22.4640 C.3    75  ASN75       0.1653
    109  C        -28.5210    4.0330   22.2330 C.2    75  ASN75       0.2266
    110  O        -29.2780    3.8160   23.1850 O.2    75  ASN75      -0.2867
    111  CB       -26.2150    3.4620   23.0880 C.3    75  ASN75       0.1155
    112  CG       -25.8120    2.3840   22.1090 C.2    75  ASN75       0.2627
    113  OD1      -25.8530    2.5710   20.8930 O.2    75  ASN75      -0.2716
    114  ND2      -25.4100    1.2390   22.6420 N.am   75  ASN75      -0.0877
    115  N        -25.5110    2.9360   12.3210 N.3    80  TYR80      -0.1227
    116  CA       -24.0680    2.9740   12.5220 C.3    80  TYR80       0.1736
    117  C        -23.5710    1.7550   13.2840 C.2    80  TYR80       0.2595
    118  O        -24.2400    1.2380   14.1840 O.2    80  TYR80      -0.2718
    119  CB       -23.6620    4.2280   13.2990 C.3    80  TYR80       0.0548
    120  CG       -24.1660    5.5120   12.6960 C.ar   80  TYR80      -0.0200
    121  CD1      -23.6510    5.9920   11.5040 C.ar   80  TYR80      -0.0009
    122  CD2      -25.1350    6.2630   13.3400 C.ar   80  TYR80      -0.0009
    123  CE1      -24.1180    7.1770   10.9430 C.ar   80  TYR80       0.0417
    124  CE2      -25.6030    7.4460   12.7980 C.ar   80  TYR80       0.0417
    125  CZ       -25.0980    7.8970   11.5940 C.ar   80  TYR80       0.1957
    126  OH       -25.5640    9.0780   11.0590 O.3    80  TYR80      -0.2866
    127  N        -22.3640    1.3220   12.9320 N.am   81  VAL81      -0.1966
    128  CA       -21.5700    0.4380   13.7740 C.3    81  VAL81       0.1727
    129  C        -20.4110    1.2540   14.3210 C.2    81  VAL81       0.2617
    130  O        -19.6460    1.8580   13.5590 O.2    81  VAL81      -0.2715
    131  CB       -21.0770   -0.7960   13.0120 C.3    81  VAL81       0.0290
    132  CG1      -20.1000   -1.5890   13.8740 C.3    81  VAL81       0.0023
    133  CG2      -22.2610   -1.6610   12.6080 C.3    81  VAL81       0.0023
    134  N        -20.2850    1.2640   15.6430 N.am   82  SER82      -0.1936
    135  CA       -19.2640    2.0520   16.3210 C.3    82  SER82       0.2055
    136  C        -17.9380    1.3130   16.3720 C.2    82  SER82       0.2644
    137  O        -17.8940    0.1040   16.6200 O.2    82  SER82      -0.2714
    138  CB       -19.7120    2.3880   17.7450 C.3    82  SER82       0.2130
    139  OG       -20.7410    3.3600   17.7220 O.3    82  SER82      -0.2179
    140  N        -16.8560    2.0640   16.1350 N.am   83  THR83      -0.1936
    141  CA       -15.4830    1.5990   16.2730 C.3    83  THR83       0.2028
    142  C        -14.7050    2.7320   16.9170 C.2    83  THR83       0.2642
    143  O        -15.2140    3.8500   17.0750 O.2    83  THR83      -0.2714
    144  CB       -14.8520    1.2310   14.9220 C.3    83  THR83       0.1808
    145  OG1      -14.6400    2.4280   14.1710 O.3    83  THR83      -0.2208
    146  CG2      -15.7550    0.2790   14.1410 C.3    83  THR83       0.0379
    147  N        -13.4620    2.4500   17.2770 N.am   84  THR84      -0.1950
    148  CA       -12.6150    3.4320   17.9360 C.3    84  THR84       0.1897
    149  C        -11.2050    3.3850   17.3590 C.2    84  THR84       0.2313
    150  O        -10.7140    2.3340   16.9410 O.2    84  THR84      -0.2863
    151  CB       -12.5820    3.1920   19.4500 C.3    84  THR84       0.1794
    152  OG1      -11.7190    4.1510   20.0750 O.3    84  THR84      -0.2208
    153  CG2      -12.1010    1.7840   19.7840 C.3    84  THR84       0.0378
    154  N         -9.5860    0.8180   24.2940 N.3    89  LEU89      -0.1245
    155  CA       -10.9070    1.2060   24.7730 C.3    89  LEU89       0.1561
    156  C        -11.6730    0.0190   25.3310 C.2    89  LEU89       0.2260
    157  O        -12.5670    0.2100   26.1640 O.2    89  LEU89      -0.2867
    158  CB       -11.7210    1.8550   23.6540 C.3    89  LEU89       0.0270
    159  CG       -12.9540    2.6090   24.1890 C.3    89  LEU89       0.0019
    160  CD1      -12.5340    3.8490   24.9370 C.3    89  LEU89       0.0001
    161  CD2      -13.9230    2.9690   23.0790 C.3    89  LEU89       0.0001
    162  N        -15.0290   -1.3570   28.7860 N.3    93  TRP93      -0.1241
    163  CA       -16.2820   -2.0800   28.6520 C.3    93  TRP93       0.1605
    164  C        -16.4910   -3.0430   29.8160 C.2    93  TRP93       0.2264
    165  O        -15.5450   -3.6100   30.3680 O.2    93  TRP93      -0.2867
    166  CB       -16.3280   -2.8400   27.3270 C.3    93  TRP93       0.0550
    167  CG       -17.2580   -2.1770   26.3870 C.ar   93  TRP93       0.0003
    168  CD1      -18.5360   -2.5600   26.0720 C.ar   93  TRP93       0.0946
    169  CD2      -17.0150   -0.9670   25.6790 C.ar   93  TRP93       0.0152
    170  NE1      -19.0890   -1.6640   25.1880 N.ar   93  TRP93      -0.2442
    171  CE2      -18.1740   -0.6760   24.9340 C.ar   93  TRP93       0.0810
    172  CE3      -15.9190   -0.1060   25.5860 C.ar   93  TRP93       0.0012
    173  CZ2      -18.2650    0.4430   24.1120 C.ar   93  TRP93       0.0191
    174  CZ3      -16.0150    0.9930   24.7740 C.ar   93  TRP93       0.0001
    175  CH2      -17.1760    1.2630   24.0460 C.ar   93  TRP93       0.0015
    176  N        -17.3190   -7.0070   27.7420 N.3    96  SER96      -0.1217
    177  CA       -17.5730   -6.9660   26.3070 C.3    96  SER96       0.1889
    178  C        -16.9700   -8.1360   25.5550 C.2    96  SER96       0.2288
    179  O        -17.2090   -8.2540   24.3480 O.2    96  SER96      -0.2866
    180  CB       -17.0340   -5.7000   25.6770 C.3    96  SER96       0.2089
    181  OG       -17.0770   -5.8570   24.2710 O.3    96  SER96      -0.2183
    182  N        -13.8400    8.4540   23.7130 N.3   123  GLN123     -0.1245
    183  CA       -13.9480    7.1880   23.0040 C.3   123  GLN123      0.1566
    184  C        -13.3340    7.2370   21.6170 C.2   123  GLN123      0.2260
    185  O        -13.2190    6.1840   20.9750 O.2   123  GLN123     -0.2867
    186  CB       -15.4130    6.7810   22.8600 C.3   123  GLN123      0.0367
    187  CG       -16.1270    6.4900   24.1650 C.3   123  GLN123      0.0905
    188  CD       -17.5580    6.0490   23.9350 C.2   123  GLN123      0.2608
    189  OE1      -18.2970    6.6710   23.1700 O.2   123  GLN123     -0.2717
    190  NE2      -17.9510    4.9600   24.5800 N.am  123  GLN123     -0.0878
    191  N        -14.2580    7.8970   18.5760 N.3   125  GLU125     -0.1245
    192  CA       -15.0850    6.9750   17.8210 C.3   125  GLU125      0.1567
    193  C        -15.0530    7.2610   16.3240 C.2   125  GLU125      0.2260
    194  O        -14.9100    8.4070   15.8860 O.2   125  GLU125     -0.2867
    195  CB       -16.5260    7.0560   18.3200 C.3   125  GLU125      0.0388
    196  CG       -17.4360    6.0470   17.6950 C.3   125  GLU125      0.1160
    197  CD       -18.8590    6.1800   18.1710 C.2   125  GLU125      0.3649
    198  OE1      -19.0840    6.8460   19.2040 O.co2 125  GLU125     -0.2457
    199  OE2      -19.7530    5.6140   17.5060 O.co2 125  GLU125     -0.2457
@<TRIPOS>BOND
     1    71    69    1
     2    58    57    2
     3    57    56    1
     4    56    55    1
     5    56    59    1
     6    69    70    1
     7    69    68    1
     8    78    77    1
     9    78    72    1
    10    77    76    1
    11    59    60    1
    12    60    61    1
    13    68    65    1
    14    65    64    1
    15    65    66    1
    16   123   121   ar
    17   123   125   ar
    18    72    66   am
    19    72    73    1
    20   126   125    1
    21    76    73    1
    22    61    63   am
    23    61    62    2
    24   121   120   ar
    25    66    67    2
    26   125   124   ar
    27    75    74    2
    28    73    74    1
    29   115   116    1
    30    74    79   am
    31   116   117    1
    32   116   119    1
    33   133   131    1
    34   120   119    1
    35   120   122   ar
    36   124   122   ar
    37   127   117   am
    38   127   128    1
    39   131   128    1
    40   131   132    1
    41   117   118    2
    42    82    81    2
    43    81    80    1
    44    79    80    1
    45   130   129    2
    46   128   129    1
    47    80    83    1
    48   146   144    1
    49   145   144    1
    50   129   134   am
    51   144   141    1
    52    53    52    1
    53    83    84    1
    54   134   135    1
    55   194   193    2
    56    54    52    1
    57     1     2    1
    58   140   141    1
    59   140   136   am
    60    52    51    2
    61   141   142    1
    62   135   136    1
    63   135   138    1
    64   193   192    1
    65   136   137    2
    66    84    85    1
    67    19    20    1
    68    19    18    1
    69    12    11    1
    70   142   143    2
    71   142   147   am
    72   150   149    2
    73     2     3    1
    74     2     5    1
    75    20    21    2
    76    17    18    1
    77    17    14    1
    78    11     9   ar
    79    11    10   ar
    80   147   148    1
    81    95    97   ar
    82    95    93   ar
    83     4     3    2
    84    97    98   ar
    85    51    50    1
    86     9     7   ar
    87   149   148    1
    88     3    13   am
    89    10     8   ar
    90   199   197   ar
    91    92    93    1
    92    92    89    1
    93    93    94   ar
    94    50    49    1
    95    21    23    1
    96    21    22    1
    97   196   197    1
    98   196   195    1
    99    98    99    1
   100    98    96   ar
   101     7     6   ar
   102   139   138    1
   103    13    14    1
   104   192   195    1
   105   192   191    1
   106     8     6   ar
   107    85    86    1
   108   148   151    1
   109     6     5    1
   110    37    35   ar
   111    94    96   ar
   112   197   198   ar
   113    14    15    1
   114    48    49    1
   115    48    45    1
   116    86    87    1
   117    35    36   ar
   118    35    34    1
   119    88    89    1
   120    89    90    1
   121    16    15    2
   122    47    46    2
   123   106   104    1
   124    34    31    1
   125    15    24   am
   126    46    45    1
   127   151   153    1
   128   151   152    1
   129    45    44    1
   130   100    90   am
   131   100   101    1
   132    90    91    2
   133    24    25    1
   134   104   101    1
   135   104   105    1
   136    44    40   am
   137    31    30    1
   138    31    32    1
   139   113   112    2
   140    27    26    2
   141   101   102    1
   142   185   184    2
   143    26    30   am
   144    26    25    1
   145    25    28    1
   146    32    33    2
   147    32    38   am
   148   184   183    1
   149    40    41    2
   150    40    39    1
   151   112   114   am
   152   112   111    1
   153    38    39    1
   154   109   108    1
   155   109   110    2
   156   102   103    2
   157   108   111    1
   158   108   107    1
   159   186   183    1
   160   186   187    1
   161    28    29    1
   162    39    42    1
   163   183   182    1
   164   161   159    1
   165   189   188    2
   166    43    42    1
   167   158   159    1
   168   158   155    1
   169   188   187    1
   170   188   190   am
   171   175   173   ar
   172   175   174   ar
   173   173   171   ar
   174   159   160    1
   175   181   180    1
   176   154   155    1
   177   179   178    2
   178   155   156    1
   179   174   172   ar
   180   171   170   ar
   181   171   169   ar
   182   170   168   ar
   183   156   157    2
   184   178   177    1
   185   172   169   ar
   186   180   177    1
   187   169   167   ar
   188   168   167   ar
   189   177   176    1
   190   167   166    1
   191   166   163    1
   192   163   162    1
   193   163   164    1
   194   164   165    2
