@<TRIPOS>MOLECULE
tmp/5tleA00.pdb
 160 148 0 0 0
SMALL
GASTEIGER

@<TRIPOS>ATOM
      1  N         10.0960  -27.3700   51.3360 N.3    31  ALA31      -0.1245
      2  CA         8.6570  -27.4270   51.5800 C.3    31  ALA31       0.1562
      3  C          8.4620  -28.1670   52.8910 C.2    31  ALA31       0.2260
      4  O          8.4810  -29.3960   52.9220 O.2    31  ALA31      -0.2867
      5  CB         7.9430  -28.1170   50.4290 C.3    31  ALA31       0.0290
      6  N          5.7420  -27.5430   55.0130 N.3    33  ASP33      -0.1225
      7  CA         4.4140  -27.0710   55.3970 C.3    33  ASP33       0.1805
      8  C          3.4060  -28.1940   55.6210 C.2    33  ASP33       0.2598
      9  O          2.1830  -27.9720   55.5080 O.2    33  ASP33      -0.2718
     10  CB         3.8770  -26.0900   54.3510 C.3    33  ASP33       0.1424
     11  CG         3.7810  -26.6910   52.9580 C.2    33  ASP33       0.3668
     12  OD1        4.8030  -27.1660   52.4200 O.co2  33  ASP33      -0.2456
     13  OD2        2.6590  -26.6830   52.4040 O.co2  33  ASP33      -0.2456
     14  N          3.8750  -29.3830   55.9770 N.am   34  GLU34      -0.1965
     15  CA         2.9630  -30.4830   56.2770 C.3    34  GLU34       0.1733
     16  C          2.0680  -30.0930   57.4480 C.2    34  GLU34       0.2617
     17  O          2.5380  -29.5690   58.4610 O.2    34  GLU34      -0.2715
     18  CB         3.7470  -31.7500   56.6160 C.3    34  GLU34       0.0429
     19  CG         4.7400  -32.2090   55.5430 C.3    34  GLU34       0.1163
     20  CD         6.1490  -31.6390   55.7190 C.2    34  GLU34       0.3649
     21  OE1        6.3430  -30.7070   56.5360 O.co2  34  GLU34      -0.2457
     22  OE2        7.0700  -32.1260   55.0250 O.co2  34  GLU34      -0.2457
     23  N          0.7690  -30.3330   57.2980 N.am   35  SER35      -0.1950
     24  CA        -0.1710  -30.1440   58.3850 C.3    35  SER35       0.1924
     25  C          0.1330  -31.1210   59.5280 C.2    35  SER35       0.2314
     26  O          0.8860  -32.0860   59.3790 O.2    35  SER35      -0.2863
     27  CB        -1.5890  -30.3790   57.8880 C.3    35  SER35       0.2116
     28  OG        -1.7440  -31.7560   57.5900 O.3    35  SER35      -0.2180
     29  N         -0.6240  -34.4740   58.4570 N.3    38  SER38      -0.1217
     30  CA         0.3040  -34.9720   57.4540 C.3    38  SER38       0.1889
     31  C          1.6450  -35.3430   58.0780 C.2    38  SER38       0.2288
     32  O          2.2190  -36.3850   57.7460 O.2    38  SER38      -0.2866
     33  CB         0.4780  -33.9220   56.3570 C.3    38  SER38       0.2089
     34  OG         1.4480  -34.3180   55.4070 O.3    38  SER38      -0.2183
     35  N          4.6830  -38.9720   59.0860 N.3    42  ARG42      -0.1245
     36  CA         6.1430  -38.9400   59.1340 C.3    42  ARG42       0.1563
     37  C          6.6560  -39.4300   60.4840 C.2    42  ARG42       0.2260
     38  O          7.4650  -40.3590   60.5610 O.2    42  ARG42      -0.2867
     39  CB         6.6430  -37.5150   58.8680 C.3    42  ARG42       0.0307
     40  CG         7.2840  -37.2910   57.5120 C.3    42  ARG42       0.0489
     41  CD         6.2560  -37.2210   56.3990 C.3    42  ARG42       0.2205
     42  NE         5.9580  -38.5430   55.8570 N.pl3  42  ARG42      -0.0865
     43  CZ         5.1280  -38.7700   54.8420 C.cat  42  ARG42       0.5346
     44  NH1        4.9270  -40.0120   54.4220 N.pl3  42  ARG42       0.1354
     45  NH2        4.5010  -37.7600   54.2450 N.pl3  42  ARG42       0.1354
     46  N          1.9090  -21.7660   53.8880 N.3   107  LYS107     -0.1245
     47  CA         0.8420  -22.4870   53.2070 C.3   107  LYS107      0.1561
     48  C         -0.5000  -21.9460   53.6900 C.2   107  LYS107      0.2260
     49  O         -0.7350  -21.8620   54.9020 O.2   107  LYS107     -0.2867
     50  CB         0.9400  -23.9830   53.4750 C.3   107  LYS107      0.0271
     51  CG        -0.1020  -24.7950   52.6830 C.3   107  LYS107      0.0035
     52  CD        -1.2030  -25.2970   53.5620 C.3   107  LYS107      0.0206
     53  CE        -0.7340  -26.3790   54.5060 C.3   107  LYS107      0.1093
     54  NZ        -0.0880  -27.5020   53.7570 N.3   107  LYS107     -0.1314
     55  N         -3.7880  -22.7750   51.9300 N.3   109  ASP109     -0.1239
     56  CA        -5.0050  -23.5000   51.6030 C.3   109  ASP109      0.1674
     57  C         -5.4870  -24.2810   52.8300 C.2   109  ASP109      0.2266
     58  O         -4.7660  -24.4790   53.8310 O.2   109  ASP109     -0.2867
     59  CB        -4.8130  -24.4290   50.3860 C.3   109  ASP109      0.1410
     60  CG        -3.9710  -25.6510   50.6940 C.2   109  ASP109      0.3668
     61  OD1       -4.4880  -26.5930   51.3720 O.co2 109  ASP109     -0.2456
     62  OD2       -2.7850  -25.6810   50.2540 O.co2 109  ASP109     -0.2456
     63  N          1.7120  -20.6680   49.5440 N.3   146  LYS146     -0.1245
     64  CA         1.5030  -21.8750   48.7720 C.3   146  LYS146      0.1561
     65  C          0.0560  -22.3140   48.9040 C.2   146  LYS146      0.2260
     66  O         -0.5300  -22.2380   49.9860 O.2   146  LYS146     -0.2867
     67  CB         2.4050  -23.0180   49.2410 C.3   146  LYS146      0.0271
     68  CG         2.5290  -24.1250   48.1850 C.3   146  LYS146      0.0035
     69  CD         2.7090  -25.4800   48.7790 C.3   146  LYS146      0.0206
     70  CE         1.4390  -26.0380   49.3090 C.3   146  LYS146      0.1093
     71  NZ         1.7030  -27.3640   49.9320 N.3   146  LYS146     -0.1314
     72  N         -2.2220  -25.7000   47.2880 N.3   148  ARG148     -0.1245
     73  CA        -2.1520  -26.9600   46.5480 C.3   148  ARG148      0.1563
     74  C         -3.5320  -27.4040   46.0550 C.2   148  ARG148      0.2260
     75  O         -4.4390  -27.6650   46.8450 O.2   148  ARG148     -0.2867
     76  CB        -1.5290  -28.0430   47.4180 C.3   148  ARG148      0.0307
     77  CG        -1.4530  -29.4080   46.7560 C.3   148  ARG148      0.0489
     78  CD        -0.5340  -30.3000   47.5860 C.3   148  ARG148      0.2205
     79  NE        -0.4230  -31.6410   47.0370 N.pl3 148  ARG148     -0.0865
     80  CZ        -1.0430  -32.7290   47.4890 C.cat 148  ARG148      0.5346
     81  NH1       -1.8620  -32.6700   48.5310 N.pl3 148  ARG148      0.1354
     82  NH2       -0.8100  -33.9100   46.9080 N.pl3 148  ARG148      0.1354
     83  N          0.2000  -24.0970   42.7080 N.3   187  GLU187     -0.1245
     84  CA         0.5140  -25.5310   42.6820 C.3   187  GLU187      0.1567
     85  C         -0.6710  -26.3250   42.1340 C.2   187  GLU187      0.2260
     86  O         -1.5820  -26.7170   42.8870 O.2   187  GLU187     -0.2867
     87  CB         0.9070  -26.0520   44.0660 C.3   187  GLU187      0.0388
     88  CG         1.2560  -27.5290   44.0390 C.3   187  GLU187      0.1160
     89  CD         1.7760  -28.0850   45.3650 C.2   187  GLU187      0.3649
     90  OE1        1.8200  -27.3480   46.3480 O.co2 187  GLU187     -0.2457
     91  OE2        2.1370  -29.2850   45.4050 O.co2 187  GLU187     -0.2457
     92  N         -1.0530  -29.7040   41.2050 N.3   189  GLU189     -0.1245
     93  CA        -0.3720  -30.9970   41.1830 C.3   189  GLU189      0.1567
     94  C         -1.2230  -32.0300   40.4680 C.2   189  GLU189      0.2260
     95  O         -2.3640  -32.2860   40.8670 O.2   189  GLU189     -0.2867
     96  CB        -0.0440  -31.4940   42.5880 C.3   189  GLU189      0.0388
     97  CG         0.4920  -32.9180   42.5110 C.3   189  GLU189      0.1160
     98  CD         1.0780  -33.4830   43.7730 C.2   189  GLU189      0.3649
     99  OE1        0.9650  -32.8690   44.8500 O.co2 189  GLU189     -0.2457
    100  OE2        1.6490  -34.5960   43.6860 O.co2 189  GLU189     -0.2457
    101  N          4.4280  -24.3010   40.8070 N.3   229  LYS229     -0.1245
    102  CA         4.8570  -25.5410   41.4550 C.3   229  LYS229      0.1561
    103  C          4.0920  -26.6960   40.8150 C.2   229  LYS229      0.2260
    104  O          3.0300  -27.1080   41.3120 O.2   229  LYS229     -0.2867
    105  CB         4.6340  -25.4810   42.9560 C.3   229  LYS229      0.0271
    106  CG         5.0520  -26.7470   43.6820 C.3   229  LYS229      0.0035
    107  CD         5.1920  -26.5790   45.2120 C.3   229  LYS229      0.0206
    108  CE         5.5400  -27.9160   45.8240 C.3   229  LYS229      0.1093
    109  NZ         5.8830  -27.7860   47.2620 N.3   229  LYS229     -0.1314
    110  N          7.4780  -29.8700   42.5270 N.3   270  LEU270     -0.1231
    111  CA         7.2080  -30.8230   43.5960 C.3   270  LEU270      0.1693
    112  C          7.8460  -32.1580   43.2360 C.2   270  LEU270      0.2593
    113  O          8.0830  -32.4350   42.0670 O.2   270  LEU270     -0.2718
    114  CB         5.7000  -30.9850   43.7670 C.3   270  LEU270      0.0284
    115  CG         4.8900  -31.5360   42.5960 C.3   270  LEU270      0.0019
    116  CD1        4.7240  -33.0550   42.7280 C.3   270  LEU270      0.0001
    117  CD2        3.5200  -30.8450   42.5120 C.3   270  LEU270      0.0001
    118  N          8.1850  -32.9830   44.2290 N.am  271  SER271     -0.1938
    119  CA         8.6930  -34.2980   43.8670 C.3   271  SER271      0.2055
    120  C          7.8280  -35.4400   44.3510 C.2   271  SER271      0.2643
    121  O          8.1510  -36.5980   44.0610 O.2   271  SER271     -0.2714
    122  CB        10.1380  -34.4900   44.3380 C.3   271  SER271      0.2130
    123  OG        10.2320  -34.4430   45.7340 O.3   271  SER271     -0.2179
    124  N          6.7610  -35.1560   45.0950 N.am  272  GLY272     -0.1954
    125  CA         5.8930  -36.1940   45.6190 C.3   272  GLY272      0.1869
    126  C          6.6210  -37.3090   46.3290 C.2   272  GLY272      0.2309
    127  O          7.3400  -37.0930   47.3150 O.2   272  GLY272     -0.2863
    128  N         10.9690  -27.5100   44.9510 N.3   300  SER300     -0.1202
    129  CA        10.1830  -27.1890   46.1500 C.3   300  SER300      0.2020
    130  C          9.9080  -28.5340   46.7910 C.2   300  SER300      0.2619
    131  O          8.8740  -29.1470   46.5470 O.2   300  SER300     -0.2717
    132  CB         8.8830  -26.4160   45.8320 C.3   300  SER300      0.2103
    133  OG         8.1850  -26.1520   47.0360 O.3   300  SER300     -0.2182
    134  N         10.8710  -29.0030   47.5770 N.am  301  TYR301     -0.1961
    135  CA        10.9320  -30.3990   47.9910 C.3   301  TYR301      0.1771
    136  C         10.6620  -30.5570   49.4790 C.2   301  TYR301      0.2620
    137  O         11.1650  -29.7820   50.3080 O.2   301  TYR301     -0.2715
    138  CB        12.3060  -31.0120   47.6640 C.3   301  TYR301      0.0574
    139  CG        12.5880  -31.3030   46.1950 C.ar  301  TYR301     -0.0198
    140  CD1       11.6110  -31.1490   45.2100 C.ar  301  TYR301     -0.0009
    141  CD2       13.8540  -31.7310   45.7920 C.ar  301  TYR301     -0.0009
    142  CE1       11.8820  -31.4310   43.8760 C.ar  301  TYR301      0.0417
    143  CE2       14.1330  -32.0210   44.4540 C.ar  301  TYR301      0.0417
    144  CZ        13.1490  -31.8650   43.5100 C.ar  301  TYR301      0.1957
    145  OH        13.4190  -32.1370   42.2040 O.3   301  TYR301     -0.2866
    146  N          9.9240  -31.6200   49.8110 N.am  302  GLY302     -0.1940
    147  CA         9.7130  -32.0050   51.1850 C.3   302  GLY302      0.2014
    148  C         10.4900  -33.2660   51.4850 C.2   302  GLY302      0.2638
    149  O         11.6460  -33.2090   51.9090 O.2   302  GLY302     -0.2714
    150  N          9.8890  -34.4250   51.2010 N.am  303  ARG303     -0.1977
    151  CA        10.5710  -35.6760   51.4960 C.3   303  ARG303      0.1597
    152  C         11.9010  -35.7780   50.7620 C.2   303  ARG303      0.2287
    153  O         12.8280  -36.4310   51.2560 O.2   303  ARG303     -0.2864
    154  CB         9.6600  -36.8600   51.1640 C.3   303  ARG303      0.0334
    155  CG         8.7440  -37.2090   52.3660 C.3   303  ARG303      0.0492
    156  CD         7.6830  -38.2210   52.0010 C.3   303  ARG303      0.2205
    157  NE         6.7520  -37.6750   51.0170 N.pl3 303  ARG303     -0.0865
    158  CZ         5.8860  -38.4060   50.3230 C.cat 303  ARG303      0.5346
    159  NH1        5.8350  -39.7240   50.5020 N.pl3 303  ARG303      0.1354
    160  NH2        5.0850  -37.8260   49.4340 N.pl3 303  ARG303      0.1354
@<TRIPOS>BOND
     1    94    95    2
     2    94    93    1
     3   101   102    1
     4   103   104    2
     5   103   102    1
     6    93    92    1
     7    93    96    1
     8   102   105    1
     9   113   112    2
    10    85    84    1
    11    85    86    2
    12   145   144    1
    13    97    96    1
    14    97    98    1
    15   117   115    1
    16   110   111    1
    17   115   116    1
    18   115   114    1
    19    84    83    1
    20    84    87    1
    21   105   106    1
    22   112   111    1
    23   112   118   am
    24   144   142   ar
    25   144   143   ar
    26   111   114    1
    27   106   107    1
    28   100    98   ar
    29    98    99   ar
    30   119   118    1
    31   119   122    1
    32   119   120    1
    33   142   140   ar
    34    88    87    1
    35    88    89    1
    36   121   120    2
    37   122   123    1
    38   120   124   am
    39   143   141   ar
    40   128   129    1
    41   124   125    1
    42   140   139   ar
    43   107   108    1
    44    89    91   ar
    45    89    90   ar
    46   125   126    1
    47   141   139   ar
    48   108   109    1
    49   132   129    1
    50   132   133    1
    51    74    73    1
    52    74    75    2
    53   129   130    1
    54   139   138    1
    55   126   127    2
    56   131   130    2
    57    73    72    1
    58    73    76    1
    59    77    76    1
    60    77    78    1
    61   130   134   am
    62    82    80    1
    63    79    80    2
    64    79    78    1
    65    80    81    1
    66   134   135    1
    67   138   135    1
    68   135   136    1
    69    68    69    1
    70    68    67    1
    71    64    65    1
    72    64    67    1
    73    64    63    1
    74    69    70    1
    75    65    66    2
    76    70    71    1
    77   160   158    1
    78   136   146   am
    79   136   137    2
    80   146   147    1
    81    62    60   ar
    82   158   159    1
    83   158   157    2
    84    59    60    1
    85    59    56    1
    86     5     2    1
    87    60    61   ar
    88   152   153    2
    89   152   151    1
    90   157   156    1
    91   154   151    1
    92   154   155    1
    93   147   148    1
    94   150   148   am
    95   150   151    1
    96     1     2    1
    97   148   149    2
    98     2     3    1
    99    56    55    1
   100    56    57    1
   101   156   155    1
   102    13    11   ar
   103    12    11   ar
   104    51    50    1
   105    51    52    1
   106    57    58    2
   107     3     4    2
   108    11    10    1
   109    47    50    1
   110    47    48    1
   111    47    46    1
   112    52    53    1
   113    48    49    2
   114    54    53    1
   115    45    43    1
   116    10     7    1
   117    44    43    1
   118    43    42    2
   119     6     7    1
   120    22    20   ar
   121     7     8    1
   122    34    33    1
   123     9     8    2
   124    19    20    1
   125    19    18    1
   126     8    14   am
   127    20    21   ar
   128    42    41    1
   129    14    15    1
   130    15    18    1
   131    15    16    1
   132    33    30    1
   133    41    40    1
   134    23    16   am
   135    23    24    1
   136    16    17    2
   137    30    31    1
   138    30    29    1
   139    40    39    1
   140    28    27    1
   141    32    31    2
   142    27    24    1
   143    24    25    1
   144    39    36    1
   145    35    36    1
   146    36    37    1
   147    26    25    2
   148    37    38    2
