@<TRIPOS>MOLECULE
tmp/5tlfB01.pdb
 194 182 0 0 0
SMALL
GASTEIGER

@<TRIPOS>ATOM
      1  N         18.4100    7.4200   39.9820 N.3    39  MET39      -0.1245
      2  CA        17.9940    6.2740   39.1850 C.3    39  MET39       0.1570
      3  C         17.2260    5.2760   40.0290 C.2    39  MET39       0.2261
      4  O         16.2560    4.6850   39.5630 O.2    39  MET39      -0.2867
      5  CB        19.1990    5.5960   38.5350 C.3    39  MET39       0.0387
      6  CG        19.6380    6.2430   37.2330 C.3    39  MET39       0.0595
      7  SD        18.3150    6.3180   36.0060 S.3    39  MET39      -0.1393
      8  CE        17.7420    8.0070   36.2060 C.3    39  MET39       0.0692
      9  N         13.7320    6.4420   40.1930 N.3    42  LEU42      -0.1231
     10  CA        13.0050    6.2270   38.9490 C.3    42  LEU42       0.1693
     11  C         12.7120    4.7480   38.7010 C.2    42  LEU42       0.2592
     12  O         11.6160    4.4010   38.2590 O.2    42  LEU42      -0.2718
     13  CB        13.7790    6.8190   37.7670 C.3    42  LEU42       0.0284
     14  CG        13.4290    8.2630   37.3930 C.3    42  LEU42       0.0019
     15  CD1       13.6560    9.2200   38.5530 C.3    42  LEU42       0.0001
     16  CD2       14.2140    8.7100   36.1710 C.3    42  LEU42       0.0001
     17  N         13.6840    3.8830   38.9880 N.am   43  THR43      -0.1953
     18  CA        13.5020    2.4430   38.7970 C.3    43  THR43       0.1897
     19  C         12.4540    1.9020   39.7550 C.2    43  THR43       0.2313
     20  O         11.5540    1.1690   39.3490 O.2    43  THR43      -0.2863
     21  CB        14.8120    1.6510   38.9960 C.3    43  THR43       0.1794
     22  OG1       15.3120    1.8710   40.3190 O.3    43  THR43      -0.2208
     23  CG2       15.8590    2.0750   37.9860 C.3    43  THR43       0.0378
     24  N         10.0940    3.5990   41.2010 N.3    45  LEU45      -0.1231
     25  CA         8.8090    4.1790   40.8300 C.3    45  LEU45       0.1693
     26  C          8.1890    3.4350   39.6540 C.2    45  LEU45       0.2591
     27  O          7.0040    3.1030   39.6760 O.2    45  LEU45      -0.2718
     28  CB         8.9650    5.6650   40.4920 C.3    45  LEU45       0.0284
     29  CG         7.7400    6.3940   39.9320 C.3    45  LEU45       0.0019
     30  CD1        6.5590    6.3260   40.8940 C.3    45  LEU45       0.0001
     31  CD2        8.0890    7.8390   39.6080 C.3    45  LEU45       0.0001
     32  N          9.0000    3.1680   38.6340 N.am   46  ALA46      -0.1980
     33  CA         8.5350    2.4690   37.4430 C.3    46  ALA46       0.1597
     34  C          8.0730    1.0540   37.7780 C.2    46  ALA46       0.2287
     35  O          7.0540    0.5860   37.2700 O.2    46  ALA46      -0.2864
     36  CB         9.6340    2.4330   36.3890 C.3    46  ALA46       0.0319
     37  N          4.7270    1.1320   39.2220 N.3    49  GLU49      -0.1245
     38  CA         3.7690    1.5110   38.1890 C.3    49  GLU49       0.1567
     39  C          3.3940    0.3340   37.2950 C.2    49  GLU49       0.2260
     40  O          2.2680    0.2520   36.8030 O.2    49  GLU49      -0.2867
     41  CB         4.3230    2.6450   37.3290 C.3    49  GLU49       0.0388
     42  CG         4.3240    4.0040   38.0000 C.3    49  GLU49       0.1160
     43  CD         4.7360    5.1090   37.0440 C.2    49  GLU49       0.3649
     44  OE1        5.9490    5.2570   36.7980 O.co2  49  GLU49      -0.2457
     45  OE2        3.8460    5.8200   36.5310 O.co2  49  GLU49      -0.2457
     46  N          5.4410   -1.6360   27.3940 N.3    79  TRP79      -0.1227
     47  CA         5.4330   -1.1430   28.7800 C.3    79  TRP79       0.1737
     48  C          6.1540    0.2000   28.9690 C.2    79  TRP79       0.2595
     49  O          5.6320    1.0870   29.6460 O.2    79  TRP79      -0.2718
     50  CB         6.0280   -2.1850   29.7400 C.3    79  TRP79       0.0564
     51  CG         7.4990   -2.4720   29.5760 C.ar   79  TRP79       0.0003
     52  CD1        8.0660   -3.3870   28.7380 C.ar   79  TRP79       0.0946
     53  CD2        8.5820   -1.8640   30.2950 C.ar   79  TRP79       0.0152
     54  NE1        9.4330   -3.3760   28.8780 N.ar   79  TRP79      -0.2442
     55  CE2        9.7750   -2.4490   29.8260 C.ar   79  TRP79       0.0810
     56  CE3        8.6580   -0.8740   31.2800 C.ar   79  TRP79       0.0012
     57  CZ2       11.0300   -2.0780   30.3100 C.ar   79  TRP79       0.0191
     58  CZ3        9.9070   -0.5080   31.7590 C.ar   79  TRP79       0.0001
     59  CH2       11.0740   -1.1090   31.2740 C.ar   79  TRP79       0.0015
     60  N          7.3300    0.3560   28.3640 N.am   80  LEU80      -0.1980
     61  CA         8.0950    1.5910   28.5180 C.3    80  LEU80       0.1596
     62  C          7.4490    2.7400   27.7470 C.2    80  LEU80       0.2287
     63  O          7.5120    3.8920   28.1740 O.2    80  LEU80      -0.2864
     64  CB         9.5450    1.3970   28.0600 C.3    80  LEU80       0.0297
     65  CG        10.5030    2.5490   28.3850 C.3    80  LEU80       0.0022
     66  CD1       10.5280    2.8140   29.8840 C.3    80  LEU80       0.0001
     67  CD2       11.9090    2.2720   27.8620 C.3    80  LEU80       0.0001
     68  N          4.6160    3.8790   30.0630 N.3    83  LEU83      -0.1231
     69  CA         5.1760    4.6700   31.1560 C.3    83  LEU83       0.1693
     70  C          5.5400    6.0760   30.6830 C.2    83  LEU83       0.2591
     71  O          5.2080    7.0660   31.3340 O.2    83  LEU83      -0.2718
     72  CB         6.4100    3.9890   31.7500 C.3    83  LEU83       0.0284
     73  CG         6.1680    2.7840   32.6600 C.3    83  LEU83       0.0019
     74  CD1        7.4820    2.2690   33.2220 C.3    83  LEU83       0.0001
     75  CD2        5.2050    3.1450   33.7810 C.3    83  LEU83       0.0001
     76  N          6.2100    6.1550   29.5380 N.am   84  MET84      -0.1979
     77  CA         6.6970    7.4300   29.0200 C.3    84  MET84       0.1605
     78  C          5.5730    8.3790   28.6110 C.2    84  MET84       0.2287
     79  O          5.6310    9.5670   28.9210 O.2    84  MET84      -0.2864
     80  CB         7.6380    7.1960   27.8370 C.3    84  MET84       0.0413
     81  CG         9.0190    6.7150   28.2520 C.3    84  MET84       0.0598
     82  SD        10.1070    6.4030   26.8490 S.3    84  MET84      -0.1393
     83  CE        11.6970    6.3150   27.6730 C.3    84  MET84       0.0692
     84  N          4.1930    9.6880   31.7450 N.3    87  LEU87      -0.1245
     85  CA         5.0610   10.7470   32.2570 C.3    87  LEU87       0.1561
     86  C          4.8340   12.0670   31.5210 C.2    87  LEU87       0.2260
     87  O          4.6780   13.1170   32.1430 O.2    87  LEU87      -0.2867
     88  CB         6.5320   10.3350   32.1410 C.3    87  LEU87       0.0270
     89  CG         7.5750   11.4070   32.4710 C.3    87  LEU87       0.0019
     90  CD1        7.4440   11.8630   33.9190 C.3    87  LEU87       0.0001
     91  CD2        8.9800   10.9040   32.1930 C.3    87  LEU87       0.0001
     92  N          1.4230   13.6530   32.4800 N.3    90  ARG90      -0.1245
     93  CA         1.4480   14.2800   33.8020 C.3    90  ARG90       0.1563
     94  C          2.2950   15.5520   33.8020 C.2    90  ARG90       0.2260
     95  O          2.1090   16.4270   34.6450 O.2    90  ARG90      -0.2867
     96  CB         1.9830   13.3080   34.8630 C.3    90  ARG90       0.0307
     97  CG         1.1970   12.0120   34.9900 C.3    90  ARG90       0.0489
     98  CD         1.6140   11.2200   36.2260 C.3    90  ARG90       0.2205
     99  NE         3.0440   10.9080   36.2620 N.pl3  90  ARG90      -0.0865
    100  CZ         3.5860    9.7930   35.7770 C.cat  90  ARG90       0.5346
    101  NH1        2.8250    8.8730   35.1990 N.pl3  90  ARG90       0.1354
    102  NH2        4.8920    9.6000   35.8690 N.pl3  90  ARG90       0.1354
    103  N          7.6440   13.0100   37.3540 N.3   100  PHE100     -0.1241
    104  CA         7.6770   11.5760   37.6270 C.3   100  PHE100      0.1605
    105  C          6.7070   11.2330   38.7510 C.2   100  PHE100      0.2264
    106  O          6.0860   10.1700   38.7600 O.2   100  PHE100     -0.2867
    107  CB         9.0910   11.1260   37.9940 C.3   100  PHE100      0.0534
    108  CG        10.0430   11.1140   36.8330 C.ar  100  PHE100     -0.0203
    109  CD1       10.1730    9.9860   36.0400 C.ar  100  PHE100     -0.0042
    110  CD2       10.8100   12.2290   36.5360 C.ar  100  PHE100     -0.0042
    111  CE1       11.0530    9.9700   34.9710 C.ar  100  PHE100     -0.0003
    112  CE2       11.6900   12.2200   35.4690 C.ar  100  PHE100     -0.0003
    113  CZ        11.8120   11.0900   34.6850 C.ar  100  PHE100     -0.0000
    114  N         21.3900   10.7370   29.9860 N.3   114  MET114     -0.1245
    115  CA        19.9840   10.6510   29.7980 C.3   114  MET114      0.1570
    116  C         19.3410   11.9640   29.4180 C.2   114  MET114      0.2261
    117  O         18.1490   12.0160   29.2280 O.2   114  MET114     -0.2867
    118  CB        19.4020   10.1880   31.0840 C.3   114  MET114      0.0387
    119  CG        17.9300   10.0090   31.0250 C.3   114  MET114      0.0595
    120  SD        17.5140    9.7970   32.7260 S.3   114  MET114     -0.1393
    121  CE        18.0970    8.1210   32.9640 C.3   114  MET114      0.0692
    122  N         17.2250   11.9080   26.2240 N.3   117  ILE117     -0.1231
    123  CA        15.9050   11.3100   26.3680 C.3   117  ILE117      0.1692
    124  C         14.9570   12.2750   27.0790 C.2   117  ILE117      0.2592
    125  O         13.7870   12.3940   26.7130 O.2   117  ILE117     -0.2718
    126  CB        15.9750    9.9720   27.1310 C.3   117  ILE117      0.0266
    127  CG1       16.8590    8.9840   26.3660 C.3   117  ILE117      0.0019
    128  CG2       14.5830    9.3930   27.3380 C.3   117  ILE117      0.0020
    129  CD1       16.8960    7.5940   26.9620 C.3   117  ILE117      0.0001
    130  N         15.4810   12.9720   28.0850 N.am  118  PHE118     -0.1976
    131  CA        14.7300   13.9990   28.7990 C.3   118  PHE118      0.1639
    132  C         14.1810   15.0610   27.8540 C.2   118  PHE118      0.2290
    133  O         12.9930   15.3810   27.8940 O.2   118  PHE118     -0.2864
    134  CB        15.6100   14.6590   29.8620 C.3   118  PHE118      0.0560
    135  CG        15.3750   14.1410   31.2490 C.ar  118  PHE118     -0.0200
    136  CD1       15.1090   15.0130   32.2920 C.ar  118  PHE118     -0.0042
    137  CD2       15.4050   12.7810   31.5090 C.ar  118  PHE118     -0.0042
    138  CE1       14.8890   14.5380   33.5700 C.ar  118  PHE118     -0.0003
    139  CE2       15.1840   12.2980   32.7840 C.ar  118  PHE118     -0.0003
    140  CZ        14.9250   13.1770   33.8170 C.ar  118  PHE118     -0.0000
    141  N         11.3740   13.8030   25.8460 N.3   121  LEU121     -0.1245
    142  CA        10.1760   13.7270   26.6740 C.3   121  LEU121      0.1561
    143  C          9.5970   15.1230   26.9040 C.2   121  LEU121      0.2260
    144  O          8.3790   15.3020   26.9330 O.2   121  LEU121     -0.2867
    145  CB        10.4830   13.0470   28.0130 C.3   121  LEU121      0.0270
    146  CG        10.7830   11.5440   27.9720 C.3   121  LEU121      0.0019
    147  CD1       11.3890   11.0730   29.2880 C.3   121  LEU121      0.0001
    148  CD2        9.5250   10.7430   27.6470 C.3   121  LEU121      0.0001
    149  N         15.3880    4.4460   25.2720 N.3   210  GLY210     -0.1225
    150  CA        15.3580    4.1710   26.6980 C.3   210  GLY210      0.1811
    151  C         15.8170    2.7600   27.0120 C.2   210  GLY210      0.2280
    152  O         16.5960    2.5420   27.9400 O.2   210  GLY210     -0.2866
    153  N         19.5230    2.4350   26.9730 N.3   213  HIS213     -0.1226
    154  CA        20.1370    3.0030   28.1660 C.3   213  HIS213      0.1752
    155  C         19.9190    2.1090   29.3850 C.2   213  HIS213      0.2595
    156  O         20.7490    2.0730   30.2940 O.2   213  HIS213     -0.2718
    157  CB        19.5840    4.4060   28.4300 C.3   213  HIS213      0.0759
    158  CG        20.3740    5.1870   29.4340 C.ar  213  HIS213      0.0818
    159  ND1       20.0420    5.2340   30.7710 N.ar  213  HIS213     -0.2268
    160  CD2       21.4840    5.9500   29.2940 C.ar  213  HIS213      0.1154
    161  CE1       20.9130    5.9940   31.4110 C.ar  213  HIS213      0.1986
    162  NE2       21.7970    6.4400   30.5380 N.ar  213  HIS213     -0.2212
    163  N         18.7990    1.3930   29.3980 N.am  214  LEU214     -0.1980
    164  CA        18.4880    0.4660   30.4820 C.3   214  LEU214      0.1596
    165  C         19.4200   -0.7390   30.4730 C.2   214  LEU214      0.2287
    166  O         19.8090   -1.2410   31.5280 O.2   214  LEU214     -0.2864
    167  CB        17.0350   -0.0020   30.3890 C.3   214  LEU214      0.0297
    168  CG        16.0330    0.6410   31.3480 C.3   214  LEU214      0.0022
    169  CD1       16.1050    2.1540   31.2650 C.3   214  LEU214      0.0001
    170  CD2       14.6200    0.1530   31.0530 C.3   214  LEU214      0.0001
    171  N         22.7890    0.2780   32.0010 N.3   217  MET217     -0.1245
    172  CA        22.6460    0.4710   33.4430 C.3   217  MET217      0.1570
    173  C         22.6050   -0.8630   34.1780 C.2   217  MET217      0.2261
    174  O         23.1300   -0.9890   35.2850 O.2   217  MET217     -0.2867
    175  CB        21.3820    1.2710   33.7580 C.3   217  MET217      0.0387
    176  CG        21.5270    2.7730   33.6030 C.3   217  MET217      0.0595
    177  SD        19.9350    3.6110   33.7210 S.3   217  MET217     -0.1393
    178  CE        19.2370    2.8220   35.1710 C.3   217  MET217      0.0692
    179  N         17.8620   -2.9300   39.7230 N.3   223  LEU223     -0.1245
    180  CA        16.6550   -3.2320   38.9650 C.3   223  LEU223      0.1561
    181  C         15.8580   -4.3640   39.6000 C.2   223  LEU223      0.2260
    182  O         16.4260   -5.3320   40.1110 O.2   223  LEU223     -0.2867
    183  CB        17.0140   -3.5870   37.5210 C.3   223  LEU223      0.0270
    184  CG        17.7580   -2.5030   36.7370 C.3   223  LEU223      0.0019
    185  CD1       18.1950   -3.0290   35.3810 C.3   223  LEU223      0.0001
    186  CD2       16.8890   -1.2670   36.5790 C.3   223  LEU223      0.0001
    187  N         11.2530   -5.7580   36.1530 N.3   227  LEU227     -0.1245
    188  CA        11.8940   -4.8810   35.1780 C.3   227  LEU227      0.1561
    189  C         12.9660   -5.6170   34.3820 C.2   227  LEU227      0.2260
    190  O         13.1000   -5.4110   33.1750 O.2   227  LEU227     -0.2867
    191  CB        12.5060   -3.6620   35.8720 C.3   227  LEU227      0.0270
    192  CG        11.5580   -2.5110   36.2080 C.3   227  LEU227      0.0019
    193  CD1       12.2730   -1.4590   37.0440 C.3   227  LEU227      0.0001
    194  CD2       11.0060   -1.8980   34.9340 C.3   227  LEU227      0.0001
@<TRIPOS>BOND
     1   149   150    1
     2   141   142    1
     3   122   123    1
     4   127   129    1
     5   127   126    1
     6   123   124    1
     7   123   126    1
     8   142   143    1
     9   142   145    1
    10   150   151    1
    11   125   124    2
    12    82    83    1
    13    82    81    1
    14   143   144    2
    15   153   154    1
    16   151   152    2
    17   124   130   am
    18   126   128    1
    19    46    47    1
    20   148   146    1
    21    62    63    2
    22    62    61    1
    23    80    81    1
    24    80    77    1
    25   132   133    2
    26   132   131    1
    27    67    65    1
    28   146   145    1
    29   146   147    1
    30    64    65    1
    31    64    61    1
    32   130   131    1
    33   154   157    1
    34   154   155    1
    35    60    61    1
    36    60    48   am
    37    65    66    1
    38   157   158    1
    39    78    79    2
    40    78    77    1
    41    52    54   ar
    42    52    51   ar
    43    47    48    1
    44    47    50    1
    45   131   134    1
    46    54    55   ar
    47    48    49    2
    48    77    76    1
    49   117   116    2
    50   160   158   ar
    51   160   162   ar
    52   155   163   am
    53   155   156    2
    54   163   164    1
    55   116   115    1
    56   158   159   ar
    57    76    70   am
    58    51    50    1
    59    51    53   ar
    60   115   114    1
    61   115   118    1
    62    55    53   ar
    63    55    57   ar
    64   134   135    1
    65    68    69    1
    66    53    56   ar
    67    57    59   ar
    68   167   164    1
    69   167   168    1
    70   165   164    1
    71   165   166    2
    72   162   161   ar
    73    70    69    1
    74    70    71    2
    75   159   161   ar
    76   119   118    1
    77   119   120    1
    78   170   168    1
    79    69    72    1
    80   135   137   ar
    81   135   136   ar
    82   169   168    1
    83    59    58   ar
    84    56    58   ar
    85   137   139   ar
    86    86    87    2
    87    86    85    1
    88    84    85    1
    89    72    73    1
    90   171   172    1
    91    88    85    1
    92    88    89    1
    93    91    89    1
    94   136   138   ar
    95    89    90    1
    96    92    93    1
    97    73    74    1
    98    73    75    1
    99   120   121    1
   100   139   140   ar
   101   190   189    2
   102   172   175    1
   103   172   173    1
   104   138   140   ar
   105   176   177    1
   106   176   175    1
   107   177   178    1
   108    93    94    1
   109    93    96    1
   110    94    95    2
   111   173   174    2
   112   189   188    1
   113   113   111   ar
   114   113   112   ar
   115    96    97    1
   116   194   192    1
   117   111   109   ar
   118    97    98    1
   119   188   191    1
   120   188   187    1
   121   101   100    1
   122   185   184    1
   123   112   110   ar
   124   100   102    1
   125   100    99    2
   126   191   192    1
   127     7     8    1
   128     7     6    1
   129   109   108   ar
   130    16    14    1
   131   192   193    1
   132    98    99    1
   133    36    33    1
   134    45    43   ar
   135   110   108   ar
   136   186   184    1
   137   184   183    1
   138    44    43   ar
   139    40    39    2
   140   108   107    1
   141    43    42    1
   142     6     5    1
   143    35    34    2
   144    39    38    1
   145    41    42    1
   146    41    38    1
   147   103   104    1
   148    14    13    1
   149    14    15    1
   150    33    34    1
   151    33    32    1
   152   183   180    1
   153   104   107    1
   154   104   105    1
   155    13    10    1
   156    23    21    1
   157    38    37    1
   158    12    11    2
   159     5     2    1
   160    32    26   am
   161    11    10    1
   162    11    17   am
   163   105   106    2
   164    18    17    1
   165    18    21    1
   166    18    19    1
   167    10     9    1
   168   180   181    1
   169   180   179    1
   170    21    22    1
   171     2     1    1
   172     2     3    1
   173    20    19    2
   174     4     3    2
   175   181   182    2
   176    31    29    1
   177    26    27    2
   178    26    25    1
   179    29    28    1
   180    29    30    1
   181    28    25    1
   182    25    24    1
