@<TRIPOS>MOLECULE
tmp/5tlgA01.pdb
 178 168 0 0 0
SMALL
GASTEIGER

@<TRIPOS>ATOM
      1  N         25.7790   -8.2420    3.8630 N.3    34  MET34      -0.1245
      2  CA        25.8570   -6.8580    4.3140 C.3    34  MET34       0.1570
      3  C         26.4990   -5.9650    3.2590 C.2    34  MET34       0.2261
      4  O         26.1630   -4.7870    3.1460 O.2    34  MET34      -0.2867
      5  CB        26.6380   -6.7630    5.6260 C.3    34  MET34       0.0387
      6  CG        25.9260   -7.3790    6.8170 C.3    34  MET34       0.0595
      7  SD        24.3280   -6.6060    7.1310 S.3    34  MET34      -0.1393
      8  CE        24.8130   -4.9000    7.3750 C.3    34  MET34       0.0692
      9  N         23.7970   -5.1190    0.6040 N.3    37  LEU37      -0.1231
     10  CA        22.7880   -4.2300    1.1690 C.3    37  LEU37       0.1693
     11  C         23.3270   -2.8210    1.4020 C.2    37  LEU37       0.2592
     12  O         22.6490   -1.8350    1.1150 O.2    37  LEU37      -0.2718
     13  CB        22.2480   -4.8030    2.4800 C.3    37  LEU37       0.0284
     14  CG        21.5660   -6.1700    2.3980 C.3    37  LEU37       0.0019
     15  CD1       21.0210   -6.5800    3.7590 C.3    37  LEU37       0.0001
     16  CD2       20.4610   -6.1590    1.3550 C.3    37  LEU37       0.0001
     17  N         24.5450   -2.7350    1.9310 N.am   38  THR38      -0.1953
     18  CA        25.1820   -1.4470    2.1840 C.3    38  THR38       0.1897
     19  C         25.3810   -0.6800    0.8820 C.2    38  THR38       0.2313
     20  O         25.0330    0.4970    0.7880 O.2    38  THR38      -0.2863
     21  CB        26.5420   -1.6130    2.8900 C.3    38  THR38       0.1794
     22  OG1       26.3390   -2.1680    4.1950 O.3    38  THR38      -0.2208
     23  CG2       27.2420   -0.2710    3.0230 C.3    38  THR38       0.0378
     24  N         23.7940   -1.1150   -1.9450 N.3    40  LEU40      -0.1231
     25  CA        22.4820   -0.7890   -2.4890 C.3    40  LEU40       0.1693
     26  C         21.8470    0.4010   -1.7750 C.2    40  LEU40       0.2591
     27  O         21.4140    1.3590   -2.4140 O.2    40  LEU40      -0.2718
     28  CB        21.5540   -2.0030   -2.4010 C.3    40  LEU40       0.0284
     29  CG        20.0890   -1.7670   -2.7750 C.3    40  LEU40       0.0019
     30  CD1       19.9630   -1.3280   -4.2260 C.3    40  LEU40       0.0001
     31  CD2       19.2620   -3.0180   -2.5100 C.3    40  LEU40       0.0001
     32  N         21.7980    0.3340   -0.4470 N.am   41  ALA41      -0.1980
     33  CA        21.1790    1.3850    0.3540 C.3    41  ALA41       0.1597
     34  C         21.9130    2.7140    0.2050 C.2    41  ALA41       0.2287
     35  O         21.2980    3.7800    0.2530 O.2    41  ALA41      -0.2864
     36  CB        21.1270    0.9730    1.8160 C.3    41  ALA41       0.0319
     37  N         20.7530    4.2110   -2.8980 N.3    44  GLU44      -0.1245
     38  CA        19.3540    4.5790   -2.6980 C.3    44  GLU44       0.1567
     39  C         19.2260    5.9070   -1.9610 C.2    44  GLU44       0.2260
     40  O         18.3220    6.6960   -2.2410 O.2    44  GLU44      -0.2867
     41  CB        18.6100    3.4920   -1.9210 C.3    44  GLU44       0.0388
     42  CG        18.2530    2.2590   -2.7340 C.3    44  GLU44       0.1160
     43  CD        17.3180    1.3280   -1.9850 C.2    44  GLU44       0.3649
     44  OE1       17.8060    0.5390   -1.1490 O.co2  44  GLU44      -0.2457
     45  OE2       16.0950    1.3890   -2.2290 O.co2  44  GLU44      -0.2457
     46  N         15.5410    8.4880    7.3510 N.3    74  TRP74      -0.1227
     47  CA        16.1190    7.8440    6.1670 C.3    74  TRP74       0.1737
     48  C         15.9300    6.3260    6.1450 C.2    74  TRP74       0.2595
     49  O         15.6780    5.7480    5.0880 O.2    74  TRP74      -0.2718
     50  CB        17.6120    8.1760    6.0440 C.3    74  TRP74       0.0564
     51  CG        18.4710    7.5660    7.1120 C.ar   74  TRP74       0.0003
     52  CD1       18.7520    8.0940    8.3370 C.ar   74  TRP74       0.0946
     53  CD2       19.1670    6.3150    7.0440 C.ar   74  TRP74       0.0152
     54  NE1       19.5770    7.2470    9.0390 N.ar   74  TRP74      -0.2442
     55  CE2       19.8460    6.1480    8.2670 C.ar   74  TRP74       0.0810
     56  CE3       19.2790    5.3180    6.0690 C.ar   74  TRP74       0.0012
     57  CZ2       20.6260    5.0270    8.5420 C.ar   74  TRP74       0.0191
     58  CZ3       20.0550    4.2040    6.3440 C.ar   74  TRP74       0.0001
     59  CH2       20.7170    4.0690    7.5710 C.ar   74  TRP74       0.0015
     60  N         16.0440    5.6790    7.3000 N.am   75  LEU75      -0.1980
     61  CA        15.8860    4.2310    7.3510 C.3    75  LEU75       0.1596
     62  C         14.4100    3.8530    7.2610 C.2    75  LEU75       0.2287
     63  O         14.0620    2.8170    6.6930 O.2    75  LEU75      -0.2864
     64  CB        16.5110    3.6560    8.6230 C.3    75  LEU75       0.0297
     65  CG        16.6250    2.1290    8.6490 C.3    75  LEU75       0.0022
     66  CD1       17.2520    1.6260    7.3590 C.3    75  LEU75       0.0001
     67  CD2       17.4340    1.6670    9.8500 C.3    75  LEU75       0.0001
     68  N         13.6450    4.0830    3.5640 N.3    78  LEU78      -0.1231
     69  CA        14.2020    2.9220    2.8780 C.3    78  LEU78       0.1693
     70  C         13.3590    1.6760    3.1190 C.2    78  LEU78       0.2591
     71  O         13.0980    0.9030    2.1970 O.2    78  LEU78      -0.2718
     72  CB        15.6420    2.6630    3.3290 C.3    78  LEU78       0.0284
     73  CG        16.7360    3.5750    2.7730 C.3    78  LEU78       0.0019
     74  CD1       18.1020    3.1650    3.3020 C.3    78  LEU78       0.0001
     75  CD2       16.7190    3.5580    1.2520 C.3    78  LEU78       0.0001
     76  N         12.9320    1.4880    4.3630 N.am   79  MET79      -0.1979
     77  CA        12.1960    0.2880    4.7460 C.3    79  MET79       0.1605
     78  C         10.7860    0.2480    4.1640 C.2    79  MET79       0.2287
     79  O         10.3500   -0.7910    3.6730 O.2    79  MET79      -0.2864
     80  CB        12.1380    0.1650    6.2700 C.3    79  MET79       0.0413
     81  CG        13.4410   -0.3280    6.8850 C.3    79  MET79       0.0598
     82  SD        13.3700   -0.5230    8.6750 S.3    79  MET79      -0.1393
     83  CE        14.9700   -1.2630    8.9990 C.3    79  MET79       0.0692
     84  N         11.1130   -0.6740    0.6530 N.3    82  LEU82      -0.1245
     85  CA        11.3790   -2.1060    0.5550 C.3    82  LEU82       0.1561
     86  C         10.1020   -2.9210    0.7310 C.2    82  LEU82       0.2260
     87  O          9.8350   -3.8510   -0.0320 O.2    82  LEU82      -0.2867
     88  CB        12.4130   -2.5270    1.6010 C.3    82  LEU82       0.0270
     89  CG        12.6350   -4.0300    1.7900 C.3    82  LEU82       0.0019
     90  CD1       13.1590   -4.6650    0.5120 C.3    82  LEU82       0.0001
     91  CD2       13.5830   -4.2900    2.9490 C.3    82  LEU82       0.0001
     92  N          7.9350   -2.5540   -2.3710 N.3    85  ARG85      -0.1245
     93  CA         8.4460   -3.3060   -3.5130 C.3    85  ARG85       0.1563
     94  C          8.1590   -4.7960   -3.3700 C.2    85  ARG85       0.2260
     95  O          7.9570   -5.4970   -4.3600 O.2    85  ARG85      -0.2867
     96  CB         9.9520   -3.0850   -3.6810 C.3    85  ARG85       0.0307
     97  CG        10.3480   -1.6560   -4.0080 C.3    85  ARG85       0.0489
     98  CD        11.7780   -1.5820   -4.5220 C.3    85  ARG85       0.2205
     99  NE        12.7510   -2.0940   -3.5600 N.pl3  85  ARG85      -0.0865
    100  CZ        13.3820   -1.3420   -2.6630 C.cat  85  ARG85       0.5346
    101  NH1       13.1380   -0.0400   -2.5980 N.pl3  85  ARG85       0.1354
    102  NH2       14.2570   -1.8900   -1.8310 N.pl3  85  ARG85       0.1354
    103  N         14.7050   -6.3130   -2.2520 N.3    95  PHE95      -0.1241
    104  CA        15.6840   -5.2420   -2.0970 C.3    95  PHE95       0.1605
    105  C         16.0080   -4.6460   -3.4600 C.2    95  PHE95       0.2264
    106  O         16.1470   -3.4320   -3.6100 O.2    95  PHE95      -0.2867
    107  CB        16.9610   -5.7600   -1.4280 C.3    95  PHE95       0.0534
    108  CG        16.7800   -6.1500    0.0110 C.ar   95  PHE95      -0.0203
    109  CD1       17.0330   -5.2430    1.0260 C.ar   95  PHE95      -0.0042
    110  CD2       16.3630   -7.4270    0.3480 C.ar   95  PHE95      -0.0042
    111  CE1       16.8720   -5.6000    2.3510 C.ar   95  PHE95      -0.0003
    112  CE2       16.1990   -7.7910    1.6720 C.ar   95  PHE95      -0.0003
    113  CZ        16.4540   -6.8760    2.6740 C.ar   95  PHE95      -0.0000
    114  N         19.5550  -10.2130   12.1110 N.3   112  MET112     -0.1245
    115  CA        18.8560   -9.6580   10.9570 C.3   112  MET112      0.1570
    116  C         17.5050  -10.3330   10.7230 C.2   112  MET112      0.2261
    117  O         16.5580   -9.6950   10.2570 O.2   112  MET112     -0.2867
    118  CB        19.7300   -9.7760    9.7030 C.3   112  MET112      0.0387
    119  CG        19.0260   -9.3970    8.4110 C.3   112  MET112      0.0595
    120  SD        20.1530   -9.1630    7.0250 S.3   112  MET112     -0.1393
    121  CE        20.9700   -7.6500    7.5200 C.3   112  MET112      0.0692
    122  N         14.4950   -8.5900   12.0750 N.3   115  ILE115     -0.1231
    123  CA        14.1180   -7.4110   11.3040 C.3   115  ILE115      0.1692
    124  C         13.4220   -7.8170   10.0070 C.2   115  ILE115      0.2592
    125  O         12.4750   -7.1640    9.5680 O.2   115  ILE115     -0.2718
    126  CB        15.3460   -6.5380   10.9860 C.3   115  ILE115      0.0266
    127  CG1       16.0850   -6.1770   12.2770 C.3   115  ILE115      0.0019
    128  CG2       14.9370   -5.2820   10.2310 C.3   115  ILE115      0.0020
    129  CD1       17.3430   -5.3710   12.0550 C.3   115  ILE115      0.0001
    130  N         13.8970   -8.9050    9.4060 N.am  116  PHE116     -0.1976
    131  CA        13.2900   -9.4540    8.1980 C.3   116  PHE116      0.1639
    132  C         11.8270   -9.8220    8.4220 C.2   116  PHE116      0.2290
    133  O         10.9610   -9.4830    7.6140 O.2   116  PHE116     -0.2864
    134  CB        14.0690  -10.6840    7.7250 C.3   116  PHE116      0.0560
    135  CG        15.0570  -10.3950    6.6330 C.ar  116  PHE116     -0.0200
    136  CD1       15.1370  -11.2170    5.5220 C.ar  116  PHE116     -0.0042
    137  CD2       15.8980   -9.2980    6.7110 C.ar  116  PHE116     -0.0042
    138  CE1       16.0440  -10.9570    4.5130 C.ar  116  PHE116     -0.0003
    139  CE2       16.8060   -9.0310    5.7020 C.ar  116  PHE116     -0.0003
    140  CZ        16.8790   -9.8630    4.6030 C.ar  116  PHE116     -0.0000
    141  N          9.6810   -6.8550    8.6400 N.3   119  LEU119     -0.1245
    142  CA         9.5060   -6.2850    7.3090 C.3   119  LEU119      0.1561
    143  C          8.4980   -7.0900    6.4960 C.2   119  LEU119      0.2260
    144  O          7.6410   -6.5240    5.8160 O.2   119  LEU119     -0.2867
    145  CB        10.8460   -6.2200    6.5740 C.3   119  LEU119      0.0270
    146  CG        11.8400   -5.1660    7.0670 C.3   119  LEU119      0.0019
    147  CD1       13.2270   -5.4350    6.5100 C.3   119  LEU119      0.0001
    148  CD2       11.3700   -3.7700    6.6830 C.3   119  LEU119      0.0001
    149  N         16.6460   -1.6260   13.3660 N.3   202  GLY202     -0.1225
    150  CA        17.5860   -1.6870   12.2620 C.3   202  GLY202      0.1811
    151  C         18.7540   -0.7400   12.4600 C.2   202  GLY202      0.2280
    152  O         19.8730   -1.0220   12.0310 O.2   202  GLY202     -0.2866
    153  N         21.0540   -2.3980   14.8440 N.3   205  HIS205     -0.1226
    154  CA        21.6840   -3.5350   14.1850 C.3   205  HIS205      0.1752
    155  C         22.8000   -3.0760   13.2530 C.2   205  HIS205      0.2595
    156  O         23.8140   -3.7580   13.1020 O.2   205  HIS205     -0.2718
    157  CB        20.6500   -4.3520   13.4100 C.3   205  HIS205      0.0759
    158  CG        21.2050   -5.6020   12.7980 C.ar  205  HIS205      0.0818
    159  ND1       21.7360   -5.6350   11.5280 N.ar  205  HIS205     -0.2268
    160  CD2       21.3140   -6.8600   13.2860 C.ar  205  HIS205      0.1154
    161  CE1       22.1470   -6.8620   11.2570 C.ar  205  HIS205      0.1986
    162  NE2       21.9030   -7.6240   12.3070 N.ar  205  HIS205     -0.2212
    163  N         22.6060   -1.9210   12.6240 N.am  206  LEU206     -0.1980
    164  CA        23.6390   -1.3330   11.7790 C.3   206  LEU206      0.1596
    165  C         24.8380   -0.9180   12.6180 C.2   206  LEU206      0.2287
    166  O         25.9860   -1.1120   12.2170 O.2   206  LEU206     -0.2864
    167  CB        23.0920   -0.1310   11.0060 C.3   206  LEU206      0.0297
    168  CG        22.4730   -0.4360    9.6430 C.3   206  LEU206      0.0022
    169  CD1       21.9060    0.8280    9.0190 C.3   206  LEU206      0.0001
    170  CD2       23.5060   -1.0730    8.7250 C.3   206  LEU206      0.0001
    171  N         26.6700    6.7760    4.9840 N.3   221  LEU221     -0.1245
    172  CA        25.9070    5.9420    5.9040 C.3   221  LEU221      0.1561
    173  C         26.3570    6.1540    7.3450 C.2   221  LEU221      0.2260
    174  O         25.5390    6.1650    8.2650 O.2   221  LEU221     -0.2867
    175  CB        26.0370    4.4650    5.5290 C.3   221  LEU221      0.0270
    176  CG        24.9250    3.5590    6.0620 C.3   221  LEU221      0.0019
    177  CD1       23.6850    3.6550    5.1780 C.3   221  LEU221      0.0001
    178  CD2       25.4020    2.1210    6.1870 C.3   221  LEU221      0.0001
@<TRIPOS>BOND
     1    98    97    1
     2    98    99    1
     3    95    94    2
     4    30    29    1
     5    97    96    1
     6    96    93    1
     7   106   105    2
     8    99   100    2
     9    93    94    1
    10    93    92    1
    11   105   104    1
    12    37    38    1
    13    29    31    1
    14    29    28    1
    15    42    43    1
    16    42    41    1
    17    38    39    1
    18    38    41    1
    19   100   101    1
    20   100   102    1
    21    25    28    1
    22    25    24    1
    23    25    26    1
    24    27    26    2
    25   103   104    1
    26    40    39    2
    27    45    43   ar
    28   104   107    1
    29    43    44   ar
    30    26    32   am
    31   107   108    1
    32    32    33    1
    33    87    86    2
    34   108   110   ar
    35   108   109   ar
    36    34    35    2
    37    34    33    1
    38   110   112   ar
    39    33    36    1
    40    90    89    1
    41    85    84    1
    42    85    86    1
    43    85    88    1
    44     9    10    1
    45    20    19    2
    46    19    18    1
    47   109   111   ar
    48    12    11    2
    49    10    11    1
    50    10    13    1
    51    75    73    1
    52    16    14    1
    53    11    17   am
    54    88    89    1
    55   112   113   ar
    56    89    91    1
    57    17    18    1
    58    18    21    1
    59    71    70    2
    60   111   113   ar
    61    14    13    1
    62    14    15    1
    63    73    74    1
    64    73    72    1
    65    69    70    1
    66    69    72    1
    67    69    68    1
    68    21    23    1
    69    21    22    1
    70    70    76   am
    71     4     3    2
    72     3     2    1
    73    79    78    2
    74     1     2    1
    75    78    77    1
    76     2     5    1
    77    76    77    1
    78   138   140   ar
    79   138   136   ar
    80   140   139   ar
    81    77    80    1
    82   171   172    1
    83    49    48    2
    84   177   176    1
    85   136   135   ar
    86   175   172    1
    87   175   176    1
    88     5     6    1
    89   139   137   ar
    90   144   143    2
    91   172   173    1
    92    50    47    1
    93    50    51    1
    94   176   178    1
    95    56    58   ar
    96    56    53   ar
    97    48    47    1
    98    48    60   am
    99    47    46    1
   100    80    81    1
   101    58    59   ar
   102   143   142    1
   103   147   146    1
   104   145   146    1
   105   145   142    1
   106   135   137   ar
   107   135   134    1
   108   148   146    1
   109    63    62    2
   110     6     7    1
   111    81    82    1
   112   120   121    1
   113   120   119    1
   114    53    51   ar
   115    53    55   ar
   116    51    52   ar
   117     7     8    1
   118    62    61    1
   119    60    61    1
   120   142   141    1
   121   173   174    2
   122    61    64    1
   123    66    65    1
   124    59    57   ar
   125   133   132    2
   126   134   131    1
   127   131   132    1
   128   131   130    1
   129    55    57   ar
   130    55    54   ar
   131    52    54   ar
   132   119   118    1
   133    64    65    1
   134    65    67    1
   135    82    83    1
   136   170   168    1
   137   169   168    1
   138   130   124   am
   139   125   124    2
   140   168   167    1
   141   118   115    1
   142   124   123    1
   143   128   126    1
   144   117   116    2
   145   116   115    1
   146   115   114    1
   147   126   123    1
   148   126   127    1
   149   167   164    1
   150   161   159   ar
   151   161   162   ar
   152   123   122    1
   153   159   158   ar
   154   164   165    1
   155   164   163    1
   156   152   151    2
   157   129   127    1
   158   166   165    2
   159   150   151    1
   160   150   149    1
   161   162   160   ar
   162   163   155   am
   163   158   160   ar
   164   158   157    1
   165   156   155    2
   166   155   154    1
   167   157   154    1
   168   154   153    1
