@<TRIPOS>MOLECULE
tmp/5tlhB00.pdb
 107 100 0 0 0
SMALL
GASTEIGER

@<TRIPOS>ATOM
      1  N        -31.1440  -11.0840   58.0700 N.3    34  GLU34      -0.1245
      2  CA       -30.2200   -9.9660   58.1620 C.3    34  GLU34       0.1567
      3  C        -29.1440  -10.2620   59.2010 C.2    34  GLU34       0.2260
      4  O        -29.4410  -10.6080   60.3470 O.2    34  GLU34      -0.2867
      5  CB       -30.9480   -8.6690   58.5280 C.3    34  GLU34       0.0388
      6  CG       -32.0600   -8.2620   57.5690 C.3    34  GLU34       0.1160
      7  CD       -33.3970   -8.9120   57.8900 C.2    34  GLU34       0.3649
      8  OE1      -33.4650   -9.7140   58.8480 O.co2  34  GLU34      -0.2457
      9  OE2      -34.3850   -8.6200   57.1790 O.co2  34  GLU34      -0.2457
     10  N        -26.3940   -5.8110   59.6070 N.3    38  SER38      -0.1202
     11  CA       -27.4680   -5.2840   58.7700 C.3    38  SER38       0.2020
     12  C        -28.7020   -4.9460   59.6050 C.2    38  SER38       0.2618
     13  O        -29.3320   -3.9100   59.3980 O.2    38  SER38      -0.2717
     14  CB       -27.8290   -6.2850   57.6700 C.3    38  SER38       0.2103
     15  OG       -28.9990   -5.8840   56.9720 O.3    38  SER38      -0.2182
     16  N        -29.0370   -5.8060   60.5600 N.am   39  ILE39      -0.1979
     17  CA       -30.1910   -5.5560   61.4140 C.3    39  ILE39       0.1595
     18  C        -29.8830   -4.3740   62.3360 C.2    39  ILE39       0.2287
     19  O        -30.7950   -3.6980   62.8140 O.2    39  ILE39      -0.2864
     20  CB       -30.5900   -6.8220   62.2100 C.3    39  ILE39       0.0276
     21  CG1      -31.9180   -6.6010   62.9380 C.3    39  ILE39       0.0022
     22  CG2      -29.5070   -7.1960   63.2080 C.3    39  ILE39       0.0022
     23  CD1      -33.1210   -6.5550   62.0270 C.3    39  ILE39       0.0001
     24  N        -28.6780   -1.5960   61.4420 N.3    41  LYS41      -0.1231
     25  CA       -29.1350   -0.4210   60.7120 C.3    41  LYS41       0.1693
     26  C        -30.6450   -0.2300   60.8860 C.2    41  LYS41       0.2591
     27  O        -31.1220    0.8930   61.0670 O.2    41  LYS41      -0.2718
     28  CB       -28.7460   -0.5780   59.2360 C.3    41  LYS41       0.0285
     29  CG       -27.2110   -0.6900   58.9740 C.3    41  LYS41       0.0035
     30  CD       -26.9060   -1.1320   57.4700 C.3    41  LYS41       0.0206
     31  CE       -26.6140    0.0610   56.3550 C.3    41  LYS41       0.1093
     32  NZ       -26.6850   -0.4780   55.0390 N.3    41  LYS41      -0.1314
     33  N        -31.3850   -1.3140   60.8300 N.am   42  ARG42      -0.1980
     34  CA       -32.8130   -1.2430   60.9980 C.3    42  ARG42       0.1597
     35  C        -33.1910   -0.8450   62.4350 C.2    42  ARG42       0.2287
     36  O        -34.0160    0.0100   62.6330 O.2    42  ARG42      -0.2864
     37  CB       -33.4680   -2.5560   60.5910 C.3    42  ARG42       0.0334
     38  CG       -33.7300   -2.6840   59.1050 C.3    42  ARG42       0.0492
     39  CD       -32.4930   -2.9560   58.3100 C.3    42  ARG42       0.2205
     40  NE       -32.0700   -1.8420   57.4740 N.pl3  42  ARG42      -0.0865
     41  CZ       -31.0300   -1.9040   56.6660 C.cat  42  ARG42       0.5346
     42  NH1      -30.6990   -0.8820   55.9160 N.pl3  42  ARG42       0.1354
     43  NH2      -30.3190   -2.9940   56.6050 N.pl3  42  ARG42       0.1354
     44  N        -32.5780    2.7110   62.9220 N.3    45  SER45      -0.1217
     45  CA       -33.4960    3.5830   62.2010 C.3    45  SER45       0.1889
     46  C        -34.8170    3.7720   62.9440 C.2    45  SER45       0.2288
     47  O        -35.5570    4.7120   62.6600 O.2    45  SER45      -0.2866
     48  CB       -33.7400    3.0350   60.7910 C.3    45  SER45       0.2089
     49  OG       -34.8690    2.1750   60.7440 O.3    45  SER45      -0.2183
     50  N        -37.6040   -9.0780   68.1090 N.3    58  TYR58      -0.1241
     51  CA       -38.1180   -8.6570   66.8160 C.3    58  TYR58       0.1605
     52  C        -38.3890   -9.8660   65.9250 C.2    58  TYR58       0.2264
     53  O        -39.4250   -9.9390   65.2700 O.2    58  TYR58      -0.2867
     54  CB       -37.1490   -7.6990   66.1260 C.3    58  TYR58       0.0534
     55  CG       -37.5920   -7.3360   64.7310 C.ar   58  TYR58      -0.0201
     56  CD1      -38.8320   -6.7550   64.5090 C.ar   58  TYR58      -0.0009
     57  CD2      -36.7770   -7.5880   63.6340 C.ar   58  TYR58      -0.0009
     58  CE1      -39.2510   -6.4270   63.2330 C.ar   58  TYR58       0.0417
     59  CE2      -37.1850   -7.2630   62.3530 C.ar   58  TYR58       0.0417
     60  CZ       -38.4230   -6.6840   62.1580 C.ar   58  TYR58       0.1957
     61  OH       -38.8300   -6.3580   60.8860 O.3    58  TYR58      -0.2866
     62  N        -37.5380   -9.2240   52.1540 N.3   302  GLY302     -0.1210
     63  CA       -37.0950   -8.7500   53.4480 C.3   302  GLY302      0.1956
     64  C        -37.8000   -7.4510   53.7790 C.2   302  GLY302      0.2611
     65  O        -38.8040   -7.4490   54.4910 O.2   302  GLY302     -0.2717
     66  N        -37.3000   -6.3510   53.2230 N.am  303  ARG303     -0.1979
     67  CA       -37.8800   -5.0390   53.4770 C.3   303  ARG303      0.1597
     68  C        -39.3710   -5.0040   53.1410 C.2   303  ARG303      0.2287
     69  O        -40.1670   -4.4330   53.8890 O.2   303  ARG303     -0.2864
     70  CB       -37.1640   -3.9540   52.6660 C.3   303  ARG303      0.0334
     71  CG       -37.6240   -2.5510   53.0550 C.3   303  ARG303      0.0492
     72  CD       -37.6950   -1.5870   51.8820 C.3   303  ARG303      0.2205
     73  NE       -36.4010   -1.0090   51.5270 N.pl3 303  ARG303     -0.0865
     74  CZ       -36.2240    0.2550   51.1430 C.cat 303  ARG303      0.5346
     75  NH1      -37.2560    1.0920   51.0610 N.pl3 303  ARG303      0.1354
     76  NH2      -35.0080    0.6890   50.8380 N.pl3 303  ARG303      0.1354
     77  N        -41.3220   -6.3940   55.9840 N.3   306  GLN306     -0.1231
     78  CA       -40.9850   -6.0010   57.3540 C.3   306  GLN306      0.1698
     79  C        -41.0050   -4.4990   57.6460 C.2   306  GLN306      0.2592
     80  O        -41.1450   -4.1000   58.8050 O.2   306  GLN306     -0.2718
     81  CB       -39.5950   -6.5260   57.7080 C.3   306  GLN306      0.0381
     82  CG       -39.4830   -8.0310   57.7510 C.3   306  GLN306      0.0905
     83  CD       -38.0830   -8.4800   58.1100 C.2   306  GLN306      0.2608
     84  OE1      -37.5350   -8.0740   59.1360 O.2   306  GLN306     -0.2717
     85  NE2      -37.4880   -9.3100   57.2600 N.am  306  GLN306     -0.0878
     86  N        -40.8440   -3.6770   56.6120 N.am  307  ALA307     -0.1980
     87  CA       -40.6470   -2.2340   56.7920 C.3   307  ALA307      0.1597
     88  C        -41.6840   -1.5940   57.7180 C.2   307  ALA307      0.2287
     89  O        -41.3250   -0.8750   58.6480 O.2   307  ALA307     -0.2864
     90  CB       -40.6560   -1.5320   55.4470 C.3   307  ALA307      0.0319
     91  N        -41.7180   -3.0120   61.3790 N.3   310  LEU310     -0.1231
     92  CA       -40.5850   -2.5030   62.1470 C.3   310  LEU310      0.1693
     93  C        -40.8590   -1.1150   62.7320 C.2   310  LEU310      0.2591
     94  O        -40.5060   -0.8370   63.8780 O.2   310  LEU310     -0.2718
     95  CB       -39.3410   -2.4570   61.2600 C.3   310  LEU310      0.0284
     96  CG       -38.0190   -2.1130   61.9420 C.3   310  LEU310      0.0019
     97  CD1      -37.5420   -3.2690   62.8120 C.3   310  LEU310      0.0001
     98  CD2      -36.9710   -1.7400   60.9050 C.3   310  LEU310      0.0001
     99  N        -41.4910   -0.2490   61.9440 N.am  311  LYS311     -0.1980
    100  CA       -41.7890    1.1120   62.3830 C.3   311  LYS311      0.1596
    101  C        -42.9140    1.1090   63.4160 C.2   311  LYS311      0.2287
    102  O        -42.8470    1.8210   64.4180 O.2   311  LYS311     -0.2864
    103  CB       -42.1510    1.9860   61.1810 C.3   311  LYS311      0.0298
    104  CG       -40.9390    2.3480   60.3310 C.3   311  LYS311      0.0038
    105  CD       -41.3270    2.8640   58.9520 C.3   311  LYS311      0.0206
    106  CE       -40.0960    3.0620   58.0720 C.3   311  LYS311      0.1093
    107  NZ       -40.4420    3.2180   56.6310 N.3   311  LYS311     -0.1314
@<TRIPOS>BOND
     1    76    74    1
     2    75    74    1
     3    74    73    2
     4    73    72    1
     5    72    71    1
     6    62    63    1
     7    70    71    1
     8    70    67    1
     9    68    67    1
    10    68    69    2
    11    66    67    1
    12    66    64   am
    13    63    64    1
    14    64    65    2
    15    32    31    1
    16    90    87    1
    17    42    41    1
    18    77    78    1
    19    31    30    1
    20    43    41    1
    21    86    87    1
    22    86    79   am
    23   107   106    1
    24    41    40    2
    25    87    88    1
    26    15    14    1
    27     9     7   ar
    28    85    83   am
    29    78    79    1
    30    78    81    1
    31    30    29    1
    32    40    39    1
    33     6     7    1
    34     6     5    1
    35    79    80    2
    36    14    11    1
    37    81    82    1
    38    88    89    2
    39    82    83    1
    40     7     8   ar
    41     1     2    1
    42   106   105    1
    43    83    84    2
    44     2     5    1
    45     2     3    1
    46    39    38    1
    47    11    12    1
    48    11    10    1
    49   105   104    1
    50    29    28    1
    51    38    37    1
    52     3     4    2
    53    28    25    1
    54    13    12    2
    55    12    16   am
    56   104   103    1
    57    16    17    1
    58    37    34    1
    59    25    26    1
    60    25    24    1
    61    49    48    1
    62    48    45    1
    63    33    26   am
    64    33    34    1
    65    26    27    2
    66    61    60    1
    67    98    96    1
    68    34    35    1
    69   103   100    1
    70    95    96    1
    71    95    92    1
    72    91    92    1
    73    17    20    1
    74    17    18    1
    75    96    97    1
    76    99   100    1
    77    99    93   am
    78    23    21    1
    79    92    93    1
    80    60    59   ar
    81    60    58   ar
    82    45    44    1
    83    45    46    1
    84    20    21    1
    85    20    22    1
    86    18    19    2
    87    59    57   ar
    88   100   101    1
    89    35    36    2
    90    47    46    2
    91    93    94    2
    92    58    56   ar
    93   101   102    2
    94    57    55   ar
    95    56    55   ar
    96    55    54    1
    97    53    52    2
    98    52    51    1
    99    54    51    1
   100    51    50    1
