@<TRIPOS>MOLECULE
tmp/5tllB01.pdb
 175 163 0 0 0
SMALL
GASTEIGER

@<TRIPOS>ATOM
      1  N        -18.4550   -9.6390   51.3050 N.3    38  MET38      -0.1245
      2  CA       -18.4600   -8.2890   50.7550 C.3    38  MET38       0.1570
      3  C        -19.1560   -7.3070   51.6870 C.2    38  MET38       0.2261
      4  O        -18.7840   -6.1300   51.7300 O.2    38  MET38      -0.2867
      5  CB       -19.1270   -8.2790   49.3810 C.3    38  MET38       0.0387
      6  CG       -18.3990   -9.1080   48.3440 C.3    38  MET38       0.0595
      7  SD       -16.6550   -8.6640   48.2320 S.3    38  MET38      -0.1393
      8  CE       -16.7730   -6.9090   47.8920 C.3    38  MET38       0.0692
      9  N        -16.4570   -6.3120   54.1820 N.3    41  LEU41      -0.1231
     10  CA       -15.4510   -5.4440   53.5790 C.3    41  LEU41       0.1693
     11  C        -15.9990   -4.0450   53.3260 C.2    41  LEU41       0.2592
     12  O        -15.3120   -3.0500   53.5850 O.2    41  LEU41      -0.2718
     13  CB       -14.9370   -6.0600   52.2780 C.3    41  LEU41       0.0284
     14  CG       -13.7070   -6.9680   52.3650 C.3    41  LEU41       0.0019
     15  CD1      -13.9010   -8.0820   53.3860 C.3    41  LEU41       0.0001
     16  CD2      -13.3850   -7.5430   50.9930 C.3    41  LEU41       0.0001
     17  N        -17.2290   -3.9460   52.8190 N.am   42  THR42      -0.1953
     18  CA       -17.7920   -2.6300   52.5360 C.3    42  THR42       0.1897
     19  C        -18.1400   -1.8940   53.8230 C.2    42  THR42       0.2313
     20  O        -17.8960   -0.6870   53.9360 O.2    42  THR42      -0.2863
     21  CB       -19.0210   -2.7560   51.6350 C.3    42  THR42       0.1794
     22  OG1      -19.9830   -3.6260   52.2430 O.3    42  THR42      -0.2208
     23  CG2      -18.6240   -3.3150   50.2800 C.3    42  THR42       0.0378
     24  N        -16.6620   -2.2830   56.7180 N.3    44  LEU44      -0.1231
     25  CA       -15.3850   -1.8430   57.2710 C.3    44  LEU44       0.1693
     26  C        -14.8340   -0.6480   56.5010 C.2    44  LEU44       0.2591
     27  O        -14.2840    0.2860   57.0970 O.2    44  LEU44      -0.2718
     28  CB       -14.3820   -2.9960   57.2610 C.3    44  LEU44       0.0284
     29  CG       -12.9790   -2.6750   57.7830 C.3    44  LEU44       0.0019
     30  CD1      -13.0160   -2.3420   59.2670 C.3    44  LEU44       0.0001
     31  CD2      -12.0180   -3.8230   57.5080 C.3    44  LEU44       0.0001
     32  N        -14.9710   -0.6620   55.1720 N.am   45  ALA45      -0.1980
     33  CA       -14.4930    0.4570   54.3670 C.3    45  ALA45       0.1597
     34  C        -15.2610    1.7330   54.6820 C.2    45  ALA45       0.2287
     35  O        -14.6680    2.8140   54.7700 O.2    45  ALA45      -0.2864
     36  CB       -14.6040    0.1220   52.8800 C.3    45  ALA45       0.0319
     37  N        -14.0140    2.9740   57.9810 N.3    48  GLU48      -0.1245
     38  CA       -12.6390    3.4360   57.8110 C.3    48  GLU48       0.1567
     39  C        -12.5760    4.7560   57.0530 C.2    48  GLU48       0.2260
     40  O        -11.6530    5.5500   57.2680 O.2    48  GLU48      -0.2867
     41  CB       -11.8120    2.3820   57.0780 C.3    48  GLU48       0.0388
     42  CG       -11.2810    1.2600   57.9460 C.3    48  GLU48       0.1160
     43  CD       -10.3310    0.3550   57.1840 C.2    48  GLU48       0.3649
     44  OE1      -10.8100   -0.4920   56.4000 O.co2  48  GLU48      -0.2457
     45  OE2       -9.1040    0.5060   57.3510 O.co2  48  GLU48      -0.2457
     46  N         -9.0550    7.2630   47.6790 N.3    78  TRP78      -0.1227
     47  CA        -9.6040    6.6510   48.8880 C.3    78  TRP78       0.1737
     48  C         -9.3800    5.1410   48.9110 C.2    78  TRP78       0.2595
     49  O         -9.0380    4.5760   49.9560 O.2    78  TRP78      -0.2718
     50  CB       -11.0930    6.9820   49.0230 C.3    78  TRP78       0.0564
     51  CG       -11.9680    6.3180   48.0080 C.ar   78  TRP78       0.0003
     52  CD1      -12.3350    6.8130   46.7910 C.ar   78  TRP78       0.0946
     53  CD2      -12.5870    5.0320   48.1220 C.ar   78  TRP78       0.0152
     54  NE1      -13.1470    5.9150   46.1380 N.ar   78  TRP78      -0.2442
     55  CE2      -13.3150    4.8110   46.9340 C.ar   78  TRP78       0.0810
     56  CE3      -12.5940    4.0420   49.1110 C.ar   78  TRP78       0.0012
     57  CZ2      -14.0430    3.6440   46.7090 C.ar   78  TRP78       0.0191
     58  CZ3      -13.3170    2.8830   48.8860 C.ar   78  TRP78       0.0001
     59  CH2      -14.0320    2.6940   47.6950 C.ar   78  TRP78       0.0015
     60  N         -9.5530    4.4700   47.7700 N.am   79  LEU79      -0.1980
     61  CA        -9.3650    3.0230   47.7470 C.3    79  LEU79       0.1596
     62  C         -7.8880    2.6520   47.8070 C.2    79  LEU79       0.2287
     63  O         -7.5250    1.6460   48.4280 O.2    79  LEU79      -0.2864
     64  CB       -10.0230    2.4170   46.5060 C.3    79  LEU79       0.0297
     65  CG        -9.9900    0.8860   46.4180 C.3    79  LEU79       0.0022
     66  CD1      -10.5420    0.2560   47.6920 C.3    79  LEU79       0.0001
     67  CD2      -10.7550    0.3900   45.1990 C.3    79  LEU79       0.0001
     68  N         -7.0050    2.9440   51.5170 N.3    82  LEU82      -0.1231
     69  CA        -7.4780    1.7840   52.2680 C.3    82  LEU82       0.1693
     70  C         -6.6160    0.5600   51.9940 C.2    82  LEU82       0.2591
     71  O         -6.3190   -0.2190   52.9090 O.2    82  LEU82      -0.2718
     72  CB        -8.9370    1.4860   51.9230 C.3    82  LEU82       0.0284
     73  CG        -9.9970    2.4460   52.4550 C.3    82  LEU82       0.0019
     74  CD1      -11.3740    2.0190   51.9840 C.3    82  LEU82       0.0001
     75  CD2       -9.9400    2.5060   53.9660 C.3    82  LEU82       0.0001
     76  N         -6.2020    0.3750   50.7390 N.am   83  MET83      -0.1979
     77  CA        -5.4530   -0.8240   50.3820 C.3    83  MET83       0.1605
     78  C         -4.0420   -0.7930   50.9580 C.2    83  MET83       0.2287
     79  O         -3.5670   -1.7990   51.4950 O.2    83  MET83      -0.2864
     80  CB        -5.4270   -0.9890   48.8620 C.3    83  MET83       0.0413
     81  CG        -6.7330   -1.5410   48.2900 C.3    83  MET83       0.0598
     82  SD        -6.7050   -1.7560   46.4980 S.3    83  MET83      -0.1393
     83  CE        -8.0170   -2.9520   46.2640 C.3    83  MET83       0.0692
     84  N         -4.3670   -1.6990   54.4790 N.3    86  LEU86      -0.1245
     85  CA        -4.5450   -3.1400   54.6190 C.3    86  LEU86       0.1561
     86  C         -3.2390   -3.8770   54.3620 C.2    86  LEU86       0.2260
     87  O         -2.8960   -4.8240   55.0800 O.2    86  LEU86      -0.2867
     88  CB        -5.6340   -3.6260   53.6620 C.3    86  LEU86       0.0270
     89  CG        -5.7550   -5.1350   53.4410 C.3    86  LEU86       0.0019
     90  CD1       -6.2330   -5.8250   54.7020 C.3    86  LEU86       0.0001
     91  CD2       -6.6840   -5.4350   52.2790 C.3    86  LEU86       0.0001
     92  N         -1.0110   -3.4260   57.5010 N.3    89  ARG89      -0.1245
     93  CA        -1.4160   -4.2410   58.6450 C.3    89  ARG89       0.1563
     94  C         -1.0850   -5.7130   58.4410 C.2    89  ARG89       0.2260
     95  O         -0.8150   -6.4280   59.4140 O.2    89  ARG89      -0.2867
     96  CB        -2.9150   -4.0870   58.9080 C.3    89  ARG89       0.0307
     97  CG        -3.3600   -2.6800   59.2370 C.3    89  ARG89       0.0489
     98  CD        -4.7910   -2.6650   59.7550 C.3    89  ARG89       0.2205
     99  NE        -5.7600   -3.1570   58.7760 N.pl3  89  ARG89      -0.0865
    100  CZ        -6.3540   -2.3940   57.8620 C.cat  89  ARG89       0.5346
    101  NH1       -6.0710   -1.1000   57.7890 N.pl3  89  ARG89       0.1354
    102  NH2       -7.2280   -2.9220   57.0160 N.pl3  89  ARG89       0.1354
    103  N         -7.6540   -7.5400   57.4500 N.3    99  PHE99      -0.1241
    104  CA        -8.6480   -6.4840   57.2830 C.3    99  PHE99       0.1605
    105  C         -8.9660   -5.8310   58.6190 C.2    99  PHE99       0.2264
    106  O         -9.1720   -4.6140   58.6970 O.2    99  PHE99      -0.2867
    107  CB        -9.9170   -7.0500   56.6410 C.3    99  PHE99       0.0534
    108  CG        -9.7740   -7.3480   55.1740 C.ar   99  PHE99      -0.0203
    109  CD1      -10.1170   -6.3980   54.2250 C.ar   99  PHE99      -0.0042
    110  CD2       -9.2960   -8.5730   54.7440 C.ar   99  PHE99      -0.0042
    111  CE1       -9.9870   -6.6640   52.8740 C.ar   99  PHE99      -0.0003
    112  CE2       -9.1630   -8.8450   53.3930 C.ar   99  PHE99      -0.0003
    113  CZ        -9.5100   -7.8880   52.4570 C.ar   99  PHE99      -0.0000
    114  N        -12.5060  -11.8140   43.3020 N.3   116  MET116     -0.1245
    115  CA       -11.8070  -11.3310   44.4850 C.3   116  MET116      0.1570
    116  C        -10.4460  -11.9870   44.6780 C.2   116  MET116      0.2261
    117  O         -9.5570  -11.3790   45.2850 O.2   116  MET116     -0.2867
    118  CB       -12.6670  -11.5590   45.7310 C.3   116  MET116      0.0387
    119  CG       -12.2500  -10.7250   46.9230 C.3   116  MET116      0.0595
    120  SD       -12.4950   -8.9670   46.6170 S.3   116  MET116     -0.1393
    121  CE       -11.3110   -8.2650   47.7600 C.3   116  MET116      0.0692
    122  N         -7.6520   -9.8280   43.1920 N.3   119  ILE119     -0.1245
    123  CA        -7.3140   -8.6830   44.0300 C.3   119  ILE119      0.1561
    124  C         -6.6050   -9.1420   45.2980 C.2   119  ILE119      0.2260
    125  O         -5.6780   -8.4830   45.7810 O.2   119  ILE119     -0.2867
    126  CB        -8.5830   -7.8690   44.3430 C.3   119  ILE119      0.0252
    127  CG1       -9.2120   -7.3610   43.0440 C.3   119  ILE119      0.0019
    128  CG2       -8.2680   -6.7120   45.2770 C.3   119  ILE119      0.0019
    129  CD1      -10.5030   -6.6080   43.2480 C.3   119  ILE119      0.0001
    130  N         -2.8400   -7.9310   46.5320 N.3   123  LEU123     -0.1245
    131  CA        -2.6330   -7.3450   47.8520 C.3   123  LEU123      0.1561
    132  C         -1.5940   -8.1270   48.6420 C.2   123  LEU123      0.2260
    133  O         -0.7100   -7.5380   49.2760 O.2   123  LEU123     -0.2867
    134  CB        -3.9580   -7.2880   48.6110 C.3   123  LEU123      0.0270
    135  CG        -4.9960   -6.2930   48.0900 C.3   123  LEU123      0.0019
    136  CD1       -6.3590   -6.5590   48.7110 C.3   123  LEU123      0.0001
    137  CD2       -4.5470   -4.8710   48.3730 C.3   123  LEU123      0.0001
    138  N         -9.9150   -2.9940   41.9130 N.3   207  GLY207     -0.1225
    139  CA       -10.9010   -3.0510   42.9800 C.3   207  GLY207      0.1811
    140  C        -12.0640   -2.1050   42.7560 C.2   207  GLY207      0.2280
    141  O        -13.2070   -2.4220   43.1000 O.2   207  GLY207     -0.2866
    142  N        -14.2920   -3.8720   40.3770 N.3   210  HIS210     -0.1226
    143  CA       -15.0090   -4.9610   41.0340 C.3   210  HIS210      0.1752
    144  C        -16.1470   -4.4290   41.8950 C.2   210  HIS210      0.2595
    145  O        -17.2170   -5.0450   41.9760 O.2   210  HIS210     -0.2718
    146  CB       -14.0400   -5.7890   41.8780 C.3   210  HIS210      0.0759
    147  CG       -14.6310   -7.0570   42.4100 C.ar  210  HIS210      0.0818
    148  ND1      -14.2250   -7.6270   43.5980 N.ar  210  HIS210     -0.2268
    149  CD2      -15.5920   -7.8710   41.9130 C.ar  210  HIS210      0.1154
    150  CE1      -14.9140   -8.7340   43.8120 C.ar  210  HIS210      0.1986
    151  NE2      -15.7500   -8.9050   42.8040 N.ar  210  HIS210     -0.2212
    152  N        -15.9360   -3.2790   42.5420 N.am  211  LEU211     -0.1980
    153  CA       -16.9770   -2.6900   43.3780 C.3   211  LEU211      0.1596
    154  C        -18.1750   -2.2490   42.5450 C.2   211  LEU211      0.2287
    155  O        -19.3240   -2.3790   42.9830 O.2   211  LEU211     -0.2864
    156  CB       -16.4050   -1.5110   44.1640 C.3   211  LEU211      0.0297
    157  CG       -17.3330   -0.8600   45.1880 C.3   211  LEU211      0.0022
    158  CD1      -17.6810   -1.8500   46.2900 C.3   211  LEU211      0.0001
    159  CD2      -16.6980    0.3950   45.7670 C.3   211  LEU211      0.0001
    160  N        -20.4470   -5.0800   41.9020 N.3   214  MET214     -0.1245
    161  CA       -21.2530   -5.4090   43.0720 C.3   214  MET214      0.1570
    162  C        -22.4630   -4.4930   43.1860 C.2   214  MET214      0.2261
    163  O        -23.4940   -4.8940   43.7360 O.2   214  MET214     -0.2867
    164  CB       -20.4030   -5.3180   44.3400 C.3   214  MET214      0.0387
    165  CG       -19.1000   -6.0970   44.2830 C.3   214  MET214      0.0595
    166  SD       -19.1290   -7.6430   45.2120 S.3   214  MET214     -0.1393
    167  CE       -20.1740   -8.6710   44.1810 C.3   214  MET214      0.0692
    168  N        -20.3370    5.3910   50.2730 N.3   226  LEU226     -0.1245
    169  CA       -19.5470    4.5140   49.4150 C.3   226  LEU226      0.1561
    170  C        -19.9740    4.6350   47.9570 C.2   226  LEU226      0.2260
    171  O        -19.1280    4.6230   47.0560 O.2   226  LEU226     -0.2867
    172  CB       -19.6720    3.0710   49.9000 C.3   226  LEU226      0.0270
    173  CG       -18.5810    2.0890   49.4790 C.3   226  LEU226      0.0019
    174  CD1      -17.2110    2.6280   49.8480 C.3   226  LEU226      0.0001
    175  CD2      -18.8180    0.7480   50.1410 C.3   226  LEU226      0.0001
@<TRIPOS>BOND
     1   142   143    1
     2   143   146    1
     3   143   144    1
     4   146   147    1
     5   144   145    2
     6   144   152   am
     7   160   161    1
     8   138   139    1
     9   149   147   ar
    10   149   151   ar
    11   147   148   ar
    12   152   153    1
    13   154   155    2
    14   154   153    1
    15   140   139    1
    16   140   141    2
    17   151   150   ar
    18   127   129    1
    19   127   126    1
    20   161   162    1
    21   161   164    1
    22   162   163    2
    23   122   123    1
    24   114   115    1
    25   153   156    1
    26   148   150   ar
    27   123   126    1
    28   123   124    1
    29   156   157    1
    30   167   166    1
    31   165   164    1
    32   165   166    1
    33   126   128    1
    34   115   116    1
    35   115   118    1
    36   116   117    2
    37   157   159    1
    38   157   158    1
    39    67    65    1
    40   124   125    2
    41   118   119    1
    42    54    52   ar
    43    54    55   ar
    44    83    82    1
    45    65    64    1
    46    65    66    1
    47    82    81    1
    48    64    61    1
    49   130   131    1
    50   120   119    1
    51   120   121    1
    52    57    55   ar
    53    57    59   ar
    54    52    51   ar
    55    55    53   ar
    56   171   170    2
    57    46    47    1
    58    59    58   ar
    59    61    60    1
    60    61    62    1
    61    60    48   am
    62    62    63    2
    63   131   134    1
    64   131   132    1
    65     8     7    1
    66   170   169    1
    67    51    53   ar
    68    51    50    1
    69   135   137    1
    70   135   134    1
    71   135   136    1
    72    53    56   ar
    73     7     6    1
    74    81    80    1
    75     6     5    1
    76   132   133    2
    77    80    77    1
    78    58    56   ar
    79    47    48    1
    80    47    50    1
    81    48    49    2
    82     5     2    1
    83   169   172    1
    84   169   168    1
    85   173   174    1
    86   173   172    1
    87   173   175    1
    88    23    21    1
    89    77    76    1
    90    77    78    1
    91    76    70   am
    92     2     1    1
    93     2     3    1
    94    78    79    2
    95    16    14    1
    96    68    69    1
    97    21    22    1
    98    21    18    1
    99     3     4    2
   100    72    69    1
   101    72    73    1
   102    74    73    1
   103    70    69    1
   104    70    71    2
   105    13    14    1
   106    13    10    1
   107    91    89    1
   108    14    15    1
   109    73    75    1
   110   113   111   ar
   111   113   112   ar
   112    18    17    1
   113    18    19    1
   114    17    11   am
   115   111   109   ar
   116    36    33    1
   117    11    10    1
   118    11    12    2
   119   112   110   ar
   120    89    88    1
   121    89    90    1
   122    10     9    1
   123    88    85    1
   124    19    20    2
   125   109   108   ar
   126    86    85    1
   127    86    87    2
   128    33    34    1
   129    33    32    1
   130    84    85    1
   131    34    35    2
   132   110   108   ar
   133    32    26   am
   134   108   107    1
   135    44    43   ar
   136    26    27    2
   137    26    25    1
   138   107   104    1
   139    24    25    1
   140   102   100    1
   141    39    40    2
   142    39    38    1
   143    41    38    1
   144    41    42    1
   145    43    45   ar
   146    43    42    1
   147    28    25    1
   148    28    29    1
   149   104   103    1
   150   104   105    1
   151    92    93    1
   152    31    29    1
   153    29    30    1
   154   101   100    1
   155    38    37    1
   156   100    99    2
   157    94    93    1
   158    94    95    2
   159   105   106    2
   160    93    96    1
   161    99    98    1
   162    96    97    1
   163    97    98    1
