@<TRIPOS>MOLECULE
tmp/5tlmB01.pdb
 180 166 0 0 0
SMALL
GASTEIGER

@<TRIPOS>ATOM
      1  N          9.4570    4.5750  -24.5530 N.3    34  MET34      -0.1230
      2  CA         8.1910    5.2920  -24.4610 C.3    34  MET34       0.1702
      3  C          8.3980    6.7200  -23.9780 C.2    34  MET34       0.2592
      4  O          7.9520    7.6740  -24.6250 O.2    34  MET34      -0.2718
      5  CB         7.2330    4.5460  -23.5360 C.3    34  MET34       0.0401
      6  CG         6.6420    3.2930  -24.1470 C.3    34  MET34       0.0596
      7  SD         5.4090    2.5750  -23.0570 S.3    34  MET34      -0.1393
      8  CE         4.3750    4.0050  -22.7420 C.3    34  MET34       0.0692
      9  N          9.0790    6.8870  -22.8410 N.am   35  MET35      -0.1979
     10  CA         9.2720    8.2230  -22.2910 C.3    35  MET35       0.1605
     11  C         10.0300    9.1170  -23.2610 C.2    35  MET35       0.2287
     12  O          9.8140   10.3290  -23.2860 O.2    35  MET35      -0.2864
     13  CB         9.9990    8.1400  -20.9510 C.3    35  MET35       0.0413
     14  CG         9.8880    9.4050  -20.1140 C.3    35  MET35       0.0598
     15  SD        10.6950    9.2860  -18.5040 S.3    35  MET35      -0.1393
     16  CE         9.7810    7.9390  -17.7580 C.3    35  MET35       0.0692
     17  N          7.3350    9.9470  -26.1920 N.3    38  LEU38      -0.1245
     18  CA         6.2960   10.8700  -25.7520 C.3    38  LEU38       0.1561
     19  C          6.8670   12.2490  -25.4540 C.2    38  LEU38       0.2260
     20  O          6.1740   13.2570  -25.6370 O.2    38  LEU38      -0.2867
     21  CB         5.5870   10.3110  -24.5180 C.3    38  LEU38       0.0270
     22  CG         4.9270    8.9420  -24.6900 C.3    38  LEU38       0.0019
     23  CD1        4.1420    8.5600  -23.4440 C.3    38  LEU38       0.0001
     24  CD2        4.0350    8.9280  -25.9250 C.3    38  LEU38       0.0001
     25  N          7.3360   14.0290  -28.8910 N.3    41  LEU41      -0.1231
     26  CA         6.0000   14.3900  -29.3580 C.3    41  LEU41       0.1693
     27  C          5.4350   15.5580  -28.5590 C.2    41  LEU41       0.2591
     28  O          4.8370   16.4810  -29.1260 O.2    41  LEU41      -0.2718
     29  CB         5.0650   13.1830  -29.2620 C.3    41  LEU41       0.0284
     30  CG         3.6070   13.4200  -29.6500 C.3    41  LEU41       0.0019
     31  CD1        3.4970   13.7880  -31.1220 C.3    41  LEU41       0.0001
     32  CD2        2.7360   12.2080  -29.3280 C.3    41  LEU41       0.0001
     33  N          5.6280   15.5420  -27.2380 N.am   42  ALA42      -0.1980
     34  CA         5.1170   16.6190  -26.3950 C.3    42  ALA42       0.1597
     35  C          5.7930   17.9430  -26.7190 C.2    42  ALA42       0.2287
     36  O          5.1320   18.9870  -26.7990 O.2    42  ALA42      -0.2864
     37  CB         5.3150   16.2730  -24.9190 C.3    42  ALA42       0.0319
     38  N          4.5730   19.3370  -29.9260 N.3    45  GLU45      -0.1245
     39  CA         3.1990   19.8140  -29.7980 C.3    45  GLU45       0.1567
     40  C          3.1090   21.1150  -29.0190 C.2    45  GLU45       0.2260
     41  O          2.1160   21.8330  -29.1580 O.2    45  GLU45      -0.2867
     42  CB         2.3270   18.7730  -29.1160 C.3    45  GLU45       0.0388
     43  CG         2.0200   17.5640  -29.9570 C.3    45  GLU45       0.1160
     44  CD         1.1910   16.5680  -29.1920 C.2    45  GLU45       0.3649
     45  OE1        1.7800   15.7450  -28.4650 O.co2  45  GLU45      -0.2457
     46  OE2       -0.0520   16.6340  -29.2830 O.co2  45  GLU45      -0.2457
     47  N         -0.2360   20.6680  -19.8820 N.3    76  LEU76      -0.1245
     48  CA        -0.4130   19.2190  -19.8750 C.3    76  LEU76       0.1561
     49  C         -1.8860   18.8410  -19.9390 C.2    76  LEU76       0.2260
     50  O         -2.2400   17.8330  -20.5600 O.2    76  LEU76      -0.2867
     51  CB         0.2500   18.6000  -18.6410 C.3    76  LEU76       0.0270
     52  CG         0.3920   17.0730  -18.6280 C.3    76  LEU76       0.0019
     53  CD1        0.9230   16.5470  -19.9620 C.3    76  LEU76       0.0001
     54  CD2        1.2970   16.6130  -17.4880 C.3    76  LEU76       0.0001
     55  N         -2.6540   18.9800  -23.6080 N.3    79  LEU79      -0.1231
     56  CA        -2.1730   17.7860  -24.3020 C.3    79  LEU79       0.1693
     57  C         -3.0370   16.5720  -23.9850 C.2    79  LEU79       0.2591
     58  O         -3.3420   15.7690  -24.8750 O.2    79  LEU79      -0.2718
     59  CB        -0.7170   17.4960  -23.9400 C.3    79  LEU79       0.0284
     60  CG         0.3220   18.4060  -24.5860 C.3    79  LEU79       0.0019
     61  CD1        1.7120   17.8850  -24.2900 C.3    79  LEU79       0.0001
     62  CD2        0.0860   18.5190  -26.0870 C.3    79  LEU79       0.0001
     63  N         -3.4500   16.4240  -22.7250 N.am   80  MET80      -0.1979
     64  CA        -4.2240   15.2470  -22.3500 C.3    80  MET80       0.1605
     65  C         -5.6410   15.2990  -22.9130 C.2    80  MET80       0.2287
     66  O         -6.1720   14.2730  -23.3530 O.2    80  MET80      -0.2864
     67  CB        -4.2430   15.0920  -20.8330 C.3    80  MET80       0.0413
     68  CG        -2.9100   14.6360  -20.2640 C.3    80  MET80       0.0598
     69  SD        -2.9540   14.4790  -18.4730 S.3    80  MET80      -0.1393
     70  CE        -1.3040   13.8730  -18.1500 C.3    80  MET80       0.0692
     71  N         -5.1690   14.3200  -26.3750 N.3    83  LEU83      -0.1245
     72  CA        -4.9480   12.8790  -26.3990 C.3    83  LEU83       0.1561
     73  C         -6.2580   12.1210  -26.2400 C.2    83  LEU83       0.2260
     74  O         -6.5370   11.1790  -26.9910 O.2    83  LEU83      -0.2867
     75  CB        -3.9700   12.4880  -25.2950 C.3    83  LEU83       0.0270
     76  CG        -3.8770   10.9930  -25.0070 C.3    83  LEU83       0.0019
     77  CD1       -3.3990   10.2500  -26.2430 C.3    83  LEU83       0.0001
     78  CD2       -2.9440   10.7570  -23.8310 C.3    83  LEU83       0.0001
     79  N         -8.6170   12.4740  -29.5640 N.3    86  ARG86      -0.1245
     80  CA        -8.2460   11.6760  -30.7240 C.3    86  ARG86       0.1563
     81  C         -8.1280   10.1930  -30.4080 C.2    86  ARG86       0.2260
     82  O         -7.8210    9.4110  -31.3110 O.2    86  ARG86      -0.2867
     83  CB        -6.9370   12.1890  -31.3270 C.3    86  ARG86       0.0307
     84  CG        -5.7510   12.1240  -30.4040 C.3    86  ARG86       0.0489
     85  CD        -4.5340   12.7130  -31.0750 C.3    86  ARG86       0.2205
     86  NE        -3.3370   12.5070  -30.2730 N.pl3  86  ARG86      -0.0865
     87  CZ        -2.8280   13.4110  -29.4470 C.cat  86  ARG86       0.5346
     88  NH1       -3.4100   14.5940  -29.3210 N.pl3  86  ARG86       0.1354
     89  NH2       -1.7320   13.1350  -28.7530 N.pl3  86  ARG86       0.1354
     90  N         -1.6060    8.4770  -28.9130 N.3    96  PHE96      -0.1241
     91  CA        -0.6900    9.5960  -28.7420 C.3    96  PHE96       0.1605
     92  C         -0.3740   10.2340  -30.0840 C.2    96  PHE96       0.2264
     93  O         -0.4150   11.4610  -30.2260 O.2    96  PHE96      -0.2867
     94  CB         0.5830    9.1250  -28.0420 C.3    96  PHE96       0.0534
     95  CG         0.3600    8.7110  -26.6210 C.ar   96  PHE96      -0.0203
     96  CD1        0.5900    9.6010  -25.5830 C.ar   96  PHE96      -0.0042
     97  CD2       -0.1150    7.4470  -26.3210 C.ar   96  PHE96      -0.0042
     98  CE1        0.3730    9.2230  -24.2730 C.ar   96  PHE96      -0.0003
     99  CE2       -0.3340    7.0680  -25.0090 C.ar   96  PHE96      -0.0003
    100  CZ        -0.0880    7.9570  -23.9850 C.ar   96  PHE96      -0.0000
    101  N          1.4520    0.5080  -21.5510 N.3   107  GLY107     -0.1225
    102  CA         1.2470    1.6270  -20.6490 C.3   107  GLY107      0.1811
    103  C          1.7620    1.3720  -19.2490 C.2   107  GLY107      0.2280
    104  O          1.9190    2.3200  -18.4710 O.2   107  GLY107     -0.2866
    105  N          5.9420    2.1740  -17.8100 N.3   110  VAL110     -0.1245
    106  CA         6.3830    3.3600  -17.0890 C.3   110  VAL110      0.1561
    107  C          6.0070    3.2000  -15.6250 C.2   110  VAL110      0.2260
    108  O          4.8960    2.7600  -15.3010 O.2   110  VAL110     -0.2867
    109  CB         5.7710    4.6440  -17.6820 C.3   110  VAL110      0.0252
    110  CG1        6.4400    4.9820  -19.0050 C.3   110  VAL110      0.0019
    111  CG2        4.2740    4.4800  -17.8730 C.3   110  VAL110      0.0019
    112  N          5.4020    5.5750  -13.7610 N.3   112  GLY112     -0.1210
    113  CA         4.2630    6.4630  -13.6550 C.3   112  GLY112      0.1956
    114  C          2.9760    5.6790  -13.7750 C.2   112  GLY112      0.2611
    115  O          2.9030    4.7160  -14.5470 O.2   112  GLY112     -0.2717
    116  N          1.9270    6.1240  -13.1130 N.am  113  MET113     -0.1979
    117  CA         0.8090    5.2310  -12.9300 C.3   113  MET113      0.1605
    118  C          0.3070    4.8470  -14.2870 C.2   113  MET113      0.2287
    119  O          0.2380    5.6470  -15.1970 O.2   113  MET113     -0.2864
    120  CB        -0.3170    5.8850  -12.1340 C.3   113  MET113      0.0413
    121  CG         0.2690    6.4380  -10.8320 C.3   113  MET113      0.0598
    122  SD        -1.1900    6.8030   -9.8490 S.3   113  MET113     -0.1393
    123  CE        -0.3420    7.2700   -8.3350 C.3   113  MET113      0.0692
    124  N         -3.0380    6.5830  -14.3230 N.3   116  ILE116     -0.1231
    125  CA        -3.1580    7.7330  -15.2160 C.3   116  ILE116      0.1692
    126  C         -3.4940    7.2770  -16.6310 C.2   116  ILE116      0.2592
    127  O         -4.2970    7.9100  -17.3270 O.2   116  ILE116     -0.2718
    128  CB        -1.8680    8.5740  -15.1910 C.3   116  ILE116      0.0266
    129  CG1       -1.5160    8.9860  -13.7620 C.3   116  ILE116      0.0019
    130  CG2       -2.0190    9.8080  -16.0690 C.3   116  ILE116      0.0020
    131  CD1       -0.2260    9.7870  -13.6710 C.3   116  ILE116      0.0001
    132  N         -2.8830    6.1770  -17.0830 N.am  117  PHE117     -0.1976
    133  CA        -3.2310    5.6180  -18.3870 C.3   117  PHE117      0.1639
    134  C         -4.6910    5.1820  -18.4120 C.2   117  PHE117      0.2290
    135  O         -5.4310    5.4910  -19.3540 O.2   117  PHE117     -0.2864
    136  CB        -2.3040    4.4430  -18.7180 C.3   117  PHE117      0.0560
    137  CG        -2.3250    4.0300  -20.1690 C.ar  117  PHE117     -0.0200
    138  CD1       -1.3230    4.4430  -21.0340 C.ar  117  PHE117     -0.0042
    139  CD2       -3.3350    3.2160  -20.6640 C.ar  117  PHE117     -0.0042
    140  CE1       -1.3320    4.0600  -22.3670 C.ar  117  PHE117     -0.0003
    141  CE2       -3.3540    2.8340  -21.9960 C.ar  117  PHE117     -0.0003
    142  CZ        -2.3520    3.2570  -22.8480 C.ar  117  PHE117     -0.0000
    143  N         -6.9620    8.2050  -18.4030 N.3   120  LEU120     -0.1245
    144  CA        -7.1190    8.7210  -19.7570 C.3   120  LEU120      0.1561
    145  C         -8.0280    7.8160  -20.5800 C.2   120  LEU120      0.2260
    146  O         -8.8550    8.3040  -21.3590 O.2   120  LEU120     -0.2867
    147  CB        -5.7490    8.8790  -20.4230 C.3   120  LEU120      0.0270
    148  CG        -4.7500    9.8540  -19.7830 C.3   120  LEU120      0.0019
    149  CD1       -3.3290    9.5560  -20.2420 C.3   120  LEU120      0.0001
    150  CD2       -5.1070   11.3060  -20.0800 C.3   120  LEU120      0.0001
    151  N          0.1850   13.4150  -13.4760 N.3   200  GLY200     -0.1225
    152  CA         1.2220   13.2880  -14.4830 C.3   200  GLY200      0.1811
    153  C          2.3440   14.2920  -14.3270 C.2   200  GLY200      0.2280
    154  O          3.4990   13.9780  -14.6220 O.2   200  GLY200     -0.2866
    155  N          4.9830   13.1180  -11.8690 N.3   203  HIS203     -0.1226
    156  CA         5.8570   12.0470  -12.3330 C.3   203  HIS203      0.1752
    157  C          6.9160   12.5660  -13.2980 C.2   203  HIS203      0.2595
    158  O          8.0630   12.1040  -13.2690 O.2   203  HIS203     -0.2718
    159  CB         5.0380   10.9360  -12.9870 C.3   203  HIS203      0.0759
    160  CG         5.8760    9.8640  -13.6120 C.ar  203  HIS203      0.0818
    161  ND1        5.7390    9.4840  -14.9310 N.ar  203  HIS203     -0.2268
    162  CD2        6.8730    9.1020  -13.1030 C.ar  203  HIS203      0.1154
    163  CE1        6.6120    8.5310  -15.2050 C.ar  203  HIS203      0.1986
    164  NE2        7.3120    8.2800  -14.1130 N.ar  203  HIS203     -0.2212
    165  N          6.5530   13.5190  -14.1630 N.am  204  LEU204     -0.1980
    166  CA         7.5500   14.1290  -15.0380 C.3   204  LEU204      0.1596
    167  C          8.6310   14.8290  -14.2260 C.2   204  LEU204      0.2287
    168  O          9.8160   14.7690  -14.5730 O.2   204  LEU204     -0.2864
    169  CB         6.8880   15.1150  -16.0000 C.3   204  LEU204      0.0297
    170  CG         5.7410   14.6070  -16.8730 C.3   204  LEU204      0.0022
    171  CD1        5.5190   15.5510  -18.0450 C.3   204  LEU204      0.0001
    172  CD2        5.9880   13.1830  -17.3560 C.3   204  LEU204      0.0001
    173  N         11.1240   12.0340  -13.1510 N.3   207  MET207     -0.1245
    174  CA        12.1030   11.6800  -14.1730 C.3   207  MET207      0.1570
    175  C         12.9950   12.8500  -14.5680 C.2   207  MET207      0.2261
    176  O         13.9750   12.6390  -15.2900 O.2   207  MET207     -0.2867
    177  CB        11.3900   11.1270  -15.4070 C.3   207  MET207      0.0387
    178  CG        10.3030   12.0100  -16.0350 C.3   207  MET207      0.0595
    179  SD        10.8470   13.3550  -17.1140 S.3   207  MET207     -0.1393
    180  CE         9.6290   13.1450  -18.3560 C.3   207  MET207      0.0692
@<TRIPOS>BOND
     1    83    80    1
     2    83    84    1
     3    82    81    2
     4    31    30    1
     5    85    84    1
     6    85    86    1
     7    80    81    1
     8    80    79    1
     9    86    87    2
    10    93    92    2
    11    92    91    1
    12    43    44    1
    13    43    42    1
    14    38    39    1
    15    39    42    1
    16    39    40    1
    17    30    32    1
    18    30    29    1
    19    87    88    1
    20    87    89    1
    21    26    29    1
    22    26    25    1
    23    26    27    1
    24    46    44   ar
    25    44    45   ar
    26    41    40    2
    27    28    27    2
    28    90    91    1
    29    91    94    1
    30    27    33   am
    31    94    95    1
    32    33    34    1
    33    74    73    2
    34    36    35    2
    35    35    34    1
    36    95    97   ar
    37    95    96   ar
    38    72    71    1
    39    72    73    1
    40    72    75    1
    41    34    37    1
    42    97    99   ar
    43    77    76    1
    44    17    18    1
    45    62    60    1
    46    24    22    1
    47    18    19    1
    48    18    21    1
    49    20    19    2
    50    96    98   ar
    51    75    76    1
    52    99   100   ar
    53    76    78    1
    54    58    57    2
    55    22    21    1
    56    22    23    1
    57     4     3    2
    58    60    61    1
    59    60    59    1
    60     1     2    1
    61     2     3    1
    62     2     5    1
    63    56    57    1
    64    56    59    1
    65    56    55    1
    66    98   100   ar
    67     6     5    1
    68     6     7    1
    69    57    63   am
    70     3     9   am
    71    66    65    2
    72    12    11    2
    73    11    10    1
    74     7     8    1
    75    65    64    1
    76   142   140   ar
    77   142   141   ar
    78     9    10    1
    79    63    64    1
    80   140   138   ar
    81    64    67    1
    82    10    13    1
    83   141   139   ar
    84   101   102    1
    85   146   145    2
    86   138   137   ar
    87    13    14    1
    88    67    68    1
    89   139   137   ar
    90   102   103    1
    91   145   144    1
    92    50    49    2
    93   147   148    1
    94   147   144    1
    95    68    69    1
    96   149   148    1
    97   137   136    1
    98    14    15    1
    99   150   148    1
   100    53    52    1
   101    49    48    1
   102    47    48    1
   103    48    51    1
   104   144   143    1
   105   135   134    2
   106   103   104    2
   107   110   109    1
   108   136   133    1
   109    51    52    1
   110    52    54    1
   111    15    16    1
   112    69    70    1
   113   134   133    1
   114   133   132    1
   115   180   179    1
   116   171   170    1
   117   111   109    1
   118   105   106    1
   119   109   106    1
   120   172   170    1
   121   127   126    2
   122   179   178    1
   123   106   107    1
   124   132   126   am
   125   170   169    1
   126   126   125    1
   127   130   128    1
   128   178   177    1
   129   169   166    1
   130   107   108    2
   131   177   174    1
   132   176   175    2
   133   125   128    1
   134   125   124    1
   135   163   161   ar
   136   163   164   ar
   137   119   118    2
   138   128   129    1
   139   166   167    1
   140   166   165    1
   141   161   160   ar
   142   154   153    2
   143   168   167    2
   144   175   174    1
   145   115   114    2
   146   152   153    1
   147   152   151    1
   148   118   117    1
   149   174   173    1
   150   165   157   am
   151   164   162   ar
   152   114   113    1
   153   114   116   am
   154   129   131    1
   155   112   113    1
   156   160   162   ar
   157   160   159    1
   158   157   158    2
   159   157   156    1
   160   116   117    1
   161   159   156    1
   162   117   120    1
   163   156   155    1
   164   120   121    1
   165   121   122    1
   166   122   123    1
