@<TRIPOS>MOLECULE
tmp/5tlmA01.pdb
 186 172 0 0 0
SMALL
GASTEIGER

@<TRIPOS>ATOM
      1  N          0.7620   24.6900   13.3810 N.3    37  MET37      -0.1230
      2  CA        -0.2610   24.6190   12.3430 C.3    37  MET37       0.1702
      3  C         -0.3710   23.2110   11.7810 C.2    37  MET37       0.2592
      4  O         -1.4730   22.7380   11.4800 O.2    37  MET37      -0.2718
      5  CB         0.0510   25.6060   11.2210 C.3    37  MET37       0.0401
      6  CG        -0.3370   27.0370   11.5070 C.3    37  MET37       0.0596
      7  SD        -0.0880   28.0600   10.0460 S.3    37  MET37      -0.1393
      8  CE        -1.0720   27.1790    8.8370 C.3    37  MET37       0.0692
      9  N          0.7640   22.5270   11.6240 N.am   38  MET38      -0.1979
     10  CA         0.7330   21.1560   11.1300 C.3    38  MET38       0.1605
     11  C         -0.0610   20.2570   12.0670 C.2    38  MET38       0.2287
     12  O         -0.8490   19.4210   11.6150 O.2    38  MET38      -0.2864
     13  CB         2.1550   20.6260   10.9510 C.3    38  MET38       0.0413
     14  CG         2.1870   19.2210   10.3320 C.3    38  MET38       0.0598
     15  SD         3.8280   18.6320    9.8950 S.3    38  MET38      -0.1393
     16  CE         4.4360   19.9890    8.8680 C.3    38  MET38       0.0692
     17  N         -4.1450   21.7100   12.3020 N.3    41  LEU41      -0.1231
     18  CA        -4.9820   21.4220   11.1410 C.3    41  LEU41       0.1693
     19  C         -5.1490   19.9240   10.9250 C.2    41  LEU41       0.2592
     20  O         -6.1500   19.4900   10.3410 O.2    41  LEU41      -0.2718
     21  CB        -4.3870   22.0660    9.8890 C.3    41  LEU41       0.0284
     22  CG        -4.0880   23.5630    9.9380 C.3    41  LEU41       0.0019
     23  CD1       -3.5550   24.0370    8.5960 C.3    41  LEU41       0.0001
     24  CD2       -5.3220   24.3490   10.3380 C.3    41  LEU41       0.0001
     25  N         -4.1780   19.1270   11.3780 N.am   42  THR42      -0.1953
     26  CA        -4.2560   17.6760   11.2480 C.3    42  THR42       0.1897
     27  C         -5.3220   17.0980   12.1700 C.2    42  THR42       0.2313
     28  O         -6.1390   16.2700   11.7500 O.2    42  THR42      -0.2863
     29  CB        -2.8920   17.0560   11.5590 C.3    42  THR42       0.1794
     30  OG1       -2.0460   17.1460   10.4030 O.3    42  THR42      -0.2208
     31  CG2       -3.0340   15.6010   11.9930 C.3    42  THR42       0.0378
     32  N         -7.8010   18.7140   13.4800 N.3    44  LEU44      -0.1231
     33  CA        -9.0920   19.2480   13.0660 C.3    44  LEU44       0.1693
     34  C         -9.6230   18.5240   11.8350 C.2    44  LEU44       0.2591
     35  O        -10.8160   18.2120   11.7580 O.2    44  LEU44      -0.2718
     36  CB        -8.9670   20.7460   12.7980 C.3    44  LEU44       0.0284
     37  CG       -10.2540   21.4550   12.3830 C.3    44  LEU44       0.0019
     38  CD1      -11.3600   21.1410   13.3750 C.3    44  LEU44       0.0001
     39  CD2      -10.0110   22.9510   12.2850 C.3    44  LEU44       0.0001
     40  N         -8.7580   18.2490   10.8580 N.am   45  ALA45      -0.1980
     41  CA        -9.1900   17.4680    9.7030 C.3    45  ALA45       0.1597
     42  C         -9.5990   16.0620   10.1210 C.2    45  ALA45       0.2287
     43  O        -10.5530   15.4920    9.5780 O.2    45  ALA45      -0.2864
     44  CB        -8.0780   17.4110    8.6570 C.3    45  ALA45       0.0319
     45  N        -12.9720   16.1010   11.6910 N.3    48  GLU48      -0.1245
     46  CA       -13.9720   16.4180   10.6790 C.3    48  GLU48       0.1567
     47  C        -14.3000   15.2190    9.8030 C.2    48  GLU48       0.2260
     48  O        -15.4230   15.1190    9.2960 O.2    48  GLU48      -0.2867
     49  CB       -13.4950   17.5760    9.8090 C.3    48  GLU48       0.0388
     50  CG       -13.6690   18.9290   10.4530 C.3    48  GLU48       0.1160
     51  CD       -13.3500   20.0560    9.5030 C.2    48  GLU48       0.3649
     52  OE1      -12.1600   20.2460    9.1810 O.co2  48  GLU48      -0.2457
     53  OE2      -14.2930   20.7410    9.0580 O.co2  48  GLU48      -0.2457
     54  N        -10.2920   15.6140    0.9240 N.3    79  LEU79      -0.1245
     55  CA        -9.5810   16.8740    1.1210 C.3    79  LEU79       0.1561
     56  C        -10.2210   18.0040    0.3270 C.2    79  LEU79       0.2260
     57  O        -10.1210   19.1730    0.7200 O.2    79  LEU79      -0.2867
     58  CB        -8.1100   16.7150    0.7450 C.3    79  LEU79       0.0270
     59  CG        -7.2020   17.9090    1.0410 C.3    79  LEU79       0.0019
     60  CD1       -7.3790   18.3770    2.4840 C.3    79  LEU79       0.0001
     61  CD2       -5.7510   17.5560    0.7610 C.3    79  LEU79       0.0001
     62  N        -13.1650   19.0710    2.7000 N.3    82  LEU82      -0.1231
     63  CA       -12.6810   19.9680    3.7410 C.3    82  LEU82       0.1693
     64  C        -12.3650   21.3430    3.1640 C.2    82  LEU82       0.2591
     65  O        -12.7270   22.3660    3.7550 O.2    82  LEU82      -0.2718
     66  CB       -11.4580   19.3610    4.4320 C.3    82  LEU82       0.0284
     67  CG       -11.7240   18.0760    5.2300 C.3    82  LEU82       0.0019
     68  CD1      -10.4580   17.5210    5.8570 C.3    82  LEU82       0.0001
     69  CD2      -12.7850   18.3160    6.2980 C.3    82  LEU82       0.0001
     70  N        -11.7350   21.3890    1.9870 N.am   83  MET83      -0.1979
     71  CA       -11.2690   22.6620    1.4460 C.3    83  MET83       0.1605
     72  C        -12.4290   23.5560    1.0240 C.2    83  MET83       0.2287
     73  O        -12.4500   24.7500    1.3480 O.2    83  MET83      -0.2864
     74  CB       -10.3140   22.4170    0.2820 C.3    83  MET83       0.0413
     75  CG        -8.8870   22.1750    0.7290 C.3    83  MET83       0.0598
     76  SD        -7.7700   21.9320   -0.6490 S.3    83  MET83      -0.1393
     77  CE        -6.2190   21.6590    0.2040 C.3    83  MET83       0.0692
     78  N        -13.8760   24.7680    4.0090 N.3    86  LEU86      -0.1245
     79  CA       -13.0460   25.8590    4.5090 C.3    86  LEU86       0.1561
     80  C        -13.3090   27.1390    3.7290 C.2    86  LEU86       0.2260
     81  O        -13.5600   28.1980    4.3140 O.2    86  LEU86      -0.2867
     82  CB       -11.5670   25.4810    4.4260 C.3    86  LEU86       0.0270
     83  CG       -10.5920   26.6510    4.5800 C.3    86  LEU86       0.0019
     84  CD1      -10.7780   27.3300    5.9270 C.3    86  LEU86       0.0001
     85  CD2       -9.1610   26.1750    4.4090 C.3    86  LEU86       0.0001
     86  N        -16.8200   28.7930    4.6870 N.3    89  ARG89      -0.1245
     87  CA       -16.9720   29.5400    5.9300 C.3    89  ARG89       0.1563
     88  C        -15.9950   30.7050    6.0500 C.2    89  ARG89       0.2260
     89  O        -16.1440   31.5190    6.9670 O.2    89  ARG89      -0.2867
     90  CB       -16.8380   28.6080    7.1390 C.3    89  ARG89       0.0307
     91  CG       -15.5180   27.8840    7.2500 C.3    89  ARG89       0.0489
     92  CD       -15.5210   26.9400    8.4480 C.3    89  ARG89       0.2205
     93  NE       -14.2800   26.1790    8.5350 N.pl3  89  ARG89      -0.0865
     94  CZ       -14.1450   24.9230    8.1200 C.cat  89  ARG89       0.5346
     95  NH1      -15.1820   24.2780    7.5960 N.pl3  89  ARG89       0.1354
     96  NH2      -12.9730   24.3120    8.2320 N.pl3  89  ARG89       0.1354
     97  N        -10.3320   28.3980    9.3940 N.3    99  PHE99      -0.1241
     98  CA       -10.2470   26.9550    9.6050 C.3    99  PHE99       0.1605
     99  C        -11.1850   26.5040   10.7140 C.2    99  PHE99       0.2264
    100  O        -11.6900   25.3770   10.6820 O.2    99  PHE99      -0.2867
    101  CB        -8.8110   26.5450    9.9280 C.3    99  PHE99       0.0534
    102  CG        -7.8510   26.7560    8.7970 C.ar   99  PHE99      -0.0203
    103  CD1       -7.6050   25.7470    7.8830 C.ar   99  PHE99      -0.0042
    104  CD2       -7.1910   27.9640    8.6480 C.ar   99  PHE99      -0.0042
    105  CE1       -6.7160   25.9390    6.8390 C.ar   99  PHE99      -0.0003
    106  CE2       -6.3030   28.1630    7.6040 C.ar   99  PHE99      -0.0003
    107  CZ        -6.0670   27.1480    6.6980 C.ar   99  PHE99      -0.0000
    108  N          0.2560   31.6980    7.4460 N.3   110  GLY110     -0.1225
    109  CA         0.0940   30.6990    6.4050 C.3   110  GLY110      0.1811
    110  C          1.3980   30.2730    5.7710 C.2   110  GLY110      0.2280
    111  O          1.4990   29.1430    5.2770 O.2   110  GLY110     -0.2866
    112  N          3.9850   29.7450    7.5170 N.3   112  CYS112     -0.1235
    113  CA         4.6340   28.8860    8.5070 C.3   112  CYS112      0.1677
    114  C          4.3950   27.4160    8.1890 C.2   112  CYS112      0.2270
    115  O          3.5830   27.0810    7.3260 O.2   112  CYS112     -0.2867
    116  CB         4.1340   29.1890    9.9260 C.3   112  CYS112      0.0956
    117  SG         4.3930   30.8840   10.5020 S.3   112  CYS112     -0.0801
    118  N          6.7300   25.1060    3.3590 N.3   114  GLY114     -0.1210
    119  CA         5.9290   24.6440    2.2550 C.3   114  GLY114      0.1956
    120  C          4.6390   25.3750    2.4180 C.2   114  GLY114      0.2611
    121  O          4.5080   26.1940    3.3280 O.2   114  GLY114     -0.2717
    122  N          3.6730   25.0780    1.5640 N.am  115  MET115     -0.1979
    123  CA         3.4520   25.9050    0.4100 C.3   115  MET115      0.1605
    124  C          2.2760   26.8350    0.6060 C.2   115  MET115      0.2287
    125  O          1.1460   26.4190    0.7810 O.2   115  MET115     -0.2864
    126  CB         3.2690   25.0480   -0.8320 C.3   115  MET115      0.0413
    127  CG         4.5390   24.2790   -1.1590 C.3   115  MET115      0.0598
    128  SD         4.3630   22.8000   -2.1180 S.3   115  MET115     -0.1393
    129  CE         3.7260   23.4850   -3.3800 C.3   115  MET115      0.0692
    130  N         -1.1340   27.4420   -2.1880 N.3   118  ILE118     -0.1231
    131  CA        -2.4360   26.8840   -1.8360 C.3   118  ILE118      0.1692
    132  C         -3.2170   27.8700   -0.9810 C.2   118  ILE118      0.2592
    133  O         -4.4310   28.0370   -1.1540 O.2   118  ILE118     -0.2718
    134  CB        -2.2650   25.5330   -1.1160 C.3   118  ILE118      0.0266
    135  CG1       -1.2910   24.6290   -1.8760 C.3   118  ILE118      0.0019
    136  CG2       -3.6160   24.8390   -0.9470 C.3   118  ILE118      0.0020
    137  CD1       -0.8400   23.4150   -1.0790 C.3   118  ILE118      0.0001
    138  N         -2.5290   28.5380   -0.0460 N.am  119  PHE119     -0.1976
    139  CA        -3.1920   29.4730    0.8610 C.3   119  PHE119      0.1639
    140  C         -3.8320   30.6150    0.0870 C.2   119  PHE119      0.2290
    141  O         -5.0110   30.9290    0.2830 O.2   119  PHE119     -0.2864
    142  CB        -2.1870   30.0120    1.8850 C.3   119  PHE119      0.0560
    143  CG        -2.8150   30.5720    3.1380 C.ar  119  PHE119     -0.0200
    144  CD1       -2.8230   29.8290    4.3100 C.ar  119  PHE119     -0.0042
    145  CD2       -3.3750   31.8430    3.1530 C.ar  119  PHE119     -0.0042
    146  CE1       -3.3870   30.3350    5.4710 C.ar  119  PHE119     -0.0003
    147  CE2       -3.9440   32.3540    4.3130 C.ar  119  PHE119     -0.0003
    148  CZ        -3.9480   31.5980    5.4720 C.ar  119  PHE119     -0.0000
    149  N         -6.7170   29.2690   -1.9030 N.3   122  LEU122     -0.1245
    150  CA        -7.9050   29.1510   -1.0650 C.3   122  LEU122      0.1561
    151  C         -8.5190   30.5220   -0.7980 C.2   122  LEU122      0.2260
    152  O         -9.7460   30.6790   -0.8280 O.2   122  LEU122     -0.2867
    153  CB        -7.5530   28.4420    0.2450 C.3   122  LEU122      0.0270
    154  CG        -7.2000   26.9530    0.1760 C.3   122  LEU122      0.0019
    155  CD1       -6.5080   26.4950    1.4500 C.3   122  LEU122      0.0001
    156  CD2       -8.4420   26.1100   -0.0780 C.3   122  LEU122      0.0001
    157  N         -2.1320   19.9460   -1.8870 N.3   205  GLY205     -0.1225
    158  CA        -2.0760   19.6390   -0.4690 C.3   205  GLY205      0.1811
    159  C         -1.9010   18.1620   -0.1870 C.2   205  GLY205      0.2280
    160  O         -1.2750   17.7890    0.8090 O.2   205  GLY205     -0.2866
    161  N          1.7000   17.2680   -0.6270 N.3   208  HIS208     -0.1226
    162  CA         2.4400   17.9040    0.4620 C.3   208  HIS208      0.1752
    163  C          2.3080   17.0990    1.7510 C.2   208  HIS208      0.2595
    164  O          3.3000   16.8940    2.4620 O.2   208  HIS208     -0.2718
    165  CB         1.9510   19.3440    0.6600 C.3   208  HIS208      0.0759
    166  CG         2.6970   20.1180    1.7100 C.ar  208  HIS208      0.0818
    167  ND1        3.2870   21.3380    1.4560 N.ar  208  HIS208     -0.2268
    168  CD2        2.9130   19.8680    3.0240 C.ar  208  HIS208      0.1154
    169  CE1        3.8500   21.7950    2.5610 C.ar  208  HIS208      0.1986
    170  NE2        3.6370   20.9210    3.5280 N.ar  208  HIS208     -0.2212
    171  N          1.0950   16.6270    2.0620 N.am  209  LEU209     -0.1980
    172  CA         0.8990   15.8140    3.2600 C.3   209  LEU209      0.1596
    173  C          1.7240   14.5330    3.2090 C.2   209  LEU209      0.2287
    174  O          2.2280   14.0740    4.2410 O.2   209  LEU209     -0.2864
    175  CB        -0.5840   15.4920    3.4380 C.3   209  LEU209      0.0297
    176  CG        -1.4880   16.6550    3.8440 C.3   209  LEU209      0.0022
    177  CD1       -2.9220   16.1810    3.8280 C.3   209  LEU209      0.0001
    178  CD2       -1.1550   17.1780    5.2180 C.3   209  LEU209      0.0001
    179  N          5.4450   15.5310    4.1370 N.3   212  MET212     -0.1245
    180  CA         5.6140   15.7670    5.5720 C.3   212  MET212      0.1570
    181  C          5.1170   14.5410    6.3400 C.2   212  MET212      0.2261
    182  O          4.0710   14.5450    6.9920 O.2   212  MET212     -0.2867
    183  CB         4.8820   17.0340    5.9950 C.3   212  MET212      0.0387
    184  CG         5.3530   18.2990    5.2880 C.3   212  MET212      0.0595
    185  SD         7.1040   18.6570    5.5530 S.3   212  MET212     -0.1393
    186  CE         7.2980   20.1480    4.5780 C.3   212  MET212      0.0692
@<TRIPOS>BOND
     1   129   128    1
     2   130   131    1
     3   128   127    1
     4   149   150    1
     5   157   158    1
     6   135   134    1
     7   135   137    1
     8   131   134    1
     9   131   132    1
    10   127   126    1
    11   133   132    2
    12   134   136    1
    13   150   151    1
    14   150   153    1
    15   132   138   am
    16   126   123    1
    17   152   151    2
    18    76    77    1
    19    76    75    1
    20   161   162    1
    21   158   159    1
    22   159   160    2
    23   156   154    1
    24   138   139    1
    25   140   141    2
    26   140   139    1
    27   154   153    1
    28   154   155    1
    29    74    75    1
    30    74    71    1
    31    56    57    2
    32    56    55    1
    33   123   124    1
    34   123   122    1
    35   162   165    1
    36   162   163    1
    37   124   125    2
    38   165   166    1
    39    58    59    1
    40    58    55    1
    41    61    59    1
    42   139   142    1
    43    54    55    1
    44    72    73    2
    45    72    71    1
    46    59    60    1
    47    71    70    1
    48   167   166   ar
    49   167   169   ar
    50   122   120   am
    51   166   168   ar
    52   163   171   am
    53   163   164    2
    54   142   143    1
    55    70    64   am
    56   171   172    1
    57   119   120    1
    58   119   118    1
    59   120   121    2
    60   169   170   ar
    61    62    63    1
    62   168   170   ar
    63   143   145   ar
    64   143   144   ar
    65   145   147   ar
    66    64    63    1
    67    64    65    2
    68   173   172    1
    69   173   174    2
    70   172   175    1
    71   175   176    1
    72    80    81    2
    73    80    79    1
    74    63    66    1
    75   177   176    1
    76   176   178    1
    77    78    79    1
    78   179   180    1
    79   144   146   ar
    80   147   148   ar
    81    85    83    1
    82    82    79    1
    83    82    83    1
    84    66    67    1
    85   186   185    1
    86    83    84    1
    87    86    87    1
    88    67    68    1
    89    67    69    1
    90   111   110    2
    91   184   185    1
    92   184   183    1
    93   146   148   ar
    94   180   183    1
    95   180   181    1
    96   110   109    1
    97    87    88    1
    98    87    90    1
    99    88    89    2
   100   181   182    2
   101   109   108    1
   102   107   105   ar
   103   107   106   ar
   104   105   103   ar
   105    90    91    1
   106    91    92    1
   107   115   114    2
   108   112   113    1
   109    95    94    1
   110   106   104   ar
   111   103   102   ar
   112    94    96    1
   113    94    93    2
   114   114   113    1
   115    92    93    1
   116   113   116    1
   117    23    22    1
   118   104   102   ar
   119    44    41    1
   120   102   101    1
   121     8     7    1
   122    16    15    1
   123    53    51   ar
   124    52    51   ar
   125    48    47    2
   126    97    98    1
   127    51    50    1
   128    43    42    2
   129    98   101    1
   130    98    99    1
   131    41    42    1
   132    41    40    1
   133    47    46    1
   134    49    50    1
   135    49    46    1
   136    21    22    1
   137    21    18    1
   138    15    14    1
   139   116   117    1
   140    22    24    1
   141     7     6    1
   142    14    13    1
   143    20    19    2
   144    30    29    1
   145    46    45    1
   146   100    99    2
   147    40    34   am
   148    19    18    1
   149    19    25   am
   150    13    10    1
   151    10     9    1
   152    10    11    1
   153    18    17    1
   154     5     6    1
   155     5     2    1
   156    26    25    1
   157    26    29    1
   158    26    27    1
   159     4     3    2
   160    29    31    1
   161    12    11    2
   162     9     3   am
   163    28    27    2
   164    35    34    2
   165     3     2    1
   166    34    33    1
   167    39    37    1
   168     2     1    1
   169    37    36    1
   170    37    38    1
   171    36    33    1
   172    33    32    1
