@<TRIPOS>MOLECULE
tmp/5tlnA00.pdb
 174 168 0 0 0
SMALL
GASTEIGER

@<TRIPOS>ATOM
      1  N         45.3810   13.3070    1.1160 N.3   111  ASN111     -0.1225
      2  CA        46.7740   13.4690    1.3700 C.3   111  ASN111      0.1785
      3  C         47.5640   14.2450    0.3710 C.2   111  ASN111      0.2597
      4  O         48.4650   13.7500   -0.2220 O.2   111  ASN111     -0.2718
      5  CB        47.4510   12.0810    1.6090 C.3   111  ASN111      0.1169
      6  CG        47.1290   11.4180    2.9650 C.2   111  ASN111      0.2627
      7  OD1       46.8930   11.9530    4.0630 O.2   111  ASN111     -0.2716
      8  ND2       47.1400   10.1460    2.9920 N.am  111  ASN111     -0.0877
      9  N         47.2470   15.4890    0.2580 N.am  112  ASN112     -0.1960
     10  CA        47.9640   16.3390   -0.7130 C.3   112  ASN112      0.1819
     11  C         47.3560   17.7320   -0.7630 C.2   112  ASN112      0.2621
     12  O         46.3230   18.0650   -0.2280 O.2   112  ASN112     -0.2715
     13  CB        47.8710   15.5150   -1.9790 C.3   112  ASN112      0.1195
     14  CG        49.0280   15.7090   -3.0340 C.2   112  ASN112      0.2630
     15  OD1       50.0330   16.4540   -2.9510 O.2   112  ASN112     -0.2716
     16  ND2       48.8370   14.9060   -4.1120 N.am  112  ASN112     -0.0877
     17  N         48.0910   18.5380   -1.5220 N.am  113  ALA113     -0.1963
     18  CA        47.8580   19.8850   -1.7730 C.3   113  ALA113      0.1728
     19  C         48.2810   20.0900   -3.1490 C.2   113  ALA113      0.2616
     20  O         49.1550   19.2890   -3.3670 O.2   113  ALA113     -0.2715
     21  CB        48.7910   20.5960   -0.7960 C.3   113  ALA113      0.0334
     22  N         47.9380   20.9530   -4.0320 N.am  114  PHE114     -0.1974
     23  CA        48.0930   21.4180   -5.3910 C.3   114  PHE114      0.1639
     24  C         47.5950   22.8120   -5.7340 C.2   114  PHE114      0.2290
     25  O         46.8510   23.4850   -5.1010 O.2   114  PHE114     -0.2864
     26  CB        47.3730   20.4110   -6.3460 C.3   114  PHE114      0.0560
     27  CG        45.9180   20.1360   -6.1830 C.ar  114  PHE114     -0.0200
     28  CD1       44.9240   20.7650   -6.9720 C.ar  114  PHE114     -0.0042
     29  CD2       45.5120   19.1910   -5.2830 C.ar  114  PHE114     -0.0042
     30  CE1       43.5610   20.4850   -6.9110 C.ar  114  PHE114     -0.0003
     31  CE2       44.1560   18.9000   -5.1560 C.ar  114  PHE114     -0.0003
     32  CZ        43.1690   19.4770   -5.9310 C.ar  114  PHE114     -0.0000
     33  N         49.8580   12.3730    6.6610 N.3   130  PHE130     -0.1298
     34  CA        49.9290   13.8450    6.6370 C.3   130  PHE130      0.1290
     35  C         48.8490   14.3620    7.6140 C.3   130  PHE130      0.2013
     36  O         47.8430   13.5660    7.8260 O.3   130  PHE130     -0.2188
     37  CB        49.4070   14.5460    5.3720 C.3   130  PHE130      0.0480
     38  CG        50.4450   14.3840    4.2930 C.ar  130  PHE130     -0.0206
     39  CD1       50.4980   13.4930    3.2760 C.ar  130  PHE130     -0.0042
     40  CD2       51.5000   15.2980    4.3610 C.ar  130  PHE130     -0.0042
     41  CE1       51.5080   13.3990    2.3320 C.ar  130  PHE130     -0.0003
     42  CE2       52.5390   15.2430    3.4590 C.ar  130  PHE130     -0.0003
     43  CZ        52.5550   14.3130    2.4630 C.ar  130  PHE130     -0.0000
     44  N         47.7490   19.8470    5.2150 N.3   133  LEU133     -0.1301
     45  CA        48.8700   20.4120    4.4860 C.3   133  LEU133      0.1247
     46  C         49.1670   21.8310    4.5230 C.3   133  LEU133      0.2009
     47  O         50.4060   22.0930    4.1760 O.3   133  LEU133     -0.2188
     48  CB        48.8080   19.8000    3.0150 C.3   133  LEU133      0.0217
     49  CG        49.0310   18.3390    3.2480 C.3   133  LEU133      0.0015
     50  CD1       47.7940   17.4560    3.3520 C.3   133  LEU133      0.0000
     51  CD2       49.8490   17.8380    2.0810 C.3   133  LEU133      0.0000
     52  N         55.3200   23.8690    1.7550 N.3   139  VAL139     -0.1245
     53  CA        54.1510   23.1770    1.0090 C.3   139  VAL139      0.1561
     54  C         53.4570   24.3170    0.3730 C.2   139  VAL139      0.2260
     55  O         53.3410   24.3830   -0.8300 O.2   139  VAL139     -0.2867
     56  CB        53.2510   22.3750    1.9530 C.3   139  VAL139      0.0252
     57  CG1       51.8960   21.9600    1.3310 C.3   139  VAL139      0.0019
     58  CG2       53.8950   21.2250    2.5910 C.3   139  VAL139      0.0019
     59  N         55.5790   26.1350   -2.1910 N.3   142  HIS142     -0.1226
     60  CA        55.8690   25.1940   -3.2420 C.3   142  HIS142      0.1752
     61  C         54.7280   25.3330   -4.3380 C.2   142  HIS142      0.2595
     62  O         54.9200   25.3630   -5.4750 O.2   142  HIS142     -0.2718
     63  CB        56.1170   23.8250   -2.7150 C.3   142  HIS142      0.0759
     64  CG        56.1370   22.7210   -3.7310 C.ar  142  HIS142      0.0818
     65  ND1       57.1730   21.8780   -3.9620 N.ar  142  HIS142     -0.2268
     66  CD2       55.1460   22.3850   -4.5760 C.ar  142  HIS142      0.1154
     67  CE1       56.8400   21.0540   -5.0030 C.ar  142  HIS142      0.1986
     68  NE2       55.5650   21.3660   -5.3690 N.ar  142  HIS142     -0.2212
     69  N         53.5300   25.4650   -3.8120 N.am  143  GLU143     -0.1979
     70  CA        52.1670   25.5850   -4.4060 C.3   143  GLU143      0.1602
     71  C         51.9980   26.8760   -5.1130 C.2   143  GLU143      0.2287
     72  O         51.5800   26.9920   -6.2830 O.2   143  GLU143     -0.2864
     73  CB        51.1090   25.3450   -3.4040 C.3   143  GLU143      0.0415
     74  CG        50.9340   23.8300   -2.9330 C.3   143  GLU143      0.1163
     75  CD        51.1760   22.7760   -4.0160 C.2   143  GLU143      0.3649
     76  OE1       51.2050   22.5400   -5.2070 O.co2 143  GLU143     -0.2457
     77  OE2       51.4840   21.7700   -3.2810 O.co2 143  GLU143     -0.2457
     78  N         54.2150   27.2750   -8.1980 N.3   146  HIS146     -0.1241
     79  CA        53.6340   26.5590   -9.3300 C.3   146  HIS146      0.1621
     80  C         52.8530   27.6380  -10.1380 C.2   146  HIS146      0.2264
     81  O         52.8120   27.4910  -11.3270 O.2   146  HIS146     -0.2867
     82  CB        52.6850   25.3940   -9.0380 C.3   146  HIS146      0.0745
     83  CG        53.2950   24.1250   -8.6610 C.ar  146  HIS146      0.0817
     84  ND1       54.3020   23.4650   -9.3630 N.ar  146  HIS146     -0.2268
     85  CD2       53.0350   23.2340   -7.6890 C.ar  146  HIS146      0.1154
     86  CE1       54.5640   22.2440   -8.8520 C.ar  146  HIS146      0.1986
     87  NE2       53.8320   22.0980   -7.7940 N.ar  146  HIS146     -0.2212
     88  N         53.7800   19.8930  -17.3850 N.3   157  TYR157     -0.1298
     89  CA        53.9750   18.9690  -16.2850 C.3   157  TYR157      0.1290
     90  C         54.3640   17.5460  -16.5670 C.3   157  TYR157      0.2013
     91  O         53.6460   16.7100  -15.9610 O.3   157  TYR157     -0.2188
     92  CB        52.6980   19.0110  -15.3820 C.3   157  TYR157      0.0480
     93  CG        53.0470   18.7950  -13.8970 C.ar  157  TYR157     -0.0204
     94  CD1       52.4500   17.7300  -13.1320 C.ar  157  TYR157     -0.0009
     95  CD2       53.9210   19.6070  -13.1540 C.ar  157  TYR157     -0.0009
     96  CE1       52.6770   17.5210  -11.8230 C.ar  157  TYR157      0.0417
     97  CE2       54.2030   19.4800  -11.7690 C.ar  157  TYR157      0.0417
     98  CZ        53.5340   18.4100  -11.1430 C.ar  157  TYR157      0.1957
     99  OH        53.6980   18.1240   -9.8150 O.3   157  TYR157     -0.2866
    100  N         58.6860   21.0920  -10.6130 N.3   166  GLU166     -0.1301
    101  CA        58.5490   20.5240   -9.2690 C.3   166  GLU166      0.1252
    102  C         59.8450   20.9450   -8.4840 C.3   166  GLU166      0.2009
    103  O         59.5200   21.2960   -7.4300 O.3   166  GLU166     -0.2188
    104  CB        58.6080   19.0170   -9.2180 C.3   166  GLU166      0.0335
    105  CG        57.3070   18.3460   -9.3960 C.3   166  GLU166      0.1156
    106  CD        56.4480   18.8940   -8.3470 C.2   166  GLU166      0.3649
    107  OE1       55.4420   19.4430   -8.4780 O.co2 166  GLU166     -0.2457
    108  OE2       56.8350   18.8200   -7.1110 O.co2 166  GLU166     -0.2457
    109  N         61.6120   18.8490    2.4130 N.3   188  ILE188     -0.1231
    110  CA        60.2590   19.1730    2.0400 C.3   188  ILE188      0.1692
    111  C         59.1120   18.4480    2.8300 C.2   188  ILE188      0.2592
    112  O         59.0700   17.1640    2.7880 O.2   188  ILE188     -0.2718
    113  CB        60.0490   18.9700    0.4850 C.3   188  ILE188      0.0266
    114  CG1       61.2710   19.6920   -0.0590 C.3   188  ILE188      0.0019
    115  CG2       58.7480   19.5250   -0.0150 C.3   188  ILE188      0.0020
    116  CD1       61.2220   21.1880    0.0630 C.3   188  ILE188      0.0001
    117  N         58.1900   19.2780    3.3920 N.am  189  GLY189     -0.1957
    118  CA        57.0550   18.7460    4.1270 C.3   189  GLY189      0.1869
    119  C         57.2010   18.1280    5.4770 C.2   189  GLY189      0.2309
    120  O         56.2880   17.6370    6.0890 O.2   189  GLY189     -0.2863
    121  N         58.9810   14.3650    3.2570 N.3   202  LEU202     -0.1231
    122  CA        58.5650   13.8240    1.9760 C.3   202  LEU202      0.1693
    123  C         59.7760   13.5780    1.0860 C.2   202  LEU202      0.2595
    124  O         59.9370   12.4520    0.7340 O.2   202  LEU202     -0.2718
    125  CB        57.4510   14.7580    1.5090 C.3   202  LEU202      0.0284
    126  CG        56.5030   14.2230    0.3960 C.3   202  LEU202      0.0019
    127  CD1       56.1360   12.8230    0.8190 C.3   202  LEU202      0.0001
    128  CD2       55.2560   15.0430    0.2810 C.3   202  LEU202      0.0001
    129  N         60.6020   14.6070    0.8850 N.am  203  ARG203     -0.1934
    130  CA        61.7570   14.6200    0.1450 C.3   203  ARG203      0.1813
    131  C         62.8730   15.4310    0.8180 C.2   203  ARG203      0.2332
    132  O         62.5610   16.2920    1.5800 O.2   203  ARG203     -0.2860
    133  CB        61.5850   15.3930   -1.2300 C.2   203  ARG203      0.0019
    134  CG        60.6700   14.9040   -2.2480 C.2   203  ARG203      0.0178
    135  CD        60.4450   15.6450   -3.5030 C.3   203  ARG203      0.2464
    136  NE        59.5740   16.8200   -3.4550 N.pl3 203  ARG203     -0.0815
    137  CZ        58.2740   16.8920   -3.4090 C.cat 203  ARG203      0.5349
    138  NH1       57.4470   15.8220   -3.3730 N.pl3 203  ARG203      0.1354
    139  NH2       57.6380   18.1370   -3.4240 N.pl3 203  ARG203      0.1354
    140  N         55.3710    6.0790  -14.2900 N.3   225  GLN225     -0.1231
    141  CA        54.4510    6.6280  -13.2160 C.3   225  GLN225      0.1698
    142  C         54.9020    8.0550  -12.9450 C.2   225  GLN225      0.2592
    143  O         56.0590    8.5930  -13.3480 O.2   225  GLN225     -0.2718
    144  CB        54.2780    5.5600  -12.1510 C.3   225  GLN225      0.0381
    145  CG        55.4820    4.7420  -11.8160 C.3   225  GLN225      0.0905
    146  CD        55.7910    4.3510  -10.3510 C.2   225  GLN225      0.2608
    147  OE1       56.1730    5.1170   -9.3460 O.2   225  GLN225     -0.2717
    148  NE2       55.6270    2.9670  -10.1490 N.am  225  GLN225     -0.0878
    149  N         53.9720    8.7760  -12.2550 N.am  226  ASP226     -0.1974
    150  CA        54.1500   10.1940  -11.8670 C.3   226  ASP226      0.1709
    151  C         54.6060   11.1490  -12.9290 C.2   226  ASP226      0.2293
    152  O         55.5200   11.9540  -12.6200 O.2   226  ASP226     -0.2864
    153  CB        55.3100   10.2820  -10.8000 C.3   226  ASP226      0.1436
    154  CG        55.5320   11.5220   -9.9930 C.2   226  ASP226      0.3671
    155  OD1       54.6920   12.3300   -9.5430 O.co2 226  ASP226     -0.2456
    156  OD2       56.6860   11.7490   -9.6770 O.co2 226  ASP226     -0.2456
    157  N         58.1940   14.0900   -9.6210 N.3   231  HIS231     -0.1226
    158  CA        58.5010   14.1850   -8.2550 C.3   231  HIS231      0.1752
    159  C         59.6830   13.2810   -7.8130 C.2   231  HIS231      0.2595
    160  O         60.0250   13.3340   -6.6600 O.2   231  HIS231     -0.2718
    161  CB        57.4110   13.9140   -7.0550 C.3   231  HIS231      0.0759
    162  CG        56.1820   14.7410   -7.3140 C.ar  231  HIS231      0.0818
    163  ND1       55.3220   14.3260   -8.2240 N.ar  231  HIS231     -0.2268
    164  CD2       55.6420   15.8820   -6.7660 C.ar  231  HIS231      0.1154
    165  CE1       54.2740   15.1910   -8.2510 C.ar  231  HIS231      0.1986
    166  NE2       54.4570   16.1190   -7.3410 N.ar  231  HIS231     -0.2212
    167  N         60.2850   12.5380   -8.6740 N.am  232  ILE232     -0.1980
    168  CA        61.4180   11.6220   -8.5720 C.3   232  ILE232      0.1595
    169  C         62.6200   12.2900   -9.1610 C.2   232  ILE232      0.2287
    170  O         63.5490   12.6260   -8.3670 O.2   232  ILE232     -0.2864
    171  CB        61.2330   10.2040   -9.2830 C.3   232  ILE232      0.0276
    172  CG1       59.9750    9.5180   -8.7710 C.3   232  ILE232      0.0022
    173  CG2       62.6220    9.5340   -9.1030 C.3   232  ILE232      0.0022
    174  CD1       59.4810    8.3210   -9.6370 C.3   232  ILE232      0.0001
@<TRIPOS>BOND
     1    88    89    1
     2    90    89    1
     3    90    91    1
     4    89    92    1
     5    92    93    1
     6   140   141    1
     7    93    95   ar
     8    93    94   ar
     9   143   142    2
    10   141   142    1
    11   141   144    1
    12    95    97   ar
    13    94    96   ar
    14   142   149   am
    15   151   152    2
    16   151   150    1
    17   149   150    1
    18   144   145    1
    19   150   153    1
    20    96    98   ar
    21   145   146    1
    22    97    98   ar
    23    81    80    2
    24    98    99    1
    25   153   154    1
    26   100   101    1
    27   146   148   am
    28   146   147    2
    29    80    79    1
    30   154   156   ar
    31   154   155   ar
    32   174   172    1
    33   157   158    1
    34   105   104    1
    35   105   106    1
    36    84    86   ar
    37    84    83   ar
    38    79    82    1
    39    79    78    1
    40   171   173    1
    41   171   172    1
    42   171   168    1
    43   101   104    1
    44   101   102    1
    45   169   168    1
    46   169   170    2
    47    82    83    1
    48    86    87   ar
    49   167   168    1
    50   167   159   am
    51    83    85   ar
    52   102   103    1
    53   107   106   ar
    54   106   108   ar
    55   158   159    1
    56   158   161    1
    57   165   163   ar
    58   165   166   ar
    59   163   162   ar
    60   159   160    2
    61    87    85   ar
    62   166   164   ar
    63   162   161    1
    64   162   164   ar
    65    28    30   ar
    66    28    27   ar
    67    30    32   ar
    68    26    27    1
    69    26    23    1
    70    72    71    2
    71    27    29   ar
    72    32    31   ar
    73    24    23    1
    74    24    25    2
    75    62    61    2
    76    23    22    1
    77    68    67   ar
    78    68    66   ar
    79    29    31   ar
    80    76    75   ar
    81    71    70    1
    82    67    65   ar
    83    66    64   ar
    84    70    69    1
    85    70    73    1
    86    61    69   am
    87    61    60    1
    88    16    14   am
    89    22    19   am
    90    75    77   ar
    91    75    74    1
    92    65    64   ar
    93    64    63    1
    94   135   136    1
    95   135   134    1
    96   136   137    2
    97   139   137    1
    98   137   138    1
    99    73    74    1
   100    20    19    2
   101    60    63    1
   102    60    59    1
   103    19    18    1
   104    14    15    2
   105    14    13    1
   106   134   133    2
   107    13    10    1
   108    18    17    1
   109    18    21    1
   110    17    11   am
   111   133   130    1
   112    55    54    2
   113    11    10    1
   114    11    12    2
   115    10     9    1
   116     4     3    2
   117   114   116    1
   118   114   113    1
   119   115   113    1
   120   130   131    1
   121   130   129    1
   122     9     3   am
   123   128   126    1
   124     3     2    1
   125    54    53    1
   126   126   127    1
   127   126   125    1
   128   113   110    1
   129   124   123    2
   130   131   132    2
   131   129   123   am
   132    53    52    1
   133    53    56    1
   134   123   122    1
   135     1     2    1
   136    57    56    1
   137     2     5    1
   138   125   122    1
   139     5     6    1
   140    56    58    1
   141   122   121    1
   142   110   109    1
   143   110   111    1
   144    51    49    1
   145    41    43   ar
   146    41    39   ar
   147    43    42   ar
   148   112   111    2
   149   111   117   am
   150     6     8   am
   151     6     7    2
   152    48    49    1
   153    48    45    1
   154    49    50    1
   155    39    38   ar
   156   117   118    1
   157    42    40   ar
   158   118   119    1
   159    47    46    1
   160    38    40   ar
   161    38    37    1
   162    45    46    1
   163    45    44    1
   164    37    34    1
   165   119   120    2
   166    34    33    1
   167    34    35    1
   168    35    36    1
