@<TRIPOS>MOLECULE
tmp/5tloB01.pdb
 207 193 0 0 0
SMALL
GASTEIGER

@<TRIPOS>ATOM
      1  N         10.1860    0.1010  -22.2840 N.3    34  GLU34      -0.1245
      2  CA         9.8110    1.2460  -21.4610 C.3    34  GLU34       0.1567
      3  C         10.4650    2.5260  -21.9680 C.2    34  GLU34       0.2260
      4  O          9.8260    3.5830  -22.0070 O.2    34  GLU34      -0.2867
      5  CB        10.1780    0.9940  -19.9990 C.3    34  GLU34       0.0388
      6  CG         9.7920    2.1340  -19.0680 C.3    34  GLU34       0.1160
      7  CD         9.8930    1.7560  -17.6050 C.2    34  GLU34       0.3649
      8  OE1       10.2470    0.5940  -17.3130 O.co2  34  GLU34      -0.2457
      9  OE2        9.6150    2.6190  -16.7460 O.co2  34  GLU34      -0.2457
     10  N          8.2380    5.5060  -24.2050 N.3    38  MET38      -0.1245
     11  CA         8.2080    6.8360  -23.6090 C.3    38  MET38       0.1570
     12  C          8.8940    7.8660  -24.4950 C.2    38  MET38       0.2261
     13  O          8.4900    9.0350  -24.5120 O.2    38  MET38      -0.2867
     14  CB         8.8560    6.8070  -22.2260 C.3    38  MET38       0.0387
     15  CG         8.0590    6.0430  -21.1830 C.3    38  MET38       0.0595
     16  SD         6.3010    6.4450  -21.2170 S.3    38  MET38      -0.1393
     17  CE         6.3380    8.2080  -20.9080 C.3    38  MET38       0.0692
     18  N          6.3490    8.9250  -27.0870 N.3    41  LEU41      -0.1231
     19  CA         5.2730    9.7430  -26.5380 C.3    41  LEU41       0.1693
     20  C          5.7490   11.1560  -26.2230 C.2    41  LEU41       0.2592
     21  O          5.0370   12.1310  -26.4930 O.2    41  LEU41      -0.2718
     22  CB         4.6970    9.0810  -25.2870 C.3    41  LEU41       0.0284
     23  CG         4.0170    7.7280  -25.4970 C.3    41  LEU41       0.0019
     24  CD1        3.4530    7.1950  -24.1900 C.3    41  LEU41       0.0001
     25  CD2        2.9290    7.8380  -26.5540 C.3    41  LEU41       0.0001
     26  N          6.9460   11.2880  -25.6470 N.am   42  THR42      -0.1953
     27  CA         7.4600   12.6150  -25.3260 C.3    42  THR42       0.1897
     28  C          7.9080   13.3640  -26.5730 C.2    42  THR42       0.2313
     29  O          7.8020   14.5950  -26.6250 O.2    42  THR42      -0.2863
     30  CB         8.6110   12.5100  -24.3290 C.3    42  THR42       0.1794
     31  OG1        9.5490   11.5250  -24.7800 O.3    42  THR42      -0.2208
     32  CG2        8.0840   12.1220  -22.9610 C.3    42  THR42       0.0378
     33  N          6.3520   13.0520  -29.4220 N.3    44  LEU44      -0.1231
     34  CA         5.0820   13.4950  -29.9840 C.3    44  LEU44       0.1693
     35  C          4.5100   14.6710  -29.2030 C.2    44  LEU44       0.2591
     36  O          3.9990   15.6290  -29.7970 O.2    44  LEU44      -0.2718
     37  CB         4.0930   12.3310  -30.0070 C.3    44  LEU44       0.0284
     38  CG         2.6720   12.6380  -30.4770 C.3    44  LEU44       0.0019
     39  CD1        2.6850   13.1500  -31.9040 C.3    44  LEU44       0.0001
     40  CD2        1.7910   11.4010  -30.3520 C.3    44  LEU44       0.0001
     41  N          4.5890   14.6180  -27.8700 N.am   45  ALA45      -0.1980
     42  CA         4.0280   15.6890  -27.0520 C.3    45  ALA45       0.1597
     43  C          4.7520   17.0080  -27.2910 C.2    45  ALA45       0.2287
     44  O          4.1280   18.0760  -27.2930 O.2    45  ALA45      -0.2864
     45  CB         4.0870   15.3050  -25.5730 C.3    45  ALA45       0.0319
     46  N          3.5500   18.5090  -30.5880 N.3    48  GLU48      -0.1245
     47  CA         2.1850   19.0100  -30.4600 C.3    48  GLU48       0.1567
     48  C          2.1280   20.3120  -29.6720 C.2    48  GLU48       0.2260
     49  O          1.2450   21.1410  -29.9200 O.2    48  GLU48      -0.2867
     50  CB         1.2990   17.9570  -29.7990 C.3    48  GLU48       0.0388
     51  CG         0.6320   17.0130  -30.7760 C.3    48  GLU48       0.1160
     52  CD        -0.2060   15.9690  -30.0770 C.2    48  GLU48       0.3649
     53  OE1        0.3780   15.0820  -29.4200 O.co2  48  GLU48      -0.2457
     54  OE2       -1.4510   16.0410  -30.1690 O.co2  48  GLU48      -0.2457
     55  N         -1.5050   22.7530  -20.4510 N.3    78  TRP78      -0.1227
     56  CA        -0.9880   22.1130  -21.6590 C.3    78  TRP78       0.1737
     57  C         -1.1920   20.6020  -21.6360 C.2    78  TRP78       0.2595
     58  O         -1.4630   19.9920  -22.6760 O.2    78  TRP78      -0.2718
     59  CB         0.4920   22.4530  -21.8470 C.3    78  TRP78       0.0564
     60  CG         1.4170   21.8360  -20.8360 C.ar   78  TRP78       0.0003
     61  CD1        1.8470   22.3970  -19.6690 C.ar   78  TRP78       0.0946
     62  CD2        2.0400   20.5470  -20.9150 C.ar   78  TRP78       0.0152
     63  NE1        2.6910   21.5350  -19.0130 N.ar   78  TRP78      -0.2442
     64  CE2        2.8270   20.3920  -19.7570 C.ar   78  TRP78       0.0810
     65  CE3        2.0030   19.5080  -21.8500 C.ar   78  TRP78       0.0012
     66  CZ2        3.5710   19.2410  -19.5090 C.ar   78  TRP78       0.0191
     67  CZ3        2.7420   18.3660  -21.6010 C.ar   78  TRP78       0.0001
     68  CH2        3.5140   18.2420  -20.4400 C.ar   78  TRP78       0.0015
     69  N         -1.0700   19.9760  -20.4620 N.am   79  LEU79      -0.1980
     70  CA        -1.2340   18.5270  -20.4000 C.3    79  LEU79       0.1596
     71  C         -2.7040   18.1350  -20.4830 C.2    79  LEU79       0.2287
     72  O         -3.0440   17.1090  -21.0840 O.2    79  LEU79      -0.2864
     73  CB        -0.5960   17.9740  -19.1270 C.3    79  LEU79       0.0297
     74  CG        -0.5160   16.4440  -19.0840 C.3    79  LEU79       0.0022
     75  CD1        0.1560   15.9040  -20.3460 C.3    79  LEU79       0.0001
     76  CD2        0.2160   15.9670  -17.8400 C.3    79  LEU79       0.0001
     77  N         -3.5220   18.3050  -24.1920 N.3    82  LEU82      -0.1231
     78  CA        -3.0320   17.1160  -24.8810 C.3    82  LEU82       0.1693
     79  C         -3.9210   15.9120  -24.6010 C.2    82  LEU82       0.2591
     80  O         -4.1580   15.0840  -25.4880 O.2    82  LEU82      -0.2718
     81  CB        -1.5920   16.8150  -24.4630 C.3    82  LEU82       0.0284
     82  CG        -0.4780   17.7140  -25.0000 C.3    82  LEU82       0.0019
     83  CD1        0.8720   17.2380  -24.4900 C.3    82  LEU82       0.0001
     84  CD2       -0.4960   17.7400  -26.5200 C.3    82  LEU82       0.0001
     85  N         -4.4260   15.7990  -23.3710 N.am   83  MET83      -0.1979
     86  CA        -5.2000   14.6210  -22.9940 C.3    83  MET83       0.1605
     87  C         -6.5850   14.6370  -23.6250 C.2    83  MET83       0.2287
     88  O         -7.0550   13.6140  -24.1380 O.2    83  MET83      -0.2864
     89  CB        -5.3020   14.5270  -21.4730 C.3    83  MET83       0.0413
     90  CG        -4.0370   14.0220  -20.8110 C.3    83  MET83       0.0598
     91  SD        -4.1650   13.9870  -19.0170 S.3    83  MET83      -0.1393
     92  CE        -2.6770   13.0850  -18.5970 C.3    83  MET83       0.0692
     93  N         -6.1800   13.6730  -27.2100 N.3    86  LEU86      -0.1245
     94  CA        -5.9740   12.2330  -27.3130 C.3    86  LEU86       0.1561
     95  C         -7.2720   11.4730  -27.0780 C.2    86  LEU86       0.2260
     96  O         -7.6160   10.5570  -27.8330 O.2    86  LEU86      -0.2867
     97  CB        -4.9060   11.7870  -26.3130 C.3    86  LEU86       0.0270
     98  CG        -4.8390   10.2860  -26.0130 C.3    86  LEU86       0.0019
     99  CD1       -4.3780    9.5080  -27.2320 C.3    86  LEU86       0.0001
    100  CD2       -3.9270   10.0170  -24.8300 C.3    86  LEU86       0.0001
    101  N         -9.7400   11.9790  -30.2730 N.3    89  ARG89      -0.1245
    102  CA        -9.4390   11.1770  -31.4540 C.3    89  ARG89       0.1563
    103  C         -9.3390    9.6870  -31.1540 C.2    89  ARG89       0.2260
    104  O         -9.1420    8.8960  -32.0830 O.2    89  ARG89      -0.2867
    105  CB        -8.1420   11.6600  -32.1130 C.3    89  ARG89       0.0307
    106  CG        -6.8980   11.5780  -31.2420 C.3    89  ARG89       0.0489
    107  CD        -5.7030   12.1500  -31.9950 C.3    89  ARG89       0.2205
    108  NE        -4.4360   11.9930  -31.2870 N.pl3  89  ARG89      -0.0865
    109  CZ        -3.9350   12.8860  -30.4400 C.cat  89  ARG89       0.5346
    110  NH1       -4.6000   14.0040  -30.1820 N.pl3  89  ARG89       0.1354
    111  NH2       -2.7680   12.6600  -29.8500 N.pl3  89  ARG89       0.1354
    112  N         -2.7860    7.8820  -29.8990 N.3    99  PHE99      -0.1241
    113  CA        -1.7800    8.9260  -29.7350 C.3    99  PHE99       0.1605
    114  C         -1.4280    9.5510  -31.0760 C.2    99  PHE99       0.2264
    115  O         -1.3010   10.7760  -31.1890 O.2    99  PHE99      -0.2867
    116  CB        -0.5270    8.3550  -29.0680 C.3    99  PHE99       0.0534
    117  CG        -0.6970    8.0500  -27.6050 C.ar   99  PHE99      -0.0203
    118  CD1       -0.4670    9.0270  -26.6510 C.ar   99  PHE99      -0.0042
    119  CD2       -1.0760    6.7850  -27.1850 C.ar   99  PHE99      -0.0042
    120  CE1       -0.6150    8.7500  -25.3050 C.ar   99  PHE99      -0.0003
    121  CE2       -1.2280    6.5030  -25.8390 C.ar   99  PHE99      -0.0003
    122  CZ        -0.9970    7.4860  -24.8980 C.ar   99  PHE99      -0.0000
    123  N          5.4460    0.4420  -19.2500 N.3   113  VAL113     -0.1231
    124  CA         5.9050    1.4580  -18.3130 C.3   113  VAL113      0.1692
    125  C          5.1020    1.3140  -17.0280 C.2   113  VAL113      0.2591
    126  O          3.8660    1.2710  -17.0640 O.2   113  VAL113     -0.2718
    127  CB         5.7610    2.8730  -18.8980 C.3   113  VAL113      0.0266
    128  CG1        6.3820    3.8980  -17.9650 C.3   113  VAL113      0.0020
    129  CG2        6.3940    2.9410  -20.2780 C.3   113  VAL113      0.0020
    130  N          5.8020    1.2330  -15.9000 N.am  114  GLU114     -0.1979
    131  CA         5.1380    1.0760  -14.6140 C.3   114  GLU114      0.1602
    132  C          4.3290    2.3210  -14.2700 C.2   114  GLU114      0.2287
    133  O          4.7660    3.4510  -14.5030 O.2   114  GLU114     -0.2864
    134  CB         6.1680    0.7920  -13.5200 C.3   114  GLU114      0.0415
    135  CG         7.3580    1.7390  -13.5270 C.3   114  GLU114      0.1163
    136  CD         8.4150    1.3560  -12.5100 C.2   114  GLU114      0.3649
    137  OE1        9.1390    2.2550  -12.0340 O.co2 114  GLU114     -0.2457
    138  OE2        8.5210    0.1540  -12.1850 O.co2 114  GLU114     -0.2457
    139  N          1.8070    3.4050  -15.7780 N.3   116  MET116     -0.1245
    140  CA         1.1180    3.9430  -16.9440 C.3   116  MET116      0.1570
    141  C         -0.2340    3.2880  -17.1860 C.2   116  MET116      0.2261
    142  O         -1.0850    3.8870  -17.8520 O.2   116  MET116     -0.2867
    143  CB         1.9930    3.7880  -18.1890 C.3   116  MET116      0.0387
    144  CG         2.8370    5.0050  -18.5010 C.3   116  MET116      0.0595
    145  SD         2.0510    6.1140  -19.6850 S.3   116  MET116     -0.1393
    146  CE         2.4480    5.2930  -21.2250 C.3   116  MET116      0.0692
    147  N         -2.9710    5.5760  -15.7370 N.3   119  ILE119     -0.1245
    148  CA        -3.2860    6.6900  -16.6270 C.3   119  ILE119      0.1561
    149  C         -4.0120    6.1870  -17.8670 C.2   119  ILE119      0.2260
    150  O         -4.9610    6.8170  -18.3480 O.2   119  ILE119     -0.2867
    151  CB        -2.0010    7.4590  -16.9920 C.3   119  ILE119      0.0252
    152  CG1       -1.4760    8.2340  -15.7820 C.3   119  ILE119      0.0019
    153  CG2       -2.2430    8.4030  -18.1620 C.3   119  ILE119      0.0019
    154  CD1       -2.3280    9.4240  -15.4050 C.3   119  ILE119      0.0001
    155  N         -7.6000    7.3870  -19.1630 N.3   123  LEU123     -0.1245
    156  CA        -7.8080    7.9860  -20.4770 C.3   123  LEU123      0.1561
    157  C         -8.8230    7.1920  -21.2930 C.2   123  LEU123      0.2260
    158  O         -9.6510    7.7760  -22.0030 O.2   123  LEU123     -0.2867
    159  CB        -6.4780    8.0890  -21.2230 C.3   123  LEU123      0.0270
    160  CG        -5.4400    9.0580  -20.6520 C.3   123  LEU123      0.0019
    161  CD1       -4.0940    8.8440  -21.3180 C.3   123  LEU123      0.0001
    162  CD2       -5.8940   10.5000  -20.8160 C.3   123  LEU123      0.0001
    163  N         -0.3660   12.7080  -14.3600 N.3   205  GLY205     -0.1225
    164  CA         0.6380   12.6550  -15.4090 C.3   205  GLY205      0.1811
    165  C          1.8370   13.5390  -15.1350 C.2   205  GLY205      0.2280
    166  O          2.9590   13.2060  -15.5260 O.2   205  GLY205     -0.2866
    167  N          4.3570   11.7090  -12.9310 N.3   208  HIS208     -0.1226
    168  CA         5.1310   10.7670  -13.7320 C.3   208  HIS208      0.1752
    169  C          6.1790   11.4880  -14.5690 C.2   208  HIS208      0.2595
    170  O          7.3220   11.0300  -14.6760 O.2   208  HIS208     -0.2718
    171  CB         4.1980    9.9610  -14.6320 C.3   208  HIS208      0.0759
    172  CG         3.3850    8.9400  -13.9020 C.ar  208  HIS208      0.0818
    173  ND1        3.8260    8.3180  -12.7540 N.ar  208  HIS208     -0.2268
    174  CD2        2.1560    8.4310  -14.1570 C.ar  208  HIS208      0.1154
    175  CE1        2.9050    7.4700  -12.3340 C.ar  208  HIS208      0.1986
    176  NE2        1.8810    7.5190  -13.1670 N.ar  208  HIS208     -0.2212
    177  N          5.8030   12.6180  -15.1720 N.am  209  LEU209     -0.1980
    178  CA         6.7490   13.3790  -15.9820 C.3   209  LEU209      0.1596
    179  C          7.8890   13.9230  -15.1280 C.2   209  LEU209      0.2287
    180  O          9.0340   14.0080  -15.5870 O.2   209  LEU209     -0.2864
    181  CB         6.0190   14.5120  -16.7020 C.3   209  LEU209      0.0297
    182  CG         6.7760   15.2890  -17.7790 C.3   209  LEU209      0.0022
    183  CD1        7.1410   14.3890  -18.9520 C.3   209  LEU209      0.0001
    184  CD2        5.9580   16.4870  -18.2460 C.3   209  LEU209      0.0001
    185  N          8.9970   12.4590  -12.1860 N.3   211  SER211     -0.1202
    186  CA         9.7970   11.2690  -11.9210 C.3   211  SER211      0.2020
    187  C         10.4950   10.7620  -13.1740 C.2   211  SER211      0.2618
    188  O         11.4430    9.9760  -13.0720 O.2   211  SER211     -0.2717
    189  CB         8.9160   10.1660  -11.3300 C.3   211  SER211      0.2103
    190  OG         9.6500    8.9710  -11.1330 O.3   211  SER211     -0.2182
    191  N         10.0430   11.1950  -14.3520 N.am  212  MET212     -0.1979
    192  CA        10.6900   10.8250  -15.6040 C.3   212  MET212      0.1605
    193  C         11.9360   11.6670  -15.8530 C.2   212  MET212      0.2287
    194  O         12.9560   11.1490  -16.3190 O.2   212  MET212     -0.2864
    195  CB         9.6940   10.9790  -16.7510 C.3   212  MET212      0.0413
    196  CG        10.1450   10.4280  -18.0770 C.3   212  MET212      0.0598
    197  SD         8.8140   10.6090  -19.2720 S.3   212  MET212     -0.1393
    198  CE         9.5710    9.8820  -20.7100 C.3   212  MET212      0.0692
    199  N         14.7180   10.5080  -13.8090 N.3   215  LYS215     -0.1245
    200  CA        15.2810    9.2430  -14.2600 C.3   215  LYS215      0.1561
    201  C         16.3670    9.4190  -15.3100 C.2   215  LYS215      0.2260
    202  O         17.2960    8.6070  -15.3650 O.2   215  LYS215     -0.2867
    203  CB        14.1780    8.3410  -14.8240 C.3   215  LYS215      0.0271
    204  CG        14.6280    6.9550  -14.8660 C.3   215  LYS215      0.0035
    205  CD        13.5730    6.0080  -15.4420 C.3   215  LYS215      0.0206
    206  CE        12.2670    6.0730  -14.6640 C.3   215  LYS215      0.1093
    207  NZ        11.2490    5.1240  -15.1560 N.3   215  LYS215     -0.1314
@<TRIPOS>BOND
     1   105   102    1
     2   105   106    1
     3   104   103    2
     4   107   108    1
     5   107   106    1
     6    39    38    1
     7   102   103    1
     8   102   101    1
     9   108   109    2
    10   115   114    2
    11   114   113    1
    12    51    52    1
    13    51    50    1
    14    46    47    1
    15    38    40    1
    16    38    37    1
    17    47    50    1
    18    47    48    1
    19   109   110    1
    20   109   111    1
    21    54    52   ar
    22    52    53   ar
    23    37    34    1
    24    34    33    1
    25    34    35    1
    26    49    48    2
    27   112   113    1
    28    36    35    2
    29   113   116    1
    30    35    41   am
    31   116   117    1
    32    41    42    1
    33    96    95    2
    34   117   119   ar
    35   117   118   ar
    36    94    93    1
    37    94    95    1
    38    94    97    1
    39    44    43    2
    40    43    42    1
    41    99    98    1
    42   119   121   ar
    43    18    19    1
    44    42    45    1
    45   118   120   ar
    46    29    28    2
    47    28    27    1
    48    25    23    1
    49    19    20    1
    50    19    22    1
    51    84    82    1
    52    21    20    2
    53    97    98    1
    54    20    26   am
    55    98   100    1
    56   121   122   ar
    57    26    27    1
    58    23    22    1
    59    23    24    1
    60    80    79    2
    61    27    30    1
    62   120   122   ar
    63    82    83    1
    64    82    81    1
    65    78    79    1
    66    78    81    1
    67    78    77    1
    68    31    30    1
    69    79    85   am
    70    13    12    2
    71    12    11    1
    72    30    32    1
    73    10    11    1
    74    88    87    2
    75    87    86    1
    76    11    14    1
    77    85    86    1
    78    86    89    1
    79    58    57    2
    80     1     2    1
    81    14    15    1
    82     4     3    2
    83   158   157    2
    84     3     2    1
    85    65    67   ar
    86    65    62   ar
    87    59    56    1
    88    59    60    1
    89    56    57    1
    90    56    55    1
    91    57    69   am
    92    67    68   ar
    93    89    90    1
    94     2     5    1
    95   161   160    1
    96   157   156    1
    97   146   145    1
    98   159   160    1
    99   159   156    1
   100    16    15    1
   101    16    17    1
   102    72    71    2
   103    62    60   ar
   104    62    64   ar
   105    60    61   ar
   106   162   160    1
   107    90    91    1
   108   198   197    1
   109    71    70    1
   110   156   155    1
   111    69    70    1
   112    68    66   ar
   113    70    73    1
   114    75    74    1
   115   129   127    1
   116     5     6    1
   117    64    66   ar
   118    64    63   ar
   119   145   144    1
   120    61    63   ar
   121   197   196    1
   122   123   124    1
   123    73    74    1
   124    74    76    1
   125     6     7    1
   126    91    92    1
   127   183   182    1
   128   127   124    1
   129   127   128    1
   130   144   143    1
   131   150   149    2
   132   124   125    1
   133   184   182    1
   134   143   140    1
   135   153   151    1
   136   196   195    1
   137   149   148    1
   138   142   141    2
   139   182   181    1
   140     7     8   ar
   141     7     9   ar
   142   141   140    1
   143   126   125    2
   144   125   130   am
   145   151   148    1
   146   151   152    1
   147   140   139    1
   148   195   192    1
   149   181   178    1
   150   148   147    1
   151   194   193    2
   152   178   177    1
   153   178   179    1
   154   130   131    1
   155   193   192    1
   156   152   154    1
   157   192   191    1
   158   180   179    2
   159   166   165    2
   160   205   204    1
   161   205   206    1
   162   164   165    1
   163   164   163    1
   164   202   201    2
   165   201   200    1
   166   177   169   am
   167   207   206    1
   168   204   203    1
   169   203   200    1
   170   170   169    2
   171   171   172    1
   172   171   168    1
   173   131   132    1
   174   131   134    1
   175   169   168    1
   176   133   132    2
   177   191   187   am
   178   200   199    1
   179   174   172   ar
   180   174   176   ar
   181   172   173   ar
   182   168   167    1
   183   135   134    1
   184   135   136    1
   185   187   188    2
   186   187   186    1
   187   176   175   ar
   188   173   175   ar
   189   136   138   ar
   190   136   137   ar
   191   185   186    1
   192   186   189    1
   193   189   190    1
