@<TRIPOS>MOLECULE
tmp/5tlpA01.pdb
 167 156 0 0 0
SMALL
GASTEIGER

@<TRIPOS>ATOM
      1  N         31.6830   10.7670    5.3910 N.3    37  MET37      -0.1245
      2  CA        31.2730   12.1010    5.8180 C.3    37  MET37       0.1570
      3  C         31.6050   13.1530    4.7650 C.2    37  MET37       0.2261
      4  O         30.8810   14.1470    4.6300 O.2    37  MET37      -0.2867
      5  CB        31.9270   12.4510    7.1530 C.3    37  MET37       0.0387
      6  CG        31.2670   11.7970    8.3560 C.3    37  MET37       0.0595
      7  SD        29.5670   12.3560    8.5960 S.3    37  MET37      -0.1393
      8  CE        29.8080   14.1210    8.7760 C.3    37  MET37       0.0692
      9  N         28.8300   13.0640    2.0900 N.3    40  LEU40      -0.1231
     10  CA        27.5620   13.6070    2.5700 C.3    40  LEU40       0.1693
     11  C         27.6260   15.1200    2.7260 C.2    40  LEU40       0.2592
     12  O         26.6800   15.8250    2.3540 O.2    40  LEU40      -0.2718
     13  CB        27.1800   12.9470    3.8940 C.3    40  LEU40       0.0284
     14  CG        27.0140   11.4250    3.8670 C.3    40  LEU40       0.0019
     15  CD1       26.6880   10.8960    5.2570 C.3    40  LEU40       0.0001
     16  CD2       25.9380   11.0210    2.8730 C.3    40  LEU40       0.0001
     17  N         28.7300   15.6360    3.2780 N.am   41  THR41      -0.1953
     18  CA        28.8730   17.0800    3.4440 C.3    41  THR41       0.1897
     19  C         29.0010   17.7830    2.0980 C.2    41  THR41       0.2313
     20  O         28.4840   18.8920    1.9240 O.2    41  THR41      -0.2863
     21  CB        30.0830   17.4000    4.3190 C.3    41  THR41       0.1794
     22  OG1       31.2290   16.7140    3.8060 O.3    41  THR41      -0.2208
     23  CG2       29.8350   16.9790    5.7580 C.3    41  THR41       0.0378
     24  N         27.6120   16.7240   -0.7090 N.3    43  LEU43      -0.1231
     25  CA        26.2490   16.7040   -1.2320 C.3    43  LEU43       0.1693
     26  C         25.3680   17.7260   -0.5220 C.2    43  LEU43       0.2591
     27  O         24.6230   18.4750   -1.1650 O.2    43  LEU43      -0.2718
     28  CB        25.6670   15.2960   -1.0900 C.3    43  LEU43       0.0284
     29  CG        24.2670   15.0320   -1.6380 C.3    43  LEU43       0.0019
     30  CD1       24.2570   15.1380   -3.1540 C.3    43  LEU43       0.0001
     31  CD2       23.7830   13.6610   -1.1920 C.3    43  LEU43       0.0001
     32  N         25.4360   17.7660    0.8120 N.am   44  ALA44      -0.1980
     33  CA        24.6180   18.7110    1.5670 C.3    44  ALA44       0.1597
     34  C         24.9630   20.1500    1.2090 C.2    44  ALA44       0.2287
     35  O         24.0810   21.0160    1.1570 O.2    44  ALA44      -0.2864
     36  CB        24.7940   18.4790    3.0670 C.3    44  ALA44       0.0319
     37  N         23.3980   20.9000   -2.1110 N.3    47  GLU47      -0.1245
     38  CA        21.9500   20.9880   -1.9580 C.3    47  GLU47       0.1567
     39  C         21.5300   22.2790   -1.2740 C.2    47  GLU47       0.2260
     40  O         20.4280   22.7770   -1.5260 O.2    47  GLU47      -0.2867
     41  CB        21.4270   19.7930   -1.1700 C.3    47  GLU47       0.0388
     42  CG        21.1390   18.5760   -2.0110 C.3    47  GLU47       0.1160
     43  CD        20.5110   17.4690   -1.2000 C.2    47  GLU47       0.3649
     44  OE1       21.1050   17.0850   -0.1750 O.co2  47  GLU47      -0.2457
     45  OE2       19.4200   16.9940   -1.5750 O.co2  47  GLU47      -0.2457
     46  N         17.5440   24.6210    7.9510 N.3    77  TRP77      -0.1227
     47  CA        18.1970   24.0490    6.7720 C.3    77  TRP77       0.1737
     48  C         18.3690   22.5360    6.8890 C.2    77  TRP77       0.2595
     49  O         18.1360   21.8050    5.9210 O.2    77  TRP77      -0.2718
     50  CB        19.5450   24.7260    6.5170 C.3    77  TRP77       0.0564
     51  CG        20.5990   24.4210    7.5400 C.ar   77  TRP77       0.0003
     52  CD1       20.8110   25.0800    8.7110 C.ar   77  TRP77       0.0946
     53  CD2       21.5850   23.3820    7.4800 C.ar   77  TRP77       0.0152
     54  NE1       21.8650   24.5180    9.3880 N.ar   77  TRP77      -0.2442
     55  CE2       22.3580   23.4730    8.6520 C.ar   77  TRP77       0.0810
     56  CE3       21.8900   22.3850    6.5480 C.ar   77  TRP77       0.0012
     57  CZ2       23.4170   22.6070    8.9180 C.ar   77  TRP77       0.0191
     58  CZ3       22.9410   21.5280    6.8140 C.ar   77  TRP77       0.0001
     59  CH2       23.6900   21.6430    7.9890 C.ar   77  TRP77       0.0015
     60  N         18.7530   22.0420    8.0660 N.am   78  LEU78      -0.1980
     61  CA        18.9750   20.6040    8.2120 C.3    78  LEU78       0.1596
     62  C         17.6610   19.8290    8.2830 C.2    78  LEU78       0.2287
     63  O         17.5790   18.7040    7.7720 O.2    78  LEU78      -0.2864
     64  CB        19.8400   20.3220    9.4440 C.3    78  LEU78       0.0297
     65  CG        20.2900   18.8590    9.6240 C.3    78  LEU78       0.0022
     66  CD1       20.8670   18.2930    8.3280 C.3    78  LEU78       0.0001
     67  CD2       21.3110   18.7300   10.7510 C.3    78  LEU78       0.0001
     68  N         16.8030   19.4810    4.6250 N.3    81  LEU81      -0.1231
     69  CA        17.5710   18.4160    3.9870 C.3    81  LEU81       0.1693
     70  C         17.0470   17.0470    4.3990 C.2    81  LEU81       0.2591
     71  O         16.9580   16.1340    3.5720 O.2    81  LEU81      -0.2718
     72  CB        19.0550   18.5430    4.3330 C.3    81  LEU81       0.0284
     73  CG        19.8460   19.6770    3.6820 C.3    81  LEU81       0.0019
     74  CD1       21.3040   19.6190    4.1210 C.3    81  LEU81       0.0001
     75  CD2       19.7460   19.6120    2.1640 C.3    81  LEU81       0.0001
     76  N         16.6710   16.8970    5.6720 N.am   82  MET82      -0.1979
     77  CA        16.2680   15.5930    6.1840 C.3    82  MET82       0.1605
     78  C         14.8900   15.1820    5.6850 C.2    82  MET82       0.2287
     79  O         14.6690   14.0050    5.3750 O.2    82  MET82      -0.2864
     80  CB        16.2940   15.6000    7.7090 C.3    82  MET82       0.0413
     81  CG        17.6930   15.4940    8.2870 C.3    82  MET82       0.0598
     82  SD        17.6610   15.5480   10.0820 S.3    82  MET82      -0.1393
     83  CE        19.3810   15.1860   10.4200 C.3    82  MET82       0.0692
     84  N         15.3700   13.9650    2.2530 N.3    85  LEU85      -0.1245
     85  CA        15.9850   12.6390    2.2520 C.3    85  LEU85       0.1561
     86  C         14.9740   11.5610    2.6260 C.2    85  LEU85       0.2260
     87  O         14.9320   10.4910    2.0050 O.2    85  LEU85      -0.2867
     88  CB        17.1710   12.6160    3.2170 C.3    85  LEU85       0.0270
     89  CG        17.8090   11.2690    3.5650 C.3    85  LEU85       0.0019
     90  CD1       18.4450   10.6260    2.3420 C.3    85  LEU85       0.0001
     91  CD2       18.8360   11.4500    4.6770 C.3    85  LEU85       0.0001
     92  N         12.5310   10.9730   -0.4230 N.3    88  ARG88      -0.1245
     93  CA        13.0150   10.2060   -1.5610 C.3    88  ARG88       0.1563
     94  C         13.4770    8.8070   -1.1750 C.2    88  ARG88       0.2260
     95  O         13.7590    8.0000   -2.0650 O.2    88  ARG88      -0.2867
     96  CB        14.1330   10.9640   -2.2830 C.3    88  ARG88       0.0307
     97  CG        15.3790   11.2090   -1.4790 C.3    88  ARG88       0.0489
     98  CD        16.3870   11.9620   -2.3270 C.3    88  ARG88       0.2205
     99  NE        17.6190   12.2310   -1.5970 N.pl3  88  ARG88      -0.0865
    100  CZ        17.9210   13.4030   -1.0530 C.cat  88  ARG88       0.5346
    101  NH1       17.0810   14.4260   -1.1590 N.pl3  88  ARG88       0.1354
    102  NH2       19.0680   13.5500   -0.4050 N.pl3  88  ARG88       0.1354
    103  N         20.5020    9.0180   -0.2270 N.3    98  PHE98      -0.1241
    104  CA        21.1390   10.3300   -0.2280 C.3    98  PHE98       0.1605
    105  C         21.2670   10.8640   -1.6460 C.2    98  PHE98       0.2264
    106  O         21.0370   12.0530   -1.8950 O.2    98  PHE98      -0.2867
    107  CB        22.5070   10.2540    0.4510 C.3    98  PHE98       0.0534
    108  CG        22.4310    9.9740    1.9220 C.ar   98  PHE98      -0.0203
    109  CD1       22.3350   11.0140    2.8330 C.ar   98  PHE98      -0.0042
    110  CD2       22.4400    8.6700    2.3950 C.ar   98  PHE98      -0.0042
    111  CE1       22.2610   10.7620    4.1900 C.ar   98  PHE98      -0.0003
    112  CE2       22.3630    8.4100    3.7500 C.ar   98  PHE98      -0.0003
    113  CZ        22.2730    9.4580    4.6490 C.ar   98  PHE98      -0.0000
    114  N         26.6690    7.9230   13.8760 N.3   115  MET115     -0.1245
    115  CA        25.8220    8.1580   12.7130 C.3   115  MET115      0.1570
    116  C         24.6130    7.2320   12.6790 C.2   115  MET115      0.2261
    117  O         23.5330    7.6510   12.2440 O.2   115  MET115     -0.2867
    118  CB        26.6440    7.9930   11.4330 C.3   115  MET115      0.0387
    119  CG        25.8480    8.1020   10.1460 C.3   115  MET115      0.0595
    120  SD        25.1730    9.7490    9.8910 S.3   115  MET115     -0.1393
    121  CE        26.6710   10.6720    9.5870 C.3   115  MET115      0.0692
    122  N         21.1700    8.4450   14.1590 N.3   118  ILE118     -0.1245
    123  CA        20.4180    9.3190   13.2680 C.3   118  ILE118      0.1561
    124  C         19.8960    8.5340   12.0730 C.2   118  ILE118      0.2260
    125  O         18.7690    8.7530   11.6110 O.2   118  ILE118     -0.2867
    126  CB        21.3010   10.5050   12.8400 C.3   118  ILE118      0.0252
    127  CG1       21.8260   11.2370   14.0770 C.3   118  ILE118      0.0019
    128  CG2       20.5350   11.4590   11.9330 C.3   118  ILE118      0.0019
    129  CD1       22.9420   12.2060   13.7880 C.3   118  ILE118      0.0001
    130  N         15.9690    8.3350   10.7900 N.3   122  LEU122     -0.1245
    131  CA        15.5740    8.7170    9.4380 C.3   122  LEU122      0.1561
    132  C         14.8640    7.5690    8.7330 C.2   122  LEU122      0.2260
    133  O         13.8700    7.7850    8.0310 O.2   122  LEU122     -0.2867
    134  CB        16.7970    9.1680    8.6380 C.3   122  LEU122      0.0270
    135  CG        17.4350   10.4870    9.0790 C.3   122  LEU122      0.0019
    136  CD1       18.8590   10.6030    8.5570 C.3   122  LEU122      0.0001
    137  CD2       16.5940   11.6680    8.6100 C.3   122  LEU122      0.0001
    138  N         21.2620   15.6770   14.6410 N.3   207  GLY207     -0.1225
    139  CA        22.1930   15.7740   13.5310 C.3   207  GLY207      0.1811
    140  C         23.1230   16.9650   13.6350 C.2   207  GLY207      0.2280
    141  O         24.2770   16.8960   13.2010 O.2   207  GLY207     -0.2866
    142  N         25.8440   15.9530   15.9370 N.3   210  HIS210     -0.1226
    143  CA        26.7970   15.0550   15.2970 C.3   210  HIS210      0.1752
    144  C         27.7210   15.8130   14.3540 C.2   210  HIS210      0.2595
    145  O         28.9340   15.5710   14.3350 O.2   210  HIS210     -0.2718
    146  CB        26.0510   13.9530   14.5470 C.3   210  HIS210      0.0759
    147  CG        26.9460   12.8910   13.9930 C.ar  210  HIS210      0.0818
    148  ND1       27.5490   12.9960   12.7580 N.ar  210  HIS210     -0.2268
    149  CD2       27.3450   11.7030   14.5070 C.ar  210  HIS210      0.1154
    150  CE1       28.2790   11.9170   12.5350 C.ar  210  HIS210      0.1986
    151  NE2       28.1730   11.1180   13.5810 N.ar  210  HIS210     -0.2212
    152  N         27.1640   16.7330   13.5640 N.am  211  LEU211     -0.1980
    153  CA        27.9850   17.5460   12.6730 C.3   211  LEU211      0.1596
    154  C         28.9810   18.3900   13.4560 C.2   211  LEU211      0.2287
    155  O         30.1330   18.5550   13.0350 O.2   211  LEU211     -0.2864
    156  CB        27.0890   18.4340   11.8120 C.3   211  LEU211      0.0297
    157  CG        27.7700   19.3170   10.7670 C.3   211  LEU211      0.0022
    158  CD1       28.7840   18.5260    9.9540 C.3   211  LEU211      0.0001
    159  CD2       26.7160   19.9320    9.8590 C.3   211  LEU211      0.0001
    160  N         28.6660   25.7410    5.0750 N.3   226  LEU226     -0.1245
    161  CA        28.2610   24.7480    6.0630 C.3   226  LEU226      0.1561
    162  C         28.7290   25.1410    7.4580 C.2   226  LEU226      0.2260
    163  O         27.9970   24.9690    8.4410 O.2   226  LEU226     -0.2867
    164  CB        28.8150   23.3800    5.6670 C.3   226  LEU226      0.0270
    165  CG        27.9680   22.1430    5.9380 C.3   226  LEU226      0.0019
    166  CD1       26.4960   22.4400    5.7100 C.3   226  LEU226      0.0001
    167  CD2       28.4280   21.0130    5.0330 C.3   226  LEU226      0.0001
@<TRIPOS>BOND
     1    30    29    1
     2    98    99    1
     3    98    97    1
     4    96    93    1
     5    96    97    1
     6    37    38    1
     7    95    94    2
     8    42    43    1
     9    42    41    1
    10    38    39    1
    11    38    41    1
    12   106   105    2
    13   105   104    1
    14    29    31    1
    15    29    28    1
    16    99   100    2
    17    45    43   ar
    18    93    94    1
    19    93    92    1
    20    40    39    2
    21    25    28    1
    22    25    24    1
    23    25    26    1
    24    43    44   ar
    25    27    26    2
    26   101   100    1
    27   100   102    1
    28    26    32   am
    29   104   103    1
    30   104   107    1
    31   107   108    1
    32    32    33    1
    33    35    34    2
    34    34    33    1
    35    33    36    1
    36   108   110   ar
    37   108   109   ar
    38    20    19    2
    39    87    86    2
    40     9    10    1
    41    19    18    1
    42    75    73    1
    43    85    84    1
    44    85    86    1
    45    85    88    1
    46    90    89    1
    47    12    11    2
    48   110   112   ar
    49    10    11    1
    50    10    13    1
    51    11    17   am
    52   109   111   ar
    53    16    14    1
    54    88    89    1
    55    17    18    1
    56    18    21    1
    57    89    91    1
    58    71    70    2
    59    73    74    1
    60    73    72    1
    61   112   113   ar
    62    22    21    1
    63    14    13    1
    64    14    15    1
    65    69    72    1
    66    69    70    1
    67    69    68    1
    68   111   113   ar
    69    21    23    1
    70    70    76   am
    71     4     3    2
    72     3     2    1
    73   167   165    1
    74   160   161    1
    75    79    78    2
    76     1     2    1
    77   164   165    1
    78   164   161    1
    79    76    77    1
    80    78    77    1
    81   166   165    1
    82     2     5    1
    83    49    48    2
    84   161   162    1
    85    77    80    1
    86    50    47    1
    87    50    51    1
    88    56    58   ar
    89    56    53   ar
    90    47    48    1
    91    47    46    1
    92    58    59   ar
    93    48    60   am
    94     5     6    1
    95   162   163    2
    96    53    51   ar
    97    53    55   ar
    98    51    52   ar
    99    80    81    1
   100    63    62    2
   101    59    57   ar
   102   133   132    2
   103    60    61    1
   104    61    62    1
   105    61    64    1
   106    81    82    1
   107    66    65    1
   108     6     7    1
   109   136   135    1
   110     7     8    1
   111   137   135    1
   112   134   135    1
   113   134   131    1
   114    55    57   ar
   115    55    54   ar
   116    52    54   ar
   117   132   131    1
   118   131   130    1
   119    64    65    1
   120   121   120    1
   121    65    67    1
   122   159   157    1
   123   120   119    1
   124   158   157    1
   125    82    83    1
   126   119   118    1
   127   157   156    1
   128   118   115    1
   129   125   124    2
   130   156   153    1
   131   128   126    1
   132   124   123    1
   133   117   116    2
   134   150   148   ar
   135   150   151   ar
   136   153   154    1
   137   153   152    1
   138   116   115    1
   139   115   114    1
   140   148   147   ar
   141   126   123    1
   142   126   127    1
   143   155   154    2
   144   141   140    2
   145   123   122    1
   146   139   140    1
   147   139   138    1
   148   152   144   am
   149   151   149   ar
   150   129   127    1
   151   147   149   ar
   152   147   146    1
   153   145   144    2
   154   144   143    1
   155   146   143    1
   156   143   142    1
