@<TRIPOS>MOLECULE
tmp/5tlpB01.pdb
 220 210 0 0 0
SMALL
GASTEIGER

@<TRIPOS>ATOM
      1  N         20.4220   26.6670   39.9260 N.3    33  MET33      -0.1245
      2  CA        20.3480   25.3020   39.4180 C.3    33  MET33       0.1570
      3  C         19.9010   24.3270   40.4970 C.2    33  MET33       0.2261
      4  O         19.2230   23.3390   40.1980 O.2    33  MET33      -0.2867
      5  CB        21.7000   24.8770   38.8460 C.3    33  MET33       0.0387
      6  CG        21.9440   25.3530   37.4260 C.3    33  MET33       0.0595
      7  SD        20.8050   24.5990   36.2490 S.3    33  MET33      -0.1393
      8  CE        21.2460   22.8710   36.4160 C.3    33  MET33       0.0692
      9  N         16.0310   24.7860   40.6790 N.3    36  LEU36      -0.1231
     10  CA        15.3640   24.2210   39.5120 C.3    36  LEU36       0.1693
     11  C         15.4660   22.7010   39.5030 C.2    36  LEU36       0.2592
     12  O         14.5020   22.0130   39.1480 O.2    36  LEU36      -0.2718
     13  CB        15.9530   24.8120   38.2320 C.3    36  LEU36       0.0284
     14  CG        15.9050   26.3360   38.1070 C.3    36  LEU36       0.0019
     15  CD1       16.6590   26.7910   36.8690 C.3    36  LEU36       0.0001
     16  CD2       14.4670   26.8380   38.0730 C.3    36  LEU36       0.0001
     17  N         16.6220   22.1590   39.8940 N.am   37  THR37      -0.1953
     18  CA        16.7700   20.7100   39.9770 C.3    37  THR37       0.1897
     19  C         15.8350   20.1290   41.0310 C.2    37  THR37       0.2313
     20  O         15.1140   19.1600   40.7680 O.2    37  THR37      -0.2863
     21  CB        18.2230   20.3420   40.2840 C.3    37  THR37       0.1794
     22  OG1       19.0580   20.7300   39.1860 O.3    37  THR37      -0.2208
     23  CG2       18.3620   18.8410   40.5170 C.3    37  THR37       0.0378
     24  N         13.1210   21.4150   42.1810 N.3    39  LEU39      -0.1231
     25  CA        11.7410   21.5780   41.7350 C.3    39  LEU39       0.1693
     26  C         11.3750   20.5310   40.6890 C.2    39  LEU39       0.2592
     27  O         10.3270   19.8810   40.7860 O.2    39  LEU39      -0.2718
     28  CB        11.5390   22.9890   41.1830 C.3    39  LEU39       0.0284
     29  CG        10.1960   23.2990   40.5270 C.3    39  LEU39       0.0019
     30  CD1        9.0870   23.3260   41.5620 C.3    39  LEU39       0.0001
     31  CD2       10.2630   24.6180   39.7690 C.3    39  LEU39       0.0001
     32  N         12.2350   20.3520   39.6820 N.am   40  ALA40      -0.1966
     33  CA        11.9430   19.4080   38.6070 C.3    40  ALA40       0.1728
     34  C         11.8380   17.9790   39.1270 C.2    40  ALA40       0.2616
     35  O         11.0070   17.1980   38.6460 O.2    40  ALA40      -0.2715
     36  CB        13.0170   19.5070   37.5240 C.3    40  ALA40       0.0334
     37  N         12.6740   17.6160   40.1040 N.am   41  ASP41      -0.1971
     38  CA        12.6210   16.2670   40.6630 C.3    41  ASP41       0.1709
     39  C         11.2730   15.9930   41.3130 C.2    41  ASP41       0.2293
     40  O         10.7010   14.9100   41.1400 O.2    41  ASP41      -0.2864
     41  CB        13.7470   16.0660   41.6770 C.3    41  ASP41       0.1436
     42  CG        15.1000   15.8930   41.0180 C.2    41  ASP41       0.3671
     43  OD1       15.2930   16.4350   39.9100 O.co2  41  ASP41      -0.2456
     44  OD2       15.9670   15.2110   41.6050 O.co2  41  ASP41      -0.2456
     45  N          8.4600   17.6000   40.6340 N.3    43  GLU43      -0.1231
     46  CA         7.4610   17.6050   39.5700 C.3    43  GLU43       0.1699
     47  C          7.4110   16.2640   38.8510 C.2    43  GLU43       0.2592
     48  O          6.3340   15.8030   38.4550 O.2    43  GLU43      -0.2718
     49  CB         7.7580   18.7220   38.5740 C.3    43  GLU43       0.0402
     50  CG         7.4590   20.1170   39.0740 C.3    43  GLU43       0.1161
     51  CD         7.7000   21.1590   38.0020 C.2    43  GLU43       0.3649
     52  OE1        8.8780   21.4420   37.6970 O.co2  43  GLU43      -0.2457
     53  OE2        6.7080   21.6700   37.4400 O.co2  43  GLU43      -0.2457
     54  N          8.5680   15.6220   38.6750 N.am   44  LEU44      -0.1980
     55  CA         8.6100   14.3600   37.9430 C.3    44  LEU44       0.1596
     56  C          7.7830   13.2860   38.6350 C.2    44  LEU44       0.2287
     57  O          7.1160   12.4850   37.9700 O.2    44  LEU44      -0.2864
     58  CB        10.0540   13.8970   37.7780 C.3    44  LEU44       0.0297
     59  CG        10.7430   14.4450   36.5320 C.3    44  LEU44       0.0022
     60  CD1       12.2350   14.2850   36.6670 C.3    44  LEU44       0.0001
     61  CD2       10.2360   13.7210   35.2940 C.3    44  LEU44       0.0001
     62  N          9.8760   13.9840   29.1990 N.3    73  TRP73      -0.1227
     63  CA         9.7140   14.5900   30.5210 C.3    73  TRP73       0.1737
     64  C         10.0720   16.0720   30.5190 C.2    73  TRP73       0.2595
     65  O          9.3910   16.8760   31.1660 O.2    73  TRP73      -0.2718
     66  CB        10.5450   13.8410   31.5670 C.3    73  TRP73       0.0564
     67  CG        12.0320   13.9880   31.4300 C.ar   73  TRP73       0.0003
     68  CD1       12.8760   13.1580   30.7510 C.ar   73  TRP73       0.0946
     69  CD2       12.8530   15.0180   31.9960 C.ar   73  TRP73       0.0152
     70  NE1       14.1690   13.6090   30.8540 N.ar   73  TRP73      -0.2442
     71  CE2       14.1830   14.7490   31.6140 C.ar   73  TRP73       0.0810
     72  CE3       12.5930   16.1440   32.7850 C.ar   73  TRP73       0.0012
     73  CZ2       15.2490   15.5650   31.9920 C.ar   73  TRP73       0.0191
     74  CZ3       13.6530   16.9520   33.1590 C.ar   73  TRP73       0.0001
     75  CH2       14.9630   16.6600   32.7610 C.ar   73  TRP73       0.0015
     76  N         11.1250   16.4600   29.7960 N.am   74  LEU74      -0.1980
     77  CA        11.5210   17.8650   29.8100 C.3    74  LEU74       0.1596
     78  C         10.5540   18.7170   28.9970 C.2    74  LEU74       0.2287
     79  O         10.2530   19.8540   29.3800 O.2    74  LEU74      -0.2864
     80  CB        12.9540   18.0270   29.2990 C.3    74  LEU74       0.0297
     81  CG        13.5030   19.4590   29.3420 C.3    74  LEU74       0.0022
     82  CD1       13.3730   20.0590   30.7390 C.3    74  LEU74       0.0001
     83  CD2       14.9500   19.5070   28.8720 C.3    74  LEU74       0.0001
     84  N          7.6430   19.2780   31.3300 N.3    77  LEU77      -0.1231
     85  CA         7.9700   20.3120   32.3090 C.3    77  LEU77       0.1693
     86  C          7.9540   21.6970   31.6720 C.2    77  LEU77       0.2591
     87  O          7.5020   22.6700   32.2890 O.2    77  LEU77      -0.2718
     88  CB         9.3370   20.0350   32.9470 C.3    77  LEU77       0.0284
     89  CG         9.4510   18.8750   33.9470 C.3    77  LEU77       0.0019
     90  CD1       10.8500   18.8100   34.5530 C.3    77  LEU77       0.0001
     91  CD2        8.4000   18.9960   35.0460 C.3    77  LEU77       0.0001
     92  N          8.4230   21.7990   30.4250 N.am   78  MET78      -0.1979
     93  CA         8.5260   23.0970   29.7640 C.3    78  MET78       0.1605
     94  C          7.1600   23.6430   29.3690 C.2    78  MET78       0.2287
     95  O          6.8860   24.8360   29.5510 O.2    78  MET78      -0.2864
     96  CB         9.4300   22.9900   28.5400 C.3    78  MET78       0.0413
     97  CG        10.9090   22.9300   28.8840 C.3    78  MET78       0.0598
     98  SD        11.9220   22.6920   27.4180 S.3    78  MET78      -0.1393
     99  CE        13.5190   23.1600   28.0700 C.3    78  MET78       0.0692
    100  N          5.6320   24.9360   32.4760 N.3    81  LEU81      -0.1245
    101  CA         6.1860   26.2320   32.8530 C.3    81  LEU81       0.1561
    102  C          5.6590   27.3460   31.9580 C.2    81  LEU81       0.2260
    103  O          5.3370   28.4410   32.4350 O.2    81  LEU81      -0.2867
    104  CB         7.7120   26.1760   32.7870 C.3    81  LEU81       0.0270
    105  CG         8.4390   27.5160   32.8120 C.3    81  LEU81       0.0019
    106  CD1        8.3150   28.1510   34.1890 C.3    81  LEU81       0.0001
    107  CD2        9.8950   27.3290   32.4270 C.3    81  LEU81       0.0001
    108  N          1.7840   28.1650   32.8890 N.3    84  ARG84      -0.1245
    109  CA         1.5380   28.9770   34.0750 C.3    84  ARG84       0.1563
    110  C          2.2540   30.3220   34.0310 C.2    84  ARG84       0.2260
    111  O          2.0120   31.1610   34.9030 O.2    84  ARG84      -0.2867
    112  CB         1.9210   28.2100   35.3420 C.3    84  ARG84       0.0307
    113  CG         3.3490   27.7290   35.4010 C.3    84  ARG84       0.0489
    114  CD         3.5800   26.9250   36.6740 C.3    84  ARG84       0.2205
    115  NE         4.9570   26.4600   36.7750 N.pl3  84  ARG84      -0.0865
    116  CZ         5.3750   25.2720   36.3520 C.cat  84  ARG84       0.5346
    117  NH1        4.5200   24.4170   35.8070 N.pl3  84  ARG84       0.1354
    118  NH2        6.6500   24.9390   36.4790 N.pl3  84  ARG84       0.1354
    119  N          8.3210   29.6180   37.4470 N.3    94  PHE94      -0.1241
    120  CA         8.7290   28.2690   37.8290 C.3    94  PHE94       0.1605
    121  C          7.9240   27.7790   39.0230 C.2    94  PHE94       0.2264
    122  O          7.5820   26.5940   39.1150 O.2    94  PHE94      -0.2867
    123  CB        10.2240   28.2310   38.1410 C.3    94  PHE94       0.0534
    124  CG        11.1030   28.4270   36.9360 C.ar   94  PHE94      -0.0203
    125  CD1       11.4940   27.3440   36.1610 C.ar   94  PHE94      -0.0042
    126  CD2       11.5460   29.6920   36.5840 C.ar   94  PHE94      -0.0042
    127  CE1       12.3050   27.5240   35.0540 C.ar   94  PHE94      -0.0003
    128  CE2       12.3530   29.8780   35.4780 C.ar   94  PHE94      -0.0003
    129  CZ        12.7350   28.7950   34.7120 C.ar   94  PHE94      -0.0000
    130  N         23.3460   31.3010   34.8230 N.3   108  VAL108     -0.1231
    131  CA        23.8620   30.0440   34.2950 C.3   108  VAL108      0.1692
    132  C         24.1750   30.2430   32.8190 C.2   108  VAL108      0.2592
    133  O         23.3550   30.7930   32.0740 O.2   108  VAL108     -0.2718
    134  CB        22.8610   28.8920   34.4930 C.3   108  VAL108      0.0266
    135  CG1       23.4440   27.5860   33.9720 C.3   108  VAL108      0.0020
    136  CG2       22.4710   28.7670   35.9600 C.3   108  VAL108      0.0020
    137  N         25.3580   29.8010   32.3990 N.am  109  GLU109     -0.1966
    138  CA        25.7590   29.9600   31.0080 C.3   109  GLU109      0.1733
    139  C         24.8490   29.1490   30.0940 C.2   109  GLU109      0.2617
    140  O         24.4770   28.0140   30.4060 O.2   109  GLU109     -0.2715
    141  CB        27.2150   29.5310   30.8220 C.3   109  GLU109      0.0429
    142  CG        28.1700   30.0240   31.9280 C.3   109  GLU109      0.1163
    143  CD        28.5530   31.4910   31.8090 C.2   109  GLU109      0.3649
    144  OE1       28.3090   32.1180   30.7630 O.co2 109  GLU109     -0.2457
    145  OE2       29.1260   32.0070   32.7810 O.co2 109  GLU109     -0.2457
    146  N         24.4810   29.7440   28.9600 N.am  110  GLY110     -0.1940
    147  CA        23.5850   29.1070   28.0180 C.3   110  GLY110      0.2014
    148  C         22.1370   29.0370   28.4490 C.2   110  GLY110      0.2638
    149  O         21.2930   28.6090   27.6550 O.2   110  GLY110     -0.2714
    150  N         21.8210   29.4440   29.6780 N.am  111  MET111     -0.1976
    151  CA        20.4540   29.3870   30.1800 C.3   111  MET111      0.1605
    152  C         19.5730   30.4730   29.5750 C.2   111  MET111      0.2287
    153  O         18.3740   30.2460   29.3720 O.2   111  MET111     -0.2864
    154  CB        20.4680   29.4950   31.7080 C.3   111  MET111      0.0413
    155  CG        19.1070   29.6520   32.3650 C.3   111  MET111      0.0598
    156  SD        18.3570   28.0850   32.8420 S.3   111  MET111     -0.1393
    157  CE        19.4650   27.5500   34.1430 C.3   111  MET111      0.0692
    158  N         17.6670   29.6350   26.2570 N.3   114  ILE114     -0.1231
    159  CA        16.4790   28.8170   26.4600 C.3   114  ILE114      0.1692
    160  C         15.4030   29.6050   27.1930 C.2   114  ILE114      0.2592
    161  O         14.2080   29.4320   26.9220 O.2   114  ILE114     -0.2718
    162  CB        16.8490   27.5220   27.2010 C.3   114  ILE114      0.0266
    163  CG1       17.9780   26.8100   26.4560 C.3   114  ILE114      0.0019
    164  CG2       15.6390   26.6150   27.3180 C.3   114  ILE114      0.0020
    165  CD1       18.4460   25.5340   27.1190 C.3   114  ILE114      0.0001
    166  N         15.7980   30.4770   28.1270 N.am  115  PHE115     -0.1976
    167  CA        14.8290   31.3690   28.7570 C.3   115  PHE115      0.1639
    168  C         14.0760   32.1810   27.7110 C.2   115  PHE115      0.2290
    169  O         12.8470   32.2950   27.7700 O.2   115  PHE115     -0.2864
    170  CB        15.5300   32.3000   29.7510 C.3   115  PHE115      0.0560
    171  CG        15.4170   31.8590   31.1810 C.ar  115  PHE115     -0.0200
    172  CD1       15.7040   30.5540   31.5430 C.ar  115  PHE115     -0.0042
    173  CD2       15.0350   32.7540   32.1680 C.ar  115  PHE115     -0.0042
    174  CE1       15.6010   30.1450   32.8650 C.ar  115  PHE115     -0.0003
    175  CE2       14.9330   32.3520   33.4890 C.ar  115  PHE115     -0.0003
    176  CZ        15.2180   31.0490   33.8380 C.ar  115  PHE115     -0.0000
    177  N         11.5580   29.9960   25.8890 N.3   118  LEU118     -0.1245
    178  CA        10.3900   29.7120   26.7170 C.3   118  LEU118      0.1561
    179  C          9.4760   30.9250   26.8100 C.2   118  LEU118      0.2260
    180  O          8.2490   30.7930   26.7260 O.2   118  LEU118     -0.2867
    181  CB        10.8310   29.2600   28.1080 C.3   118  LEU118      0.0270
    182  CG        11.5310   27.9050   28.1680 C.3   118  LEU118      0.0019
    183  CD1       12.4120   27.8140   29.4060 C.3   118  LEU118      0.0001
    184  CD2       10.5020   26.7810   28.1590 C.3   118  LEU118      0.0001
    185  N         17.8490   22.1100   25.9670 N.3   200  GLY200     -0.1225
    186  CA        17.9840   21.9820   27.4070 C.3   200  GLY200      0.1811
    187  C         18.6010   20.6660   27.8330 C.2   200  GLY200      0.2280
    188  O         19.3410   20.6140   28.8210 O.2   200  GLY200     -0.2866
    189  N         22.4220   20.8940   27.5290 N.3   203  HIS203     -0.1226
    190  CA        23.0650   21.6430   28.6030 C.3   203  HIS203      0.1752
    191  C         22.9290   20.9340   29.9440 C.2   203  HIS203      0.2595
    192  O         23.8480   20.9850   30.7680 O.2   203  HIS203     -0.2718
    193  CB        22.4870   23.0560   28.6790 C.3   203  HIS203      0.0759
    194  CG        23.0440   23.9900   27.6500 C.ar  203  HIS203      0.0818
    195  ND1       22.4280   24.2150   26.4370 N.ar  203  HIS203     -0.2268
    196  CD2       24.1700   24.7410   27.6450 C.ar  203  HIS203      0.1154
    197  CE1       23.1480   25.0690   25.7320 C.ar  203  HIS203      0.1986
    198  NE2       24.2110   25.4040   26.4420 N.ar  203  HIS203     -0.2212
    199  N         21.7990   20.2700   30.1890 N.am  204  LEU204     -0.1980
    200  CA        21.6890   19.4690   31.4020 C.3   204  LEU204      0.1596
    201  C         22.6480   18.2870   31.3700 C.2   204  LEU204      0.2287
    202  O         23.1060   17.8370   32.4260 O.2   204  LEU204     -0.2864
    203  CB        20.2490   18.9990   31.6020 C.3   204  LEU204      0.0297
    204  CG        19.3270   19.9900   32.3180 C.3   204  LEU204      0.0022
    205  CD1       17.8800   19.5540   32.1880 C.3   204  LEU204      0.0001
    206  CD2       19.7160   20.1240   33.7850 C.3   204  LEU204      0.0001
    207  N         25.6000   18.6310   30.3970 N.3   206  SER206     -0.1202
    208  CA        26.8420   19.2710   30.8290 C.3   206  SER206      0.2020
    209  C         26.7660   19.5170   32.3340 C.2   206  SER206      0.2618
    210  O         26.4690   20.6160   32.8100 O.2   206  SER206     -0.2717
    211  CB        27.0750   20.5640   30.0580 C.3   206  SER206      0.2103
    212  OG        27.0260   20.3380   28.6600 O.3   206  SER206     -0.2182
    213  N         27.0410   18.4610   33.0940 N.am  207  MET207     -0.1979
    214  CA        27.0200   18.5340   34.5500 C.3   207  MET207      0.1605
    215  C         28.3610   18.1070   35.1390 C.2   207  MET207      0.2287
    216  O         28.7480   16.9410   35.0460 O.2   207  MET207     -0.2864
    217  CB        25.8970   17.6620   35.1160 C.3   207  MET207      0.0413
    218  CG        25.7940   17.7070   36.6040 C.3   207  MET207      0.0598
    219  SD        24.9760   19.2530   37.0890 S.3   207  MET207     -0.1393
    220  CE        23.2990   18.9390   36.5650 C.3   207  MET207      0.0692
@<TRIPOS>BOND
     1   197   195   ar
     2   197   198   ar
     3   177   178    1
     4   185   186    1
     5   158   159    1
     6   195   194   ar
     7   198   196   ar
     8   163   165    1
     9   163   162    1
    10   159   160    1
    11   159   162    1
    12   178   179    1
    13   178   181    1
    14   180   179    2
    15   161   160    2
    16   160   166   am
    17   162   164    1
    18   186   187    1
    19    98    99    1
    20    98    97    1
    21   189   190    1
    22   196   194   ar
    23   194   193    1
    24   149   148    2
    25   168   169    2
    26   168   167    1
    27   187   188    2
    28   147   148    1
    29   147   146    1
    30   181   182    1
    31   166   167    1
    32   184   182    1
    33   182   183    1
    34   148   150   am
    35    96    97    1
    36    96    93    1
    37   190   193    1
    38   190   191    1
    39   212   211    1
    40   167   170    1
    41    83    81    1
    42   146   139   am
    43    78    79    2
    44    78    77    1
    45    62    63    1
    46    80    81    1
    47    80    77    1
    48    81    82    1
    49    94    95    2
    50    94    93    1
    51   153   152    2
    52   152   151    1
    53   150   151    1
    54   170   171    1
    55    93    92    1
    56    76    77    1
    57    76    64   am
    58   191   199   am
    59   191   192    2
    60   211   208    1
    61   139   140    2
    62   139   138    1
    63   151   154    1
    64   199   200    1
    65   207   208    1
    66    92    86   am
    67    64    63    1
    68    64    65    2
    69    63    66    1
    70    68    70   ar
    71    68    67   ar
    72   144   143   ar
    73   141   138    1
    74   141   142    1
    75   208   209    1
    76    70    71   ar
    77   138   137    1
    78   171   172   ar
    79   171   173   ar
    80    84    85    1
    81   201   200    1
    82   201   202    2
    83   200   203    1
    84    67    66    1
    85    67    69   ar
    86   172   174   ar
    87   203   204    1
    88    71    73   ar
    89    71    69   ar
    90    86    87    2
    91    86    85    1
    92   154   155    1
    93   143   142    1
    94   143   145   ar
    95   102   103    2
    96   102   101    1
    97    73    75   ar
    98    69    72   ar
    99   133   132    2
   100   173   175   ar
   101   205   204    1
   102    85    88    1
   103   204   206    1
   104   209   210    2
   105   209   213   am
   106   155   156    1
   107   137   132   am
   108   107   105    1
   109   100   101    1
   110    75    74   ar
   111    72    74   ar
   112   104   105    1
   113   104   101    1
   114   105   106    1
   115   132   131    1
   116   156   157    1
   117   174   176   ar
   118   108   109    1
   119    88    89    1
   120   213   214    1
   121   175   176   ar
   122    89    90    1
   123    89    91    1
   124   135   134    1
   125   110   109    1
   126   110   111    2
   127   109   112    1
   128   131   134    1
   129   131   130    1
   130   134   136    1
   131   214   217    1
   132   214   215    1
   133   129   127   ar
   134   129   128   ar
   135   216   215    2
   136   127   125   ar
   137   217   218    1
   138    61    59    1
   139   112   113    1
   140   113   114    1
   141   128   126   ar
   142   117   116    1
   143   125   124   ar
   144     7     8    1
   145     7     6    1
   146   116   118    1
   147   116   115    2
   148    59    60    1
   149    59    58    1
   150   220   219    1
   151   126   124   ar
   152   218   219    1
   153   114   115    1
   154    15    14    1
   155   124   123    1
   156     6     5    1
   157    53    51   ar
   158   119   120    1
   159    36    33    1
   160    52    51   ar
   161    58    55    1
   162   120   123    1
   163   120   121    1
   164    55    56    1
   165    55    54    1
   166    57    56    2
   167    51    50    1
   168    16    14    1
   169    14    13    1
   170    13    10    1
   171    48    47    2
   172    49    50    1
   173    49    46    1
   174    33    34    1
   175    33    32    1
   176    35    34    2
   177    54    47   am
   178     5     2    1
   179    47    46    1
   180   121   122    2
   181    34    37   am
   182    12    11    2
   183    22    21    1
   184     2     1    1
   185     2     3    1
   186    11    10    1
   187    11    17   am
   188    10     9    1
   189    46    45    1
   190    32    26   am
   191    31    29    1
   192    17    18    1
   193    43    42   ar
   194    18    21    1
   195    18    19    1
   196    37    38    1
   197     4     3    2
   198    21    23    1
   199    29    28    1
   200    29    30    1
   201    38    39    1
   202    38    41    1
   203    26    27    2
   204    26    25    1
   205    20    19    2
   206    42    44   ar
   207    42    41    1
   208    40    39    2
   209    28    25    1
   210    25    24    1
