@<TRIPOS>MOLECULE
tmp/5tlqA00.pdb
 122 114 0 0 0
SMALL
GASTEIGER

@<TRIPOS>ATOM
      1  N         -9.8560   13.5820    2.5610 N.3    18  PRO18      -0.2102
      2  CA        -9.9750   13.9670    1.1530 C.3    18  PRO18       0.1504
      3  C         -8.6880   13.7280    0.3660 C.2    18  PRO18       0.2576
      4  O         -7.5810   13.8900    0.8860 O.2    18  PRO18      -0.2718
      5  CB       -10.2830   15.4590    1.2390 C.3    18  PRO18       0.0282
      6  CG        -9.6100   15.9150    2.4850 C.3    18  PRO18       0.0208
      7  CD        -9.6440   14.7510    3.4390 C.3    18  PRO18       0.0893
      8  N         -8.8400   13.3400   -0.8910 N.am   19  VAL19      -0.1966
      9  CA        -7.6980   13.0850   -1.7550 C.3    19  VAL19       0.1727
     10  C         -7.1540   14.3950   -2.3240 C.2    19  VAL19       0.2616
     11  O         -7.8210   15.4310   -2.2540 O.2    19  VAL19      -0.2715
     12  CB        -8.0690   12.1310   -2.9100 C.3    19  VAL19       0.0290
     13  CG1       -8.4620   10.7670   -2.3660 C.3    19  VAL19       0.0023
     14  CG2       -9.1970   12.7110   -3.7510 C.3    19  VAL19       0.0023
     15  N         -5.9470   14.3470   -2.8790 N.am   20  SER20      -0.1950
     16  CA        -5.3170   15.5310   -3.4480 C.3    20  SER20       0.1924
     17  C         -6.0720   16.0190   -4.6860 C.2    20  SER20       0.2314
     18  O         -6.5120   17.1660   -4.7460 O.2    20  SER20      -0.2863
     19  CB        -3.8640   15.2230   -3.8090 C.3    20  SER20       0.2116
     20  OG        -3.3780   14.1260   -3.0510 O.3    20  SER20      -0.2180
     21  N         -9.3070    6.6970   -5.2510 N.3    26  GLU26      -0.1245
     22  CA        -8.0770    6.3560   -4.5490 C.3    26  GLU26       0.1567
     23  C         -8.1470    4.9600   -3.9340 C.2    26  GLU26       0.2260
     24  O         -9.0760    4.6420   -3.1910 O.2    26  GLU26      -0.2867
     25  CB        -7.8000    7.3900   -3.4520 C.3    26  GLU26       0.0388
     26  CG        -6.6350    7.0310   -2.5400 C.3    26  GLU26       0.1160
     27  CD        -6.8970    7.3780   -1.0860 C.2    26  GLU26       0.3649
     28  OE1       -7.7760    6.7400   -0.4680 O.co2  26  GLU26      -0.2457
     29  OE2       -6.2150    8.2810   -0.5540 O.co2  26  GLU26      -0.2457
     30  N         -5.5860    2.5990   -1.8240 N.3    28  VAL28      -0.1245
     31  CA        -4.3030    2.4540   -1.1470 C.3    28  VAL28       0.1561
     32  C         -4.2390    1.1720   -0.3250 C.2    28  VAL28       0.2260
     33  O         -5.1740    0.8440    0.4020 O.2    28  VAL28      -0.2867
     34  CB        -4.0290    3.6530   -0.2110 C.3    28  VAL28       0.0252
     35  CG1       -2.7090    3.4840    0.5280 C.3    28  VAL28       0.0019
     36  CG2       -4.0330    4.9560   -0.9900 C.3    28  VAL28       0.0019
     37  N         -2.1370    3.0650   -5.1780 N.3    59  VAL59      -0.1231
     38  CA        -0.9160    3.6310   -4.6130 C.3    59  VAL59       0.1692
     39  C         -0.2480    2.6320   -3.6710 C.2    59  VAL59       0.2592
     40  O         -0.9170    1.9600   -2.8860 O.2    59  VAL59      -0.2718
     41  CB        -1.1960    4.9400   -3.8370 C.3    59  VAL59       0.0266
     42  CG1        0.0960    5.6910   -3.5610 C.3    59  VAL59       0.0020
     43  CG2       -2.1790    5.8240   -4.5880 C.3    59  VAL59       0.0020
     44  N          1.0720    2.5320   -3.7640 N.am   60  ARG60      -0.1966
     45  CA         1.8330    1.6250   -2.9140 C.3    60  ARG60       0.1729
     46  C          2.3860    2.3820   -1.7130 C.2    60  ARG60       0.2616
     47  O          3.3680    3.1130   -1.8390 O.2    60  ARG60      -0.2715
     48  CB         2.9920    0.9970   -3.6930 C.3    60  ARG60       0.0348
     49  CG         2.5760    0.3400   -4.9970 C.3    60  ARG60       0.0492
     50  CD         3.7860   -0.1120   -5.7990 C.3    60  ARG60       0.2205
     51  NE         3.4290   -0.5160   -7.1600 N.pl3  60  ARG60      -0.0865
     52  CZ         3.9910   -0.0140   -8.2640 C.cat  60  ARG60       0.5346
     53  NH1        4.9790    0.8710   -8.1730 N.pl3  60  ARG60       0.1354
     54  NH2        3.5800   -0.4240   -9.4600 N.pl3  60  ARG60       0.1354
     55  N          1.7600    2.2130   -0.5570 N.am   61  LEU61      -0.1977
     56  CA         2.2020    2.8950    0.6510 C.3    61  LEU61       0.1596
     57  C          2.4640    1.8920    1.7690 C.2    61  LEU61       0.2287
     58  O          1.6320    1.0290    2.0400 O.2    61  LEU61      -0.2864
     59  CB         1.1550    3.9210    1.1010 C.3    61  LEU61       0.0297
     60  CG         0.9540    5.1090    0.1530 C.3    61  LEU61       0.0022
     61  CD1       -0.1050    6.0540    0.6950 C.3    61  LEU61       0.0001
     62  CD2        2.2620    5.8530   -0.0690 C.3    61  LEU61       0.0001
     63  N          9.7140    3.5400   -0.9230 N.3    77  LEU77      -0.1245
     64  CA         9.5490    4.9130   -1.3980 C.3    77  LEU77       0.1561
     65  C         10.8110    5.3970   -2.1020 C.2    77  LEU77       0.2260
     66  O         10.7480    6.1940   -3.0420 O.2    77  LEU77      -0.2867
     67  CB         9.2110    5.8480   -0.2350 C.3    77  LEU77       0.0270
     68  CG         7.8910    5.5430    0.4800 C.3    77  LEU77       0.0019
     69  CD1        7.6470    6.5330    1.6110 C.3    77  LEU77       0.0001
     70  CD2        6.7340    5.5600   -0.5090 C.3    77  LEU77       0.0001
     71  N         10.7480    4.0280   -5.6980 N.3    80  GLU80      -0.1245
     72  CA         9.7460    4.7270   -6.5030 C.3    80  GLU80       0.1567
     73  C         10.2510    6.1080   -6.9350 C.2    80  GLU80       0.2260
     74  O          9.8710    6.6210   -7.9890 O.2    80  GLU80      -0.2867
     75  CB         8.4370    4.8720   -5.7170 C.3    80  GLU80       0.0388
     76  CG         7.8270    3.5490   -5.2700 C.3    80  GLU80       0.1160
     77  CD         7.0060    2.8730   -6.3540 C.2    80  GLU80       0.3649
     78  OE1        6.8690    1.6280   -6.3120 O.co2  80  GLU80      -0.2457
     79  OE2        6.4840    3.5760   -7.2440 O.co2  80  GLU80      -0.2457
     80  N          8.0910   12.4060    1.6710 N.3   135  GLN135     -0.1245
     81  CA         7.1320   11.3740    1.3130 C.3   135  GLN135      0.1566
     82  C          6.7710   10.5460    2.5430 C.2   135  GLN135      0.2260
     83  O          5.6260   10.1240    2.7140 O.2   135  GLN135     -0.2867
     84  CB         7.7200   10.4660    0.2340 C.3   135  GLN135      0.0367
     85  CG         7.7570   11.0960   -1.1490 C.3   135  GLN135      0.0905
     86  CD         8.5220   10.2580   -2.1540 C.2   135  GLN135      0.2608
     87  OE1        7.9760    9.3330   -2.7560 O.2   135  GLN135     -0.2717
     88  NE2        9.7850   10.5880   -2.3600 N.am  135  GLN135     -0.0878
     89  N          4.3900   12.3690    4.7310 N.3   138  LYS138     -0.1231
     90  CA         3.1360   12.4430    3.9950 C.3   138  LYS138      0.1693
     91  C          2.2980   11.1950    4.2370 C.2   138  LYS138      0.2591
     92  O          1.1240   11.2820    4.5850 O.2   138  LYS138     -0.2718
     93  CB         3.4050   12.6010    2.4950 C.3   138  LYS138      0.0285
     94  CG         2.6330   13.7380    1.8360 C.3   138  LYS138      0.0035
     95  CD         1.1300   13.4940    1.8410 C.3   138  LYS138      0.0206
     96  CE         0.4170   14.4390    0.8870 C.3   138  LYS138      0.1093
     97  NZ        -1.0600   14.3210    0.9830 N.3   138  LYS138     -0.1314
     98  N          2.9150   10.0360    4.0650 N.am  139  ALA139     -0.1980
     99  CA         2.2230    8.7700    4.2510 C.3   139  ALA139      0.1597
    100  C          1.9610    8.4900    5.7280 C.2   139  ALA139      0.2287
    101  O          0.9240    7.9380    6.0820 O.2   139  ALA139     -0.2864
    102  CB         3.0230    7.6360    3.6320 C.3   139  ALA139      0.0319
    103  N         -1.0500   10.1810    6.9720 N.3   142  LEU142     -0.1245
    104  CA        -2.2180    9.6830    6.2510 C.3   142  LEU142      0.1561
    105  C         -2.5930    8.2930    6.7410 C.2   142  LEU142      0.2260
    106  O         -3.7680    7.9800    6.8980 O.2   142  LEU142     -0.2867
    107  CB        -1.9530    9.6410    4.7470 C.3   142  LEU142      0.0270
    108  CG        -1.9360   10.9990    4.0460 C.3   142  LEU142      0.0019
    109  CD1       -1.4190   10.8460    2.6260 C.3   142  LEU142      0.0001
    110  CD2       -3.3270   11.6220    4.0410 C.3   142  LEU142      0.0001
    111  N         -6.1510    7.0820    8.2100 N.3   146  TYR146     -0.1241
    112  CA        -6.9620    6.0990    7.5000 C.3   146  TYR146      0.1605
    113  C         -7.4340    5.0050    8.4580 C.2   146  TYR146      0.2264
    114  O         -8.0500    4.0240    8.0380 O.2   146  TYR146     -0.2867
    115  CB        -6.1680    5.4700    6.3470 C.3   146  TYR146      0.0534
    116  CG        -5.9360    6.3830    5.1550 C.ar  146  TYR146     -0.0201
    117  CD1       -6.4790    7.6630    5.0960 C.ar  146  TYR146     -0.0009
    118  CD2       -5.1630    5.9540    4.0820 C.ar  146  TYR146     -0.0009
    119  CE1       -6.2560    8.4840    4.0080 C.ar  146  TYR146      0.0417
    120  CE2       -4.9370    6.7710    2.9890 C.ar  146  TYR146      0.0417
    121  CZ        -5.4860    8.0350    2.9580 C.ar  146  TYR146      0.1957
    122  OH        -5.2620    8.8580    1.8760 O.3   146  TYR146     -0.2866
@<TRIPOS>BOND
     1    54    52    1
     2    52    53    1
     3    52    51    2
     4    74    73    2
     5    79    77   ar
     6    51    50    1
     7    73    72    1
     8    72    75    1
     9    72    71    1
    10    77    78   ar
    11    77    76    1
    12    50    49    1
    13    75    76    1
    14    21    22    1
    15    37    38    1
    16    49    48    1
    17    18    17    2
    18    17    16    1
    19    38    41    1
    20    38    39    1
    21    43    41    1
    22    22    23    1
    23    22    25    1
    24    23    24    2
    25    41    42    1
    26    19    16    1
    27    19    20    1
    28    44    39   am
    29    44    45    1
    30    14    12    1
    31    48    45    1
    32    39    40    2
    33    25    26    1
    34    16    15    1
    35    66    65    2
    36    45    46    1
    37    12    13    1
    38    12     9    1
    39    15    10   am
    40    87    86    2
    41    26    27    1
    42    88    86   am
    43    10    11    2
    44    10     9    1
    45    86    85    1
    46    65    64    1
    47    47    46    2
    48    30    31    1
    49     9     8    1
    50    46    55   am
    51    64    63    1
    52    64    67    1
    53    85    84    1
    54    31    32    1
    55    31    34    1
    56    27    29   ar
    57    27    28   ar
    58    36    34    1
    59     8     3   am
    60    55    56    1
    61    70    68    1
    62    32    33    2
    63    67    68    1
    64    34    35    1
    65    62    60    1
    66    60    61    1
    67    60    59    1
    68    84    81    1
    69     3     4    2
    70     3     2    1
    71    68    69    1
    72    56    59    1
    73    56    57    1
    74    96    97    1
    75    96    95    1
    76     2     5    1
    77     2     1    1
    78     5     6    1
    79    81    80    1
    80    81    82    1
    81    57    58    2
    82    94    95    1
    83    94    93    1
    84   122   121    1
    85     6     7    1
    86    93    90    1
    87    82    83    2
    88     1     7    1
    89   109   108    1
    90   121   120   ar
    91   121   119   ar
    92   120   118   ar
    93   102    99    1
    94    90    91    1
    95    90    89    1
    96   119   117   ar
    97   110   108    1
    98   108   107    1
    99    98    91   am
   100    98    99    1
   101   118   116   ar
   102    91    92    2
   103    99   100    1
   104   107   104    1
   105   117   116   ar
   106   116   115    1
   107   100   101    2
   108   104   105    1
   109   104   103    1
   110   115   112    1
   111   105   106    2
   112   112   111    1
   113   112   113    1
   114   114   113    2
