@<TRIPOS>MOLECULE
tmp/5tltA01.pdb
 206 195 0 0 0
SMALL
GASTEIGER

@<TRIPOS>ATOM
      1  N         26.1910    7.1750    3.5570 N.3    41  MET41      -0.1245
      2  CA        26.2620    8.5480    4.0470 C.3    41  MET41       0.1570
      3  C         26.9860    9.4680    3.0690 C.2    41  MET41       0.2261
      4  O         26.6720   10.6620    3.0030 O.2    41  MET41      -0.2867
      5  CB        26.9150    8.5740    5.4270 C.3    41  MET41       0.0387
      6  CG        26.0290    7.9250    6.4850 C.3    41  MET41       0.0595
      7  SD        24.3450    8.6010    6.4360 S.3    41  MET41      -0.1393
      8  CE        23.3670    7.1410    6.7690 C.3    41  MET41       0.0692
      9  N         24.2030   10.3740    0.5930 N.3    44  LEU44      -0.1231
     10  CA        23.1230   11.2030    1.1140 C.3    44  LEU44       0.1693
     11  C         23.5850   12.6220    1.4140 C.2    44  LEU44       0.2592
     12  O         22.8370   13.5770    1.1810 O.2    44  LEU44      -0.2718
     13  CB        22.5260   10.5590    2.3600 C.3    44  LEU44       0.0284
     14  CG        21.8660    9.2060    2.0910 C.3    44  LEU44       0.0019
     15  CD1       21.3870    8.6010    3.4050 C.3    44  LEU44       0.0001
     16  CD2       20.7140    9.3710    1.1150 C.3    44  LEU44       0.0001
     17  N         24.8050   12.7910    1.9300 N.am   45  THR45      -0.1953
     18  CA        25.2800   14.1420    2.2170 C.3    45  THR45       0.1897
     19  C         25.6900   14.8670    0.9360 C.2    45  THR45       0.2313
     20  O         25.4860   16.0830    0.8080 O.2    45  THR45      -0.2863
     21  CB        26.4380   14.0850    3.2050 C.3    45  THR45       0.1794
     22  OG1       27.5000   13.3100    2.6450 O.3    45  THR45      -0.2208
     23  CG2       25.9750   13.4440    4.5170 C.3    45  THR45       0.0378
     24  N         24.1620   14.4270   -1.9100 N.3    47  LEU47      -0.1231
     25  CA        22.8800   14.8380   -2.4580 C.3    47  LEU47       0.1693
     26  C         22.3380   16.0530   -1.7140 C.2    47  LEU47       0.2591
     27  O         21.9100   17.0370   -2.3330 O.2    47  LEU47      -0.2718
     28  CB        21.8940   13.6710   -2.4040 C.3    47  LEU47       0.0284
     29  CG        20.4520   14.0400   -2.7530 C.3    47  LEU47       0.0019
     30  CD1       20.3430   14.4440   -4.2410 C.3    47  LEU47       0.0001
     31  CD2       19.4980   12.9120   -2.4270 C.3    47  LEU47       0.0001
     32  N         22.3720   16.0140   -0.3800 N.am   48  ALA48      -0.1980
     33  CA        21.8820   17.1460    0.3950 C.3    48  ALA48       0.1597
     34  C         22.6670   18.4060    0.0820 C.2    48  ALA48       0.2287
     35  O         22.0940   19.5040    0.0130 O.2    48  ALA48      -0.2864
     36  CB        21.9600   16.8430    1.8940 C.3    48  ALA48       0.0319
     37  N         21.3280   19.7700   -3.0460 N.3    51  GLU51      -0.1245
     38  CA        19.9750   20.2690   -2.8110 C.3    51  GLU51       0.1567
     39  C         19.9810   21.5990   -2.0560 C.2    51  GLU51       0.2260
     40  O         19.1180   22.4530   -2.2970 O.2    51  GLU51      -0.2867
     41  CB        19.1600   19.2380   -2.0370 C.3    51  GLU51       0.0388
     42  CG        18.7440   18.0000   -2.8310 C.3    51  GLU51       0.1160
     43  CD        17.8220   17.0980   -2.0210 C.2    51  GLU51       0.3649
     44  OE1       18.3280   16.3790   -1.1190 O.co2  51  GLU51      -0.2457
     45  OE2       16.5970   17.1240   -2.2750 O.co2  51  GLU51      -0.2457
     46  N         16.5410   24.0060    7.4140 N.3    81  TRP81      -0.1227
     47  CA        17.0240   23.3560    6.1930 C.3    81  TRP81       0.1737
     48  C         16.7290   21.8560    6.1870 C.2    81  TRP81       0.2595
     49  O         16.3200   21.3050    5.1580 O.2    81  TRP81      -0.2718
     50  CB        18.5200   23.6180    5.9830 C.3    81  TRP81       0.0564
     51  CG        19.4230   23.0030    6.9830 C.ar   81  TRP81       0.0003
     52  CD1       19.8190   23.5580    8.1640 C.ar   81  TRP81       0.0946
     53  CD2       20.0510   21.7220    6.9110 C.ar   81  TRP81       0.0152
     54  NE1       20.6600   22.7070    8.8300 N.ar   81  TRP81      -0.2442
     55  CE2       20.8210   21.5700    8.0820 C.ar   81  TRP81       0.0810
     56  CE3       20.0440   20.6850    5.9680 C.ar   81  TRP81       0.0012
     57  CZ2       21.5720   20.4330    8.3400 C.ar   81  TRP81       0.0191
     58  CZ3       20.8060   19.5540    6.2280 C.ar   81  TRP81       0.0001
     59  CH2       21.5460   19.4350    7.4040 C.ar   81  TRP81       0.0015
     60  N         16.9050   21.1750    7.3220 N.am   82  LEU82      -0.1980
     61  CA        16.7070   19.7270    7.2980 C.3    82  LEU82       0.1596
     62  C         15.2200   19.3860    7.2520 C.2    82  LEU82       0.2287
     63  O         14.8190   18.4110    6.6080 O.2    82  LEU82      -0.2864
     64  CB        17.3980   19.0630    8.4950 C.3    82  LEU82       0.0297
     65  CG        17.4490   17.5250    8.4350 C.3    82  LEU82       0.0022
     66  CD1       17.9920   17.0250    7.0470 C.3    82  LEU82       0.0001
     67  CD2       18.2880   16.9550    9.5580 C.3    82  LEU82       0.0001
     68  N         14.4680   19.6750    3.5360 N.3    85  LEU85      -0.1231
     69  CA        14.9080   18.4960    2.7830 C.3    85  LEU85       0.1693
     70  C         14.0020   17.3070    3.0650 C.2    85  LEU85       0.2591
     71  O         13.6370   16.5590    2.1510 O.2    85  LEU85      -0.2718
     72  CB        16.3580   18.1290    3.1180 C.3    85  LEU85       0.0284
     73  CG        17.4580   19.0990    2.7430 C.3    85  LEU85       0.0019
     74  CD1       18.7830   18.5160    3.2080 C.3    85  LEU85       0.0001
     75  CD2       17.4890   19.3090    1.1920 C.3    85  LEU85       0.0001
     76  N         13.6320   17.1120    4.3340 N.am   86  MET86      -0.1979
     77  CA        12.8640   15.9350    4.7130 C.3    86  MET86       0.1605
     78  C         11.4340   15.9870    4.1920 C.2    86  MET86       0.2287
     79  O         10.8950   14.9570    3.7720 O.2    86  MET86      -0.2864
     80  CB        12.8740   15.7620    6.2300 C.3    86  MET86       0.0413
     81  CG        14.1720   15.1620    6.7440 C.3    86  MET86       0.0598
     82  SD        14.1040   14.9890    8.5590 S.3    86  MET86      -0.1393
     83  CE        15.5060   13.8960    8.8180 C.3    86  MET86       0.0692
     84  N         11.7280   15.0010    0.6890 N.3    89  LEU89      -0.1245
     85  CA        11.9480   13.5620    0.5820 C.3    89  LEU89       0.1561
     86  C         10.6410   12.7850    0.7250 C.2    89  LEU89       0.2260
     87  O         10.3530   11.8840   -0.0760 O.2    89  LEU89      -0.2867
     88  CB        12.9580   13.1210    1.6370 C.3    89  LEU89       0.0270
     89  CG        13.1120   11.6220    1.8500 C.3    89  LEU89       0.0019
     90  CD1       13.7710   10.9670    0.6240 C.3    89  LEU89       0.0001
     91  CD2       13.9030   11.3840    3.1130 C.3    89  LEU89       0.0001
     92  N          8.3070   13.2920   -2.4790 N.3    92  ARG92      -0.1245
     93  CA         8.5970   12.5080   -3.6720 C.3    92  ARG92       0.1563
     94  C          8.6370   11.0090   -3.3940 C.2    92  ARG92       0.2260
     95  O          8.6870   10.2330   -4.3510 O.2    92  ARG92      -0.2867
     96  CB         9.8930   12.9910   -4.3290 C.3    92  ARG92       0.0307
     97  CG        11.1010   12.9640   -3.4620 C.3    92  ARG92       0.0489
     98  CD        12.3360   13.5000   -4.2210 C.3    92  ARG92       0.2205
     99  NE        13.5010   13.3600   -3.3620 N.pl3  92  ARG92      -0.0865
    100  CZ        13.9260   14.2940   -2.5200 C.cat  92  ARG92       0.5346
    101  NH1       13.3000   15.4650   -2.4500 N.pl3  92  ARG92       0.1354
    102  NH2       14.9900   14.0570   -1.7620 N.pl3  92  ARG92       0.1354
    103  N         15.2120    9.0480   -2.2990 N.3   102  PHE102     -0.1241
    104  CA        16.1600   10.1390   -2.1120 C.3   102  PHE102      0.1605
    105  C         16.4370   10.8460   -3.4260 C.2   102  PHE102      0.2264
    106  O         16.5850   12.0750   -3.4660 O.2   102  PHE102     -0.2867
    107  CB        17.4370    9.5990   -1.4700 C.3   102  PHE102      0.0534
    108  CG        17.2870    9.3470   -0.0040 C.ar  102  PHE102     -0.0203
    109  CD1       17.4440   10.3900    0.9010 C.ar  102  PHE102     -0.0042
    110  CD2       16.9490    8.0910    0.4710 C.ar  102  PHE102     -0.0042
    111  CE1       17.2980   10.1740    2.2630 C.ar  102  PHE102     -0.0003
    112  CE2       16.7920    7.8690    1.8390 C.ar  102  PHE102     -0.0003
    113  CZ        16.9660    8.9120    2.7300 C.ar  102  PHE102     -0.0000
    114  N         22.8940    0.6380    9.0370 N.3   116  VAL116     -0.1231
    115  CA        23.5360    1.8410    9.5500 C.3   116  VAL116      0.1692
    116  C         22.9510    2.1310   10.9250 C.2   116  VAL116      0.2592
    117  O         21.7320    2.2940   11.0650 O.2   116  VAL116     -0.2718
    118  CB        23.3380    3.0400    8.6130 C.3   116  VAL116      0.0266
    119  CG1       24.0540    4.2610    9.1640 C.3   116  VAL116      0.0020
    120  CG2       23.8230    2.7000    7.2000 C.3   116  VAL116      0.0020
    121  N         23.8180    2.1890   11.9340 N.am  117  GLU117     -0.1966
    122  CA        23.3760    2.4170   13.3040 C.3   117  GLU117      0.1733
    123  C         22.5550    3.6960   13.4020 C.2   117  GLU117      0.2617
    124  O         22.9920    4.7640   12.9640 O.2   117  GLU117     -0.2715
    125  CB        24.5860    2.4910   14.2350 C.3   117  GLU117      0.0429
    126  CG        24.2870    3.0550   15.6210 C.3   117  GLU117      0.1163
    127  CD        23.6450    2.0440   16.5570 C.2   117  GLU117      0.3649
    128  OE1       23.5480    0.8540   16.1880 O.co2 117  GLU117     -0.2457
    129  OE2       23.2430    2.4420   17.6690 O.co2 117  GLU117     -0.2457
    130  N         21.3560    3.5780   13.9760 N.am  118  GLY118     -0.1940
    131  CA        20.4810    4.7100   14.2060 C.3   118  GLY118      0.2014
    132  C         19.6310    5.1300   13.0260 C.2   118  GLY118      0.2638
    133  O         18.7880    6.0220   13.1800 O.2   118  GLY118     -0.2714
    134  N         19.8090    4.5110   11.8590 N.am  119  MET119     -0.1976
    135  CA        19.1090    4.9740   10.6680 C.3   119  MET119      0.1605
    136  C         17.6740    4.4690   10.6080 C.2   119  MET119      0.2287
    137  O         16.7770    5.2060   10.1870 O.2   119  MET119     -0.2864
    138  CB        19.8710    4.5450    9.4140 C.3   119  MET119      0.0413
    139  CG        19.1870    4.9600    8.1190 C.3   119  MET119      0.0598
    140  SD        20.1500    4.5900    6.6350 S.3   119  MET119     -0.1393
    141  CE        19.0840    5.3190    5.3870 C.3   119  MET119      0.0692
    142  N         14.8010    6.7510   12.1450 N.3   122  ILE122     -0.1231
    143  CA        14.4420    7.9270   11.3590 C.3   122  ILE122      0.1692
    144  C         13.8440    7.5050   10.0240 C.2   122  ILE122      0.2592
    145  O         12.9080    8.1350    9.5160 O.2   122  ILE122     -0.2718
    146  CB        15.6740    8.8320   11.1720 C.3   122  ILE122      0.0266
    147  CG1       16.3560    9.0890   12.5180 C.3   122  ILE122      0.0019
    148  CG2       15.2790   10.1490   10.5200 C.3   122  ILE122      0.0020
    149  CD1       17.7020    9.7830   12.4010 C.3   122  ILE122      0.0001
    150  N         14.3830    6.4370    9.4380 N.am  123  PHE123     -0.1976
    151  CA        13.8010    5.8460    8.2420 C.3   123  PHE123      0.1639
    152  C         12.3140    5.5720    8.4340 C.2   123  PHE123      0.2290
    153  O         11.4840    6.0340    7.6460 O.2   123  PHE123     -0.2864
    154  CB        14.5520    4.5580    7.9000 C.3   123  PHE123      0.0560
    155  CG        14.5490    4.2150    6.4450 C.ar  123  PHE123     -0.0200
    156  CD1       15.6630    4.4710    5.6620 C.ar  123  PHE123     -0.0042
    157  CD2       13.4430    3.6230    5.8600 C.ar  123  PHE123     -0.0042
    158  CE1       15.6780    4.1510    4.3150 C.ar  123  PHE123     -0.0003
    159  CE2       13.4440    3.3000    4.5140 C.ar  123  PHE123     -0.0003
    160  CZ        14.5660    3.5630    3.7390 C.ar  123  PHE123     -0.0000
    161  N         10.2240    8.6930    8.5940 N.3   126  LEU126     -0.1245
    162  CA        10.0300    9.2670    7.2670 C.3   126  LEU126      0.1561
    163  C          8.9880    8.4800    6.4850 C.2   126  LEU126      0.2260
    164  O          8.1220    9.0730    5.8340 O.2   126  LEU126     -0.2867
    165  CB        11.3620    9.3220    6.5010 C.3   126  LEU126      0.0270
    166  CG        12.3630   10.3350    7.0680 C.3   126  LEU126      0.0019
    167  CD1       13.7850   10.0800    6.5990 C.3   126  LEU126      0.0001
    168  CD2       11.9420   11.7820    6.7730 C.3   126  LEU126      0.0001
    169  N         17.3630   13.7820   13.1720 N.3   207  GLY207     -0.1225
    170  CA        18.3590   13.6840   12.1160 C.3   207  GLY207      0.1811
    171  C         19.5630   14.5620   12.3860 C.2   207  GLY207      0.2280
    172  O         20.7000   14.1570   12.1520 O.2   207  GLY207     -0.2866
    173  N         21.8360   12.8380   14.6680 N.3   210  HIS210     -0.1226
    174  CA        22.5670   11.7650   14.0010 C.3   210  HIS210      0.1752
    175  C         23.6380   12.3170   13.0760 C.2   210  HIS210      0.2595
    176  O         24.7340   11.7530   12.9810 O.2   210  HIS210     -0.2718
    177  CB        21.6020   10.8580   13.2410 C.3   210  HIS210      0.0759
    178  CG        20.9970    9.7940   14.1040 C.ar  210  HIS210      0.0818
    179  ND1       19.8890   10.0160   14.8940 N.ar  210  HIS210     -0.2268
    180  CD2       21.3790    8.5170   14.3420 C.ar  210  HIS210      0.1154
    181  CE1       19.5990    8.9130   15.5630 C.ar  210  HIS210      0.1986
    182  NE2       20.4900    7.9900   15.2490 N.ar  210  HIS210     -0.2212
    183  N         23.3450   13.4160   12.3820 N.am  211  LEU211     -0.1980
    184  CA        24.3380   13.9880   11.4770 C.3   211  LEU211      0.1596
    185  C         25.5630   14.4740   12.2470 C.2   211  LEU211      0.2287
    186  O         26.7040   14.3070   11.7950 O.2   211  LEU211     -0.2864
    187  CB        23.7090   15.1230   10.6760 C.3   211  LEU211      0.0297
    188  CG        24.6080   15.7990    9.6450 C.3   211  LEU211      0.0022
    189  CD1       25.0620   14.8060    8.5870 C.3   211  LEU211      0.0001
    190  CD2       23.8650   16.9580    9.0030 C.3   211  LEU211      0.0001
    191  N         27.5570   11.5150   13.1660 N.3   214  MET214     -0.1245
    192  CA        28.3010   11.1170   11.9760 C.3   214  MET214      0.1570
    193  C         29.4770   12.0590   11.7330 C.2   214  MET214      0.2261
    194  O         30.5570   11.6200   11.3250 O.2   214  MET214     -0.2867
    195  CB        27.3560   11.0760   10.7730 C.3   214  MET214      0.0387
    196  CG        28.0320   10.9040    9.4170 C.3   214  MET214      0.0595
    197  SD        26.8800   11.0200    8.0250 S.3   214  MET214     -0.1393
    198  CE        27.9430   11.7990    6.8310 C.3   214  MET214      0.0692
    199  N         27.4810   22.0680    4.3350 N.3   226  LEU226     -0.1245
    200  CA        26.6920   21.1890    5.1840 C.3   226  LEU226      0.1561
    201  C         27.1650   21.2700    6.6330 C.2   226  LEU226      0.2260
    202  O         26.3480   21.1730    7.5570 O.2   226  LEU226     -0.2867
    203  CB        26.7440   19.7570    4.6410 C.3   226  LEU226      0.0270
    204  CG        25.8110   18.7480    5.3080 C.3   226  LEU226      0.0019
    205  CD1       24.3940   19.3160    5.4000 C.3   226  LEU226      0.0001
    206  CD2       25.8050   17.4350    4.5420 C.3   226  LEU226      0.0001
@<TRIPOS>BOND
     1    95    94    2
     2    96    93    1
     3    96    97    1
     4    30    29    1
     5    98    97    1
     6    98    99    1
     7    93    94    1
     8    93    92    1
     9   106   105    2
    10   105   104    1
    11    99   100    2
    12    37    38    1
    13    42    41    1
    14    42    43    1
    15    38    39    1
    16    38    41    1
    17    29    31    1
    18    29    28    1
    19   100   101    1
    20   100   102    1
    21    25    28    1
    22    25    24    1
    23    25    26    1
    24    27    26    2
    25   103   104    1
    26    40    39    2
    27    45    43   ar
    28   104   107    1
    29    43    44   ar
    30    26    32   am
    31   107   108    1
    32    32    33    1
    33    87    86    2
    34   108   110   ar
    35   108   109   ar
    36    35    34    2
    37    34    33    1
    38    33    36    1
    39   110   112   ar
    40    85    84    1
    41    85    86    1
    42    85    88    1
    43     9    10    1
    44    90    89    1
    45    20    19    2
    46   109   111   ar
    47    19    18    1
    48    10    11    1
    49    10    13    1
    50    16    14    1
    51    12    11    2
    52    75    73    1
    53    11    17   am
    54    88    89    1
    55   112   113   ar
    56    89    91    1
    57    17    18    1
    58    14    13    1
    59    14    15    1
    60    71    70    2
    61    18    21    1
    62   111   113   ar
    63    22    21    1
    64    73    72    1
    65    73    74    1
    66    69    70    1
    67    69    72    1
    68    69    68    1
    69     4     3    2
    70    70    76   am
    71     3     2    1
    72    21    23    1
    73     1     2    1
    74   160   158   ar
    75   160   159   ar
    76    79    78    2
    77     2     5    1
    78    78    77    1
    79   158   156   ar
    80    76    77    1
    81   199   200    1
    82   159   157   ar
    83   206   204    1
    84   203   200    1
    85   203   204    1
    86    77    80    1
    87    49    48    2
    88   200   201    1
    89   204   205    1
    90   141   140    1
    91     5     6    1
    92   156   155   ar
    93   164   163    2
    94   157   155   ar
    95    56    58   ar
    96    56    53   ar
    97    50    47    1
    98    50    51    1
    99    48    47    1
   100    48    60   am
   101    47    46    1
   102    58    59   ar
   103    80    81    1
   104     7     6    1
   105     7     8    1
   106   155   154    1
   107   163   162    1
   108   165   166    1
   109   165   162    1
   110   167   166    1
   111    63    62    2
   112   201   202    2
   113   140   139    1
   114    81    82    1
   115   168   166    1
   116   198   197    1
   117    53    51   ar
   118    53    55   ar
   119    51    52   ar
   120    66    65    1
   121   120   118    1
   122    62    61    1
   123   162   161    1
   124    61    60    1
   125    61    64    1
   126    59    57   ar
   127   153   152    2
   128   154   151    1
   129   197   196    1
   130    55    57   ar
   131    55    54   ar
   132   139   138    1
   133    52    54   ar
   134   151   152    1
   135   151   150    1
   136    65    64    1
   137    65    67    1
   138    82    83    1
   139   189   188    1
   140   118   119    1
   141   118   115    1
   142   190   188    1
   143   114   115    1
   144   138   135    1
   145   196   195    1
   146   150   144   am
   147   145   144    2
   148   115   116    1
   149   188   187    1
   150   144   143    1
   151   137   136    2
   152   148   146    1
   153   136   135    1
   154   135   134    1
   155   187   184    1
   156   195   192    1
   157   116   117    2
   158   116   121   am
   159   146   143    1
   160   146   147    1
   161   194   193    2
   162   143   142    1
   163   184   185    1
   164   184   183    1
   165   193   192    1
   166   186   185    2
   167   134   132   am
   168   121   122    1
   169   192   191    1
   170   170   171    1
   171   170   169    1
   172   172   171    2
   173   183   175   am
   174   149   147    1
   175   124   123    2
   176   176   175    2
   177   132   133    2
   178   132   131    1
   179   175   174    1
   180   177   174    1
   181   177   178    1
   182   122   123    1
   183   122   125    1
   184   123   130   am
   185   130   131    1
   186   174   173    1
   187   178   180   ar
   188   178   179   ar
   189   125   126    1
   190   180   182   ar
   191   179   181   ar
   192   182   181   ar
   193   126   127    1
   194   128   127   ar
   195   127   129   ar
