@<TRIPOS>MOLECULE
tmp/5tluA01.pdb
 174 163 0 0 0
SMALL
GASTEIGER

@<TRIPOS>ATOM
      1  N        -26.5190  -34.5680   -1.6590 N.3    34  MET34      -0.1230
      2  CA       -25.1450  -34.0750   -1.6700 C.3    34  MET34       0.1702
      3  C        -25.0690  -32.6840   -2.2850 C.2    34  MET34       0.2592
      4  O        -24.3350  -31.8180   -1.7940 O.2    34  MET34      -0.2718
      5  CB       -24.2420  -35.0470   -2.4290 C.3    34  MET34       0.0401
      6  CG       -22.7940  -34.6520   -2.2160 C.3    34  MET34       0.0596
      7  SD       -21.5840  -35.8610   -2.7230 S.3    34  MET34      -0.1393
      8  CE       -21.7850  -35.7050   -4.4600 C.3    34  MET34       0.0692
      9  N        -25.8240  -32.4500   -3.3600 N.am   35  MET35      -0.1979
     10  CA       -25.8570  -31.1250   -3.9690 C.3    35  MET35       0.1605
     11  C        -26.4840  -30.1020   -3.0310 C.2    35  MET35       0.2287
     12  O        -26.0420  -28.9480   -2.9780 O.2    35  MET35      -0.2864
     13  CB       -26.6260  -31.1740   -5.2880 C.3    35  MET35       0.0413
     14  CG       -25.8660  -31.7740   -6.4490 C.3    35  MET35       0.0598
     15  SD       -24.5740  -30.6660   -7.0180 S.3    35  MET35      -0.1393
     16  CE       -25.4730  -29.1200   -7.1350 C.3    35  MET35       0.0692
     17  N        -23.9760  -29.0030   -0.3740 N.3    38  LEU38      -0.1231
     18  CA       -22.9030  -28.1600   -0.8890 C.3    38  LEU38       0.1693
     19  C        -23.4000  -26.7660   -1.2510 C.2    38  LEU38       0.2592
     20  O        -22.7110  -25.7740   -0.9880 O.2    38  LEU38      -0.2718
     21  CB       -22.2480  -28.8300   -2.0970 C.3    38  LEU38       0.0284
     22  CG       -21.5230  -30.1400   -1.7830 C.3    38  LEU38       0.0019
     23  CD1      -20.8710  -30.7110   -3.0310 C.3    38  LEU38       0.0001
     24  CD2      -20.4950  -29.9270   -0.6830 C.3    38  LEU38       0.0001
     25  N        -24.5870  -26.6660   -1.8550 N.am   39  THR39      -0.1953
     26  CA       -25.1360  -25.3500   -2.1670 C.3    39  THR39       0.1897
     27  C        -25.5630  -24.6110   -0.9050 C.2    39  THR39       0.2313
     28  O        -25.4410  -23.3820   -0.8390 O.2    39  THR39      -0.2863
     29  CB       -26.3110  -25.4810   -3.1350 C.3    39  THR39       0.1794
     30  OG1      -27.2590  -26.4210   -2.6160 O.3    39  THR39      -0.2208
     31  CG2      -25.8230  -25.9570   -4.4970 C.3    39  THR39       0.0378
     32  N        -23.9770  -25.0080    1.9660 N.3    41  LEU41      -0.1231
     33  CA       -22.6870  -24.5810    2.4990 C.3    41  LEU41       0.1693
     34  C        -22.1450  -23.3830    1.7320 C.2    41  LEU41       0.2591
     35  O        -21.6470  -22.4210    2.3290 O.2    41  LEU41      -0.2718
     36  CB       -21.6920  -25.7410    2.4530 C.3    41  LEU41       0.0284
     37  CG       -20.2730  -25.4260    2.9320 C.3    41  LEU41       0.0019
     38  CD1      -20.2920  -24.9450    4.3740 C.3    41  LEU41       0.0001
     39  CD2      -19.3670  -26.6380    2.7770 C.3    41  LEU41       0.0001
     40  N        -22.2320  -23.4240    0.4000 N.am   42  ALA42      -0.1980
     41  CA       -21.7070  -22.3250   -0.4030 C.3    42  ALA42       0.1597
     42  C        -22.4900  -21.0420   -0.1600 C.2    42  ALA42       0.2287
     43  O        -21.9190  -19.9450   -0.1780 O.2    42  ALA42      -0.2864
     44  CB       -21.7300  -22.6970   -1.8850 C.3    42  ALA42       0.0319
     45  N        -21.2570  -19.5720    3.0830 N.3    45  GLU45      -0.1245
     46  CA       -19.8880  -19.0840    2.9390 C.3    45  GLU45       0.1567
     47  C        -19.8310  -17.7610    2.1840 C.2    45  GLU45       0.2260
     48  O        -18.9390  -16.9440    2.4380 O.2    45  GLU45      -0.2867
     49  CB       -19.0260  -20.1270    2.2280 C.3    45  GLU45       0.0388
     50  CG       -18.4610  -21.2030    3.1380 C.3    45  GLU45       0.1160
     51  CD       -17.5370  -22.1490    2.4010 C.2    45  GLU45       0.3649
     52  OE1      -18.0350  -22.9680    1.6000 O.co2  45  GLU45      -0.2457
     53  OE2      -16.3090  -22.0620    2.6100 O.co2  45  GLU45      -0.2457
     54  N        -16.2490  -15.4440   -7.2130 N.3    75  TRP75      -0.1227
     55  CA       -16.7410  -16.0760   -5.9900 C.3    75  TRP75       0.1737
     56  C        -16.5010  -17.5820   -5.9940 C.2    75  TRP75       0.2595
     57  O        -16.1630  -18.1640   -4.9570 O.2    75  TRP75      -0.2718
     58  CB       -18.2250  -15.7730   -5.7950 C.3    75  TRP75       0.0564
     59  CG       -19.1070  -16.3700   -6.8440 C.ar   75  TRP75       0.0003
     60  CD1      -19.4520  -15.8100   -8.0380 C.ar   75  TRP75       0.0946
     61  CD2      -19.7600  -17.6440   -6.7950 C.ar   75  TRP75       0.0152
     62  NE1      -20.2790  -16.6550   -8.7360 N.ar   75  TRP75      -0.2442
     63  CE2      -20.4840  -17.7880   -7.9940 C.ar   75  TRP75       0.0810
     64  CE3      -19.8030  -18.6770   -5.8530 C.ar   75  TRP75       0.0012
     65  CZ2      -21.2420  -18.9220   -8.2770 C.ar   75  TRP75       0.0191
     66  CZ3      -20.5560  -19.8030   -6.1370 C.ar   75  TRP75       0.0001
     67  CH2      -21.2650  -19.9160   -7.3380 C.ar   75  TRP75       0.0015
     68  N        -16.6660  -18.2340   -7.1470 N.am   76  LEU76      -0.1980
     69  CA       -16.4590  -19.6780   -7.1920 C.3    76  LEU76       0.1596
     70  C        -14.9750  -20.0220   -7.1370 C.2    76  LEU76       0.2287
     71  O        -14.5910  -21.0340   -6.5400 O.2    76  LEU76      -0.2864
     72  CB       -17.1130  -20.2720   -8.4410 C.3    76  LEU76       0.0297
     73  CG       -17.0950  -21.8020   -8.5260 C.3    76  LEU76       0.0022
     74  CD1      -17.6240  -22.4190   -7.2360 C.3    76  LEU76       0.0001
     75  CD2      -17.8990  -22.2950   -9.7210 C.3    76  LEU76       0.0001
     76  N        -14.1470  -19.7380   -3.4200 N.3    79  LEU79      -0.1231
     77  CA       -14.6100  -20.9380   -2.7290 C.3    79  LEU79       0.1693
     78  C        -13.6920  -22.1190   -3.0110 C.2    79  LEU79       0.2591
     79  O        -13.3720  -22.8990   -2.1070 O.2    79  LEU79      -0.2718
     80  CB       -16.0400  -21.2810   -3.1480 C.3    79  LEU79       0.0284
     81  CG       -17.2080  -20.4570   -2.6110 C.3    79  LEU79       0.0019
     82  CD1      -18.5210  -21.1010   -3.0230 C.3    79  LEU79       0.0001
     83  CD2      -17.1270  -20.3190   -1.1030 C.3    79  LEU79       0.0001
     84  N        -13.2480  -22.2560   -4.2620 N.am   80  MET80      -0.1979
     85  CA       -12.4710  -23.4260   -4.6550 C.3    80  MET80       0.1605
     86  C        -11.0750  -23.4050   -4.0410 C.2    80  MET80       0.2287
     87  O        -10.6020  -24.4260   -3.5290 O.2    80  MET80      -0.2864
     88  CB       -12.3980  -23.5150   -6.1790 C.3    80  MET80       0.0413
     89  CG       -13.6530  -24.1050   -6.8050 C.3    80  MET80       0.0598
     90  SD       -13.5840  -24.2180   -8.6010 S.3    80  MET80      -0.1393
     91  CE       -14.8460  -25.4520   -8.9090 C.3    80  MET80       0.0692
     92  N        -11.3240  -24.4370   -0.6220 N.3    83  LEU83      -0.1245
     93  CA       -11.5320  -25.8730   -0.4720 C.3    83  LEU83       0.1561
     94  C        -10.2260  -26.6450   -0.6190 C.2    83  LEU83       0.2260
     95  O         -9.9520  -27.5640    0.1630 O.2    83  LEU83      -0.2867
     96  CB       -12.5590  -26.3580   -1.4940 C.3    83  LEU83       0.0270
     97  CG       -12.7220  -27.8700   -1.6530 C.3    83  LEU83       0.0019
     98  CD1      -13.2950  -28.4950   -0.3890 C.3    83  LEU83       0.0001
     99  CD2      -13.5950  -28.1780   -2.8540 C.3    83  LEU83       0.0001
    100  N         -7.8320  -26.1610    2.6860 N.3    86  ARG86      -0.1245
    101  CA        -8.1420  -26.9750    3.8540 C.3    86  ARG86       0.1563
    102  C         -8.2220  -28.4630    3.5380 C.2    86  ARG86       0.2260
    103  O         -8.3850  -29.2660    4.4620 O.2    86  ARG86      -0.2867
    104  CB        -9.4480  -26.5020    4.4990 C.3    86  ARG86       0.0307
    105  CG       -10.6590  -26.5150    3.5840 C.3    86  ARG86       0.0489
    106  CD       -11.8700  -25.9230    4.2930 C.3    86  ARG86       0.2205
    107  NE       -13.1010  -26.0870    3.5240 N.pl3  86  ARG86      -0.0865
    108  CZ       -13.5880  -25.1770    2.6870 C.cat  86  ARG86       0.5346
    109  NH1      -12.9500  -24.0270    2.5070 N.pl3  86  ARG86       0.1354
    110  NH2      -14.7150  -25.4150    2.0320 N.pl3  86  ARG86       0.1354
    111  N        -14.7300  -30.2980    2.4510 N.3    96  PHE96      -0.1241
    112  CA       -15.7020  -29.2270    2.2460 C.3    96  PHE96       0.1605
    113  C        -16.0550  -28.5550    3.5660 C.2    96  PHE96       0.2264
    114  O        -16.1100  -27.3230    3.6560 O.2    96  PHE96      -0.2867
    115  CB       -16.9560  -29.7790    1.5660 C.3    96  PHE96       0.0534
    116  CG       -16.7660  -30.0960    0.1100 C.ar   96  PHE96      -0.0203
    117  CD1      -16.9730  -29.1240   -0.8540 C.ar   96  PHE96      -0.0042
    118  CD2      -16.3830  -31.3650   -0.2950 C.ar   96  PHE96      -0.0042
    119  CE1      -16.8020  -29.4080   -2.1960 C.ar   96  PHE96      -0.0003
    120  CE2      -16.2080  -31.6560   -1.6370 C.ar   96  PHE96      -0.0003
    121  CZ       -16.4170  -30.6750   -2.5890 C.ar   96  PHE96      -0.0000
    122  N        -22.9880  -37.7130   -8.2530 N.3   110  VAL110     -0.1245
    123  CA       -23.6240  -36.7650   -9.1590 C.3   110  VAL110      0.1561
    124  C        -22.8380  -36.7480  -10.4620 C.2   110  VAL110      0.2260
    125  O        -21.6020  -36.7830  -10.4530 O.2   110  VAL110     -0.2867
    126  CB       -23.7030  -35.3510   -8.5480 C.3   110  VAL110      0.0252
    127  CG1      -24.7380  -34.5710   -9.3620 C.3   110  VAL110      0.0019
    128  CG2      -24.1790  -35.4910   -7.1020 C.3   110  VAL110      0.0019
    129  N        -19.4890  -34.4920  -12.2690 N.3   113  MET113     -0.1245
    130  CA       -18.7300  -34.0120  -11.1220 C.3   113  MET113      0.1570
    131  C        -17.4250  -34.7710  -10.9130 C.2   113  MET113      0.2261
    132  O        -16.5610  -34.2900  -10.1760 O.2   113  MET113     -0.2867
    133  CB       -19.5990  -34.0750   -9.8500 C.3   113  MET113      0.0387
    134  CG       -20.1230  -32.7140   -9.3780 C.3   113  MET113      0.0595
    135  SD       -18.7940  -31.5630   -8.9480 S.3   113  MET113     -0.1393
    136  CE       -18.6670  -31.8110   -7.1770 C.3   113  MET113      0.0692
    137  N        -14.4370  -32.4140  -12.2590 N.3   116  ILE116     -0.1245
    138  CA       -14.1350  -31.2940  -11.3710 C.3   116  ILE116      0.1561
    139  C        -13.5540  -31.7950  -10.0550 C.2   116  ILE116      0.2260
    140  O        -12.6700  -31.1590   -9.4680 O.2   116  ILE116     -0.2867
    141  CB       -15.3960  -30.4370  -11.1460 C.3   116  ILE116      0.0252
    142  CG1      -15.9560  -29.9730  -12.4910 C.3   116  ILE116      0.0019
    143  CG2      -15.1010  -29.2410  -10.2440 C.3   116  ILE116      0.0019
    144  CD1      -17.2160  -29.1490  -12.3820 C.3   116  ILE116      0.0001
    145  N         -9.8910  -30.6380   -8.5110 N.3   120  LEU120     -0.1245
    146  CA        -9.6980  -30.0580   -7.1860 C.3   120  LEU120      0.1561
    147  C         -8.6840  -30.8590   -6.3790 C.2   120  LEU120      0.2260
    148  O         -7.8140  -30.2830   -5.7140 O.2   120  LEU120     -0.2867
    149  CB       -11.0340  -29.9830   -6.4480 C.3   120  LEU120      0.0270
    150  CG       -12.0800  -29.0300   -7.0280 C.3   120  LEU120      0.0019
    151  CD1      -13.4570  -29.3350   -6.4610 C.3   120  LEU120      0.0001
    152  CD2      -11.6950  -27.5840   -6.7500 C.3   120  LEU120      0.0001
    153  N        -17.0810  -25.6060  -13.0610 N.3   202  GLY202     -0.1225
    154  CA       -18.0480  -25.6490  -11.9790 C.3   202  GLY202      0.1811
    155  C        -19.2450  -24.7500  -12.2090 C.2   202  GLY202      0.2280
    156  O        -20.3520  -25.0610  -11.7610 O.2   202  GLY202     -0.2866
    157  N        -21.6160  -26.5110  -14.4210 N.3   205  HIS205     -0.1226
    158  CA       -22.2840  -27.5920  -13.7000 C.3   205  HIS205      0.1752
    159  C        -23.3990  -27.0650  -12.8090 C.2   205  HIS205      0.2595
    160  O        -24.4710  -27.6750  -12.7220 O.2   205  HIS205     -0.2718
    161  CB       -21.2610  -28.3830  -12.8810 C.3   205  HIS205      0.0759
    162  CG       -21.8570  -29.5030  -12.0840 C.ar  205  HIS205      0.0818
    163  ND1      -22.1390  -29.4020  -10.7380 N.ar  205  HIS205     -0.2268
    164  CD2      -22.2350  -30.7490  -12.4520 C.ar  205  HIS205      0.1154
    165  CE1      -22.6600  -30.5400  -10.3110 C.ar  205  HIS205      0.1986
    166  NE2      -22.7230  -31.3770  -11.3310 N.ar  205  HIS205     -0.2212
    167  N        -23.1610  -25.9430  -12.1330 N.am  206  LEU206     -0.1980
    168  CA       -24.2040  -25.3500  -11.3070 C.3   206  LEU206      0.1596
    169  C        -25.3870  -24.9010  -12.1520 C.2   206  LEU206      0.2287
    170  O        -26.5390  -24.9580  -11.7040 O.2   206  LEU206     -0.2864
    171  CB       -23.6260  -24.1800  -10.5140 C.3   206  LEU206      0.0297
    172  CG       -24.4430  -23.6550   -9.3390 C.3   206  LEU206      0.0022
    173  CD1      -24.8840  -24.8070   -8.4570 C.3   206  LEU206      0.0001
    174  CD2      -23.6440  -22.6360   -8.5280 C.3   206  LEU206      0.0001
@<TRIPOS>BOND
     1   157   158    1
     2   158   161    1
     3   158   159    1
     4   153   154    1
     5   161   162    1
     6   159   160    2
     7   159   167   am
     8   142   144    1
     9   142   141    1
    10   164   162   ar
    11   164   166   ar
    12   129   130    1
    13   137   138    1
    14   155   154    1
    15   155   156    2
    16   169   170    2
    17   169   168    1
    18   167   168    1
    19   162   163   ar
    20   138   141    1
    21   138   139    1
    22   166   165   ar
    23   168   171    1
    24   141   143    1
    25   130   131    1
    26   130   133    1
    27   131   132    2
    28   163   165   ar
    29   171   172    1
    30   124   125    2
    31   124   123    1
    32   139   140    2
    33   133   134    1
    34    75    73    1
    35   134   135    1
    36   127   126    1
    37   172   174    1
    38   172   173    1
    39   123   126    1
    40   123   122    1
    41   135   136    1
    42    91    90    1
    43    62    60   ar
    44    62    63   ar
    45    90    89    1
    46   126   128    1
    47    73    72    1
    48    73    74    1
    49   145   146    1
    50    72    69    1
    51    65    63   ar
    52    65    67   ar
    53    60    59   ar
    54    63    61   ar
    55    67    66   ar
    56    54    55    1
    57    69    68    1
    58    69    70    1
    59   146   149    1
    60   146   147    1
    61    68    56   am
    62    70    71    2
    63    16    15    1
    64   150   152    1
    65   150   151    1
    66   150   149    1
    67    15    14    1
    68    59    61   ar
    69    59    58    1
    70    89    88    1
    71    61    64   ar
    72    14    13    1
    73   147   148    2
    74    88    85    1
    75    66    64   ar
    76    56    55    1
    77    56    57    2
    78    55    58    1
    79    13    10    1
    80    85    84    1
    81    85    86    1
    82    31    29    1
    83     8     7    1
    84    84    78   am
    85    86    87    2
    86    10     9    1
    87    10    11    1
    88    76    77    1
    89     9     3   am
    90    80    77    1
    91    80    81    1
    92    29    30    1
    93    29    26    1
    94    23    22    1
    95    11    12    2
    96    82    81    1
    97    78    77    1
    98    78    79    2
    99    99    97    1
   100     7     6    1
   101    81    83    1
   102   121   119   ar
   103   121   120   ar
   104     5     6    1
   105     5     2    1
   106     3     4    2
   107     3     2    1
   108   119   117   ar
   109    26    25    1
   110    26    27    1
   111    21    22    1
   112    21    18    1
   113    44    41    1
   114    25    19   am
   115    22    24    1
   116     2     1    1
   117    97    96    1
   118    97    98    1
   119   120   118   ar
   120    96    93    1
   121    19    20    2
   122    19    18    1
   123    27    28    2
   124    18    17    1
   125   117   116   ar
   126    92    93    1
   127    94    93    1
   128    94    95    2
   129    41    42    1
   130    41    40    1
   131   118   116   ar
   132    43    42    2
   133   116   115    1
   134    40    34   am
   135   115   112    1
   136    52    51   ar
   137    34    35    2
   138    34    33    1
   139    32    33    1
   140   110   108    1
   141    47    48    2
   142    47    46    1
   143    49    46    1
   144    49    50    1
   145   112   111    1
   146   112   113    1
   147    51    53   ar
   148    51    50    1
   149    36    33    1
   150    36    37    1
   151   109   108    1
   152   100   101    1
   153   108   107    2
   154    39    37    1
   155    37    38    1
   156    46    45    1
   157   107   106    1
   158   102   101    1
   159   102   103    2
   160   113   114    2
   161   105   106    1
   162   105   104    1
   163   101   104    1
