@<TRIPOS>MOLECULE
tmp/5tluB01.pdb
 197 185 0 0 0
SMALL
GASTEIGER

@<TRIPOS>ATOM
      1  N        -18.5260  -15.2350  -41.8630 N.3    38  MET38      -0.1230
      2  CA       -17.4540  -14.7670  -40.9900 C.3    38  MET38       0.1702
      3  C        -16.9610  -15.8900  -40.0880 C.2    38  MET38       0.2592
      4  O        -15.7530  -16.0330  -39.8640 O.2    38  MET38      -0.2718
      5  CB       -17.9320  -13.5760  -40.1590 C.3    38  MET38       0.0401
      6  CG       -18.5580  -12.3930  -40.8840 C.3    38  MET38       0.0596
      7  SD       -17.4110  -11.1650  -41.5300 S.3    38  MET38      -0.1393
      8  CE       -16.2360  -10.9350  -40.1730 C.3    38  MET38       0.0692
      9  N        -17.8850  -16.6980  -39.5630 N.am   39  MET39      -0.1979
     10  CA       -17.4920  -17.8920  -38.8220 C.3    39  MET39       0.1605
     11  C        -16.6720  -18.8320  -39.6950 C.2    39  MET39       0.2287
     12  O        -15.6560  -19.3780  -39.2490 O.2    39  MET39      -0.2864
     13  CB       -18.7310  -18.6110  -38.2900 C.3    39  MET39       0.0413
     14  CG       -19.3090  -18.0460  -37.0060 C.3    39  MET39       0.0598
     15  SD       -18.3240  -18.4640  -35.5540 S.3    39  MET39      -0.1393
     16  CE       -18.0240  -20.2050  -35.8040 C.3    39  MET39       0.0692
     17  N        -13.1600  -17.5340  -40.0220 N.3    42  LEU42      -0.1231
     18  CA       -12.3510  -17.6230  -38.8110 C.3    42  LEU42       0.1693
     19  C        -12.0170  -19.0680  -38.4650 C.2    42  LEU42       0.2592
     20  O        -10.9210  -19.3520  -37.9680 O.2    42  LEU42      -0.2718
     21  CB       -13.0720  -16.9450  -37.6500 C.3    42  LEU42       0.0284
     22  CG       -13.2630  -15.4410  -37.8200 C.3    42  LEU42       0.0019
     23  CD1      -13.8900  -14.8920  -36.5880 C.3    42  LEU42       0.0001
     24  CD2      -11.9420  -14.7530  -38.0610 C.3    42  LEU42       0.0001
     25  N        -12.9470  -19.9920  -38.7090 N.am   43  THR43      -0.1953
     26  CA       -12.6780  -21.3990  -38.4360 C.3    43  THR43       0.1897
     27  C        -11.7860  -22.0250  -39.5020 C.2    43  THR43       0.2313
     28  O        -11.0130  -22.9400  -39.1970 O.2    43  THR43      -0.2863
     29  CB       -13.9920  -22.1740  -38.3140 C.3    43  THR43       0.1794
     30  OG1      -14.7970  -21.9430  -39.4770 O.3    43  THR43      -0.2208
     31  CG2      -14.7560  -21.7250  -37.0750 C.3    43  THR43       0.0378
     32  N         -9.3750  -20.2720  -40.9070 N.3    45  LEU45      -0.1231
     33  CA        -8.0700  -19.7660  -40.4970 C.3    45  LEU45       0.1693
     34  C         -7.5230  -20.5580  -39.3180 C.2    45  LEU45       0.2591
     35  O         -6.3540  -20.9640  -39.3150 O.2    45  LEU45      -0.2718
     36  CB        -8.1730  -18.2820  -40.1460 C.3    45  LEU45       0.0284
     37  CG        -6.8780  -17.6210  -39.6720 C.3    45  LEU45       0.0019
     38  CD1       -5.8210  -17.6910  -40.7600 C.3    45  LEU45       0.0001
     39  CD2       -7.1270  -16.1800  -39.2520 C.3    45  LEU45       0.0001
     40  N         -8.3590  -20.7900  -38.3030 N.am   46  ALA46      -0.1980
     41  CA        -7.9080  -21.5310  -37.1300 C.3    46  ALA46       0.1597
     42  C         -7.4810  -22.9450  -37.5030 C.2    46  ALA46       0.2287
     43  O         -6.5120  -23.4750  -36.9470 O.2    46  ALA46      -0.2864
     44  CB        -9.0100  -21.5610  -36.0710 C.3    46  ALA46       0.0319
     45  N         -4.0550  -22.7100  -39.0440 N.3    49  GLU49      -0.1245
     46  CA        -3.0680  -22.3830  -38.0200 C.3    49  GLU49       0.1567
     47  C         -2.7400  -23.5880  -37.1470 C.2    49  GLU49       0.2260
     48  O         -1.6150  -23.6990  -36.6460 O.2    49  GLU49      -0.2867
     49  CB        -3.5660  -21.2300  -37.1500 C.3    49  GLU49       0.0388
     50  CG        -3.4800  -19.8580  -37.7940 C.3    49  GLU49       0.1160
     51  CD        -3.9140  -18.7560  -36.8460 C.2    49  GLU49       0.3649
     52  OE1       -5.1350  -18.5380  -36.7030 O.co2  49  GLU49      -0.2457
     53  OE2       -3.0340  -18.1190  -36.2280 O.co2  49  GLU49      -0.2457
     54  N         -4.9010  -25.3540  -27.3240 N.3    79  TRP79      -0.1227
     55  CA        -4.8170  -24.8420  -28.6920 C.3    79  TRP79       0.1737
     56  C         -5.5190  -23.4950  -28.8450 C.2    79  TRP79       0.2595
     57  O         -4.9910  -22.5850  -29.4950 O.2    79  TRP79      -0.2718
     58  CB        -5.3900  -25.8620  -29.6780 C.3    79  TRP79       0.0564
     59  CG        -6.8680  -26.1100  -29.5520 C.ar   79  TRP79       0.0003
     60  CD1       -7.4800  -27.0190  -28.7380 C.ar   79  TRP79       0.0946
     61  CD2       -7.9160  -25.4530  -30.2790 C.ar   79  TRP79       0.0152
     62  NE1       -8.8440  -26.9630  -28.9060 N.ar   79  TRP79      -0.2442
     63  CE2       -9.1370  -26.0100  -29.8460 C.ar   79  TRP79       0.0810
     64  CE3       -7.9400  -24.4460  -31.2490 C.ar   79  TRP79       0.0012
     65  CZ2      -10.3680  -25.5940  -30.3520 C.ar   79  TRP79       0.0191
     66  CZ3       -9.1650  -24.0340  -31.7490 C.ar   79  TRP79       0.0001
     67  CH2      -10.3610  -24.6070  -31.3000 C.ar   79  TRP79       0.0015
     68  N         -6.7070  -23.3430  -28.2550 N.am   80  LEU80      -0.1980
     69  CA        -7.4210  -22.0770  -28.3910 C.3    80  LEU80       0.1596
     70  C         -6.7520  -20.9690  -27.5870 C.2    80  LEU80       0.2287
     71  O         -6.7630  -19.8080  -28.0120 O.2    80  LEU80      -0.2864
     72  CB        -8.8820  -22.2440  -27.9700 C.3    80  LEU80       0.0297
     73  CG        -9.8050  -21.0550  -28.2490 C.3    80  LEU80       0.0022
     74  CD1       -9.6770  -20.5970  -29.6950 C.3    80  LEU80       0.0001
     75  CD2      -11.2520  -21.4080  -27.9280 C.3    80  LEU80       0.0001
     76  N         -3.8810  -19.8630  -29.8620 N.3    83  LEU83      -0.1231
     77  CA        -4.4320  -19.0410  -30.9340 C.3    83  LEU83       0.1693
     78  C         -4.8030  -17.6550  -30.4230 C.2    83  LEU83       0.2591
     79  O         -4.5800  -16.6500  -31.1080 O.2    83  LEU83      -0.2718
     80  CB        -5.6590  -19.7150  -31.5500 C.3    83  LEU83       0.0284
     81  CG        -5.4920  -20.9510  -32.4310 C.3    83  LEU83       0.0019
     82  CD1       -6.8520  -21.3950  -32.9510 C.3    83  LEU83       0.0001
     83  CD2       -4.5410  -20.6760  -33.5820 C.3    83  LEU83       0.0001
     84  N         -5.3590  -17.5820  -29.2120 N.am   84  MET84      -0.1979
     85  CA        -5.8430  -16.3080  -28.6910 C.3    84  MET84       0.1605
     86  C         -4.6900  -15.3780  -28.3310 C.2    84  MET84       0.2287
     87  O         -4.7110  -14.1920  -28.6770 O.2    84  MET84      -0.2864
     88  CB        -6.7530  -16.5440  -27.4850 C.3    84  MET84       0.0413
     89  CG        -8.1700  -16.9510  -27.8640 C.3    84  MET84       0.0598
     90  SD        -9.2560  -17.1470  -26.4390 S.3    84  MET84      -0.1393
     91  CE       -10.8280  -17.4230  -27.2510 C.3    84  MET84       0.0692
     92  N         -3.4050  -14.0180  -31.3710 N.3    87  LEU87      -0.1245
     93  CA        -4.2870  -12.9950  -31.9220 C.3    87  LEU87       0.1561
     94  C         -4.0530  -11.6450  -31.2540 C.2    87  LEU87       0.2260
     95  O         -3.8590  -10.6290  -31.9320 O.2    87  LEU87      -0.2867
     96  CB        -5.7460  -13.4260  -31.7680 C.3    87  LEU87       0.0270
     97  CG        -6.7880  -12.3300  -31.9930 C.3    87  LEU87       0.0019
     98  CD1       -6.7140  -11.8050  -33.4170 C.3    87  LEU87       0.0001
     99  CD2       -8.1840  -12.8440  -31.6770 C.3    87  LEU87       0.0001
    100  N         -0.5020   -9.9430  -32.2200 N.3    90  ARG90      -0.1245
    101  CA        -0.4070   -9.2370  -33.4900 C.3    90  ARG90       0.1563
    102  C         -1.4260   -8.1130  -33.6170 C.2    90  ARG90       0.2260
    103  O         -1.3350   -7.3240  -34.5630 O.2    90  ARG90      -0.2867
    104  CB        -0.5520  -10.2190  -34.6560 C.3    90  ARG90       0.0307
    105  CG        -1.8420  -11.0160  -34.6810 C.3    90  ARG90       0.0489
    106  CD        -1.8170  -12.0170  -35.8310 C.3    90  ARG90       0.2205
    107  NE        -3.0590  -12.7770  -35.9500 N.pl3  90  ARG90      -0.0865
    108  CZ        -3.2530  -13.9830  -35.4250 C.cat  90  ARG90       0.5346
    109  NH1       -2.2820  -14.5750  -34.7410 N.pl3  90  ARG90       0.1354
    110  NH2       -4.4170  -14.5980  -35.5880 N.pl3  90  ARG90       0.1354
    111  N         -7.1350  -10.7190  -37.0190 N.3   100  PHE100     -0.1241
    112  CA        -7.1700  -12.1660  -37.2030 C.3   100  PHE100      0.1605
    113  C         -6.2030  -12.5950  -38.2980 C.2   100  PHE100      0.2264
    114  O         -5.5010  -13.6040  -38.1590 O.2   100  PHE100     -0.2867
    115  CB        -8.5940  -12.6230  -37.5230 C.3   100  PHE100      0.0534
    116  CG        -9.5110  -12.6180  -36.3340 C.ar  100  PHE100     -0.0203
    117  CD1       -9.6000  -13.7270  -35.5090 C.ar  100  PHE100     -0.0042
    118  CD2      -10.2810  -11.5060  -36.0380 C.ar  100  PHE100     -0.0042
    119  CE1      -10.4410  -13.7280  -34.4100 C.ar  100  PHE100     -0.0003
    120  CE2      -11.1250  -11.5000  -34.9400 C.ar  100  PHE100     -0.0003
    121  CZ       -11.2030  -12.6130  -34.1250 C.ar  100  PHE100     -0.0000
    122  N        -10.9750   -6.8050  -37.7340 N.3   106  LEU106     -0.1245
    123  CA       -12.3380   -6.5990  -37.2650 C.3   106  LEU106      0.1561
    124  C        -12.3530   -5.6750  -36.0560 C.2   106  LEU106      0.2260
    125  O        -11.4930   -5.7750  -35.1760 O.2   106  LEU106     -0.2867
    126  CB       -12.9970   -7.9290  -36.8900 C.3   106  LEU106      0.0270
    127  CG       -12.9430   -9.0710  -37.9040 C.3   106  LEU106      0.0019
    128  CD1      -13.5150  -10.3410  -37.2950 C.3   106  LEU106      0.0001
    129  CD2      -13.6920   -8.7010  -39.1700 C.3   106  LEU106      0.0001
    130  N        -18.1180   -7.8420  -34.6790 N.3   111  GLY111     -0.1225
    131  CA       -18.1790   -9.0200  -33.8370 C.3   111  GLY111      0.1811
    132  C        -19.6010   -9.3580  -33.4460 C.2   111  GLY111      0.2280
    133  O        -19.9670  -10.5330  -33.3530 O.2   111  GLY111     -0.2866
    134  N        -22.0900  -11.9410  -35.1470 N.3   114  VAL114     -0.1245
    135  CA       -22.2500  -13.3110  -34.6780 C.3   114  VAL114      0.1561
    136  C        -22.6020  -13.2650  -33.1970 C.2   114  VAL114      0.2260
    137  O        -21.9930  -12.5120  -32.4290 O.2   114  VAL114     -0.2867
    138  CB       -20.9730  -14.1350  -34.9300 C.3   114  VAL114      0.0252
    139  CG1      -21.2960  -15.6190  -34.9760 C.3   114  VAL114      0.0019
    140  CG2      -20.3090  -13.6830  -36.2230 C.3   114  VAL114      0.0019
    141  N        -20.7080  -13.2400  -29.3510 N.3   117  MET117     -0.1245
    142  CA       -19.3160  -12.8960  -29.6290 C.3   117  MET117      0.1570
    143  C        -18.8510  -11.6730  -28.8560 C.2   117  MET117      0.2261
    144  O        -17.6850  -11.6050  -28.4640 O.2   117  MET117     -0.2867
    145  CB       -19.1010  -12.6870  -31.1310 C.3   117  MET117      0.0387
    146  CG       -18.5120  -13.8830  -31.8610 C.3   117  MET117      0.0595
    147  SD       -17.2970  -14.7950  -30.8710 S.3   117  MET117     -0.1393
    148  CE       -16.0160  -13.5530  -30.6810 C.3   117  MET117      0.0692
    149  N        -16.5740  -12.1900  -25.7320 N.3   120  ILE120     -0.1231
    150  CA       -15.2590  -12.7260  -26.0950 C.3   120  ILE120      0.1692
    151  C        -14.4420  -11.6820  -26.8540 C.2   120  ILE120      0.2592
    152  O        -13.2300  -11.5350  -26.6400 O.2   120  ILE120     -0.2718
    153  CB       -15.4260  -14.0210  -26.9160 C.3   120  ILE120      0.0266
    154  CG1      -16.0060  -15.1320  -26.0380 C.3   120  ILE120      0.0019
    155  CG2      -14.1190  -14.4460  -27.5310 C.3   120  ILE120      0.0020
    156  CD1      -16.6960  -16.2420  -26.8140 C.3   120  ILE120      0.0001
    157  N        -15.0930  -10.9520  -27.7610 N.am  121  PHE121     -0.1976
    158  CA       -14.4160   -9.8980  -28.5110 C.3   121  PHE121      0.1639
    159  C        -13.8410   -8.8400  -27.5760 C.2   121  PHE121      0.2290
    160  O        -12.6810   -8.4340  -27.7170 O.2   121  PHE121     -0.2864
    161  CB       -15.3960   -9.2630  -29.4980 C.3   121  PHE121      0.0560
    162  CG       -14.8680   -9.1470  -30.8950 C.ar  121  PHE121     -0.0200
    163  CD1      -14.2850   -7.9690  -31.3350 C.ar  121  PHE121     -0.0042
    164  CD2      -14.9650  -10.2110  -31.7750 C.ar  121  PHE121     -0.0042
    165  CE1      -13.8050   -7.8580  -32.6260 C.ar  121  PHE121     -0.0003
    166  CE2      -14.4860  -10.1070  -33.0660 C.ar  121  PHE121     -0.0003
    167  CZ       -13.9050   -8.9290  -33.4920 C.ar  121  PHE121     -0.0000
    168  N        -10.7970  -10.0630  -25.6150 N.3   124  LEU124     -0.1245
    169  CA        -9.6120  -10.1130  -26.4640 C.3   124  LEU124      0.1561
    170  C         -9.0300   -8.7200  -26.6750 C.2   124  LEU124      0.2260
    171  O         -7.8060   -8.5460  -26.6780 O.2   124  LEU124     -0.2867
    172  CB        -9.9530  -10.7640  -27.8050 C.3   124  LEU124      0.0270
    173  CG       -10.2310  -12.2690  -27.8090 C.3   124  LEU124      0.0019
    174  CD1      -10.9280  -12.6770  -29.0980 C.3   124  LEU124      0.0001
    175  CD2       -8.9400  -13.0510  -27.6310 C.3   124  LEU124      0.0001
    176  N        -14.6500  -19.1720  -25.2990 N.3   210  GLY210     -0.1225
    177  CA       -14.5810  -19.3690  -26.7370 C.3   210  GLY210      0.1811
    178  C        -14.8520  -20.7990  -27.1580 C.2   210  GLY210      0.2280
    179  O        -15.3370  -21.0420  -28.2670 O.2   210  GLY210     -0.2866
    180  N        -18.6400  -21.2620  -27.1660 N.3   213  HIS213     -0.1226
    181  CA       -19.2350  -20.6470  -28.3480 C.3   213  HIS213      0.1752
    182  C        -19.0190  -21.5090  -29.5800 C.2   213  HIS213      0.2595
    183  O        -19.9310  -21.6750  -30.3990 O.2   213  HIS213     -0.2718
    184  CB       -18.6570  -19.2470  -28.5680 C.3   213  HIS213      0.0759
    185  CG       -19.2000  -18.5460  -29.7780 C.ar  213  HIS213      0.0818
    186  ND1      -18.7560  -18.8010  -31.0580 N.ar  213  HIS213     -0.2268
    187  CD2      -20.1640  -17.6030  -29.9000 C.ar  213  HIS213      0.1154
    188  CE1      -19.4160  -18.0390  -31.9140 C.ar  213  HIS213      0.1986
    189  NE2      -20.2770  -17.3030  -31.2360 N.ar  213  HIS213     -0.2212
    190  N        -17.8100  -22.0500  -29.7340 N.am  214  LEU214     -0.1980
    191  CA       -17.5180  -22.8970  -30.8830 C.3   214  LEU214      0.1596
    192  C        -18.3990  -24.1420  -30.8990 C.2   214  LEU214      0.2287
    193  O        -18.9170  -24.5320  -31.9540 O.2   214  LEU214     -0.2864
    194  CB       -16.0370  -23.2770  -30.8760 C.3   214  LEU214      0.0297
    195  CG       -15.5600  -24.1910  -32.0010 C.3   214  LEU214      0.0022
    196  CD1      -15.9090  -23.5830  -33.3490 C.3   214  LEU214      0.0001
    197  CD2      -14.0610  -24.4790  -31.9060 C.3   214  LEU214      0.0001
@<TRIPOS>BOND
     1     1     2    1
     2     7     6    1
     3     7     8    1
     4     2     5    1
     5     2     3    1
     6    32    33    1
     7     6     5    1
     8    38    37    1
     9    33    36    1
    10    33    34    1
    11    36    37    1
    12     3     4    2
    13     3     9   am
    14    17    18    1
    15    11    12    2
    16    11    10    1
    17    37    39    1
    18     9    10    1
    19    27    28    2
    20    27    26    1
    21    30    29    1
    22    34    35    2
    23    34    40   am
    24   129   127    1
    25    45    46    1
    26    10    13    1
    27    18    19    1
    28    18    21    1
    29    25    19   am
    30    25    26    1
    31    19    20    2
    32    26    29    1
    33    29    31    1
    34    40    41    1
    35   113   114    2
    36   113   112    1
    37    13    14    1
    38    24    22    1
    39    46    49    1
    40    46    47    1
    41   127   128    1
    42   127   126    1
    43    22    21    1
    44    22    23    1
    45    50    49    1
    46    50    51    1
    47   122   123    1
    48   115   112    1
    49   115   116    1
    50    42    41    1
    51    42    43    2
    52   123   126    1
    53   123   124    1
    54   112   111    1
    55    47    48    2
    56    41    44    1
    57    14    15    1
    58    51    52   ar
    59    51    53   ar
    60   116   118   ar
    61   116   117   ar
    62   140   138    1
    63   124   125    2
    64   118   120   ar
    65   107   106    1
    66   107   108    2
    67   106   105    1
    68    16    15    1
    69   110   108    1
    70   117   119   ar
    71   108   109    1
    72   134   135    1
    73   139   138    1
    74   120   121   ar
    75   138   135    1
    76   105   104    1
    77   130   131    1
    78   135   136    1
    79   104   101    1
    80   103   102    2
    81   119   121   ar
    82   131   132    1
    83   102   101    1
    84    83    81    1
    85   167   166   ar
    86   167   165   ar
    87   101   100    1
    88   132   133    2
    89    98    97    1
    90   196   195    1
    91   136   137    2
    92   166   164   ar
    93    82    81    1
    94   165   163   ar
    95    81    80    1
    96   195   197    1
    97   195   194    1
    98    97    96    1
    99    97    99    1
   100   193   192    2
   101    95    94    2
   102    93    96    1
   103    93    92    1
   104    93    94    1
   105   188   189   ar
   106   188   186   ar
   107   146   145    1
   108   146   147    1
   109   164   162   ar
   110    66    67   ar
   111    66    64   ar
   112    80    77    1
   113   163   162   ar
   114    67    65   ar
   115    64    61   ar
   116   189   187   ar
   117   145   142    1
   118    79    78    2
   119   186   185   ar
   120    77    78    1
   121    77    76    1
   122   192   191    1
   123   162   161    1
   124   191   194    1
   125   191   190    1
   126   147   148    1
   127    78    84   am
   128   183   182    2
   129    65    63   ar
   130    61    63   ar
   131    61    59   ar
   132   187   185   ar
   133    63    62   ar
   134   185   184    1
   135   190   182   am
   136    74    73    1
   137    58    59    1
   138    58    55    1
   139   142   141    1
   140   142   143    1
   141   182   181    1
   142    59    60   ar
   143   161   158    1
   144    57    56    2
   145    84    85    1
   146   174   173    1
   147    62    60   ar
   148   143   144    2
   149    56    55    1
   150    56    68   am
   151    55    54    1
   152    85    86    1
   153    85    88    1
   154    87    86    2
   155   184   181    1
   156   158   157    1
   157   158   159    1
   158    69    68    1
   159    69    72    1
   160    69    70    1
   161   181   180    1
   162   179   178    2
   163    73    72    1
   164    73    75    1
   165    71    70    2
   166    89    88    1
   167    89    90    1
   168   173   172    1
   169   173   175    1
   170   172   169    1
   171   157   151   am
   172   160   159    2
   173   155   153    1
   174    91    90    1
   175   178   177    1
   176   153   150    1
   177   153   154    1
   178   151   152    2
   179   151   150    1
   180   156   154    1
   181   177   176    1
   182   171   170    2
   183   170   169    1
   184   169   168    1
   185   150   149    1
