@<TRIPOS>MOLECULE
tmp/5tlvA00.pdb
 186 175 0 0 0
SMALL
GASTEIGER

@<TRIPOS>ATOM
      1  N         25.8010   -8.8530    3.2020 N.3    40  MET40      -0.1245
      2  CA        25.8320   -7.5030    3.7520 C.3    40  MET40       0.1570
      3  C         26.5330   -6.5330    2.8120 C.2    40  MET40       0.2261
      4  O         26.1970   -5.3440    2.7840 O.2    40  MET40      -0.2867
      5  CB        26.5070   -7.5040    5.1210 C.3    40  MET40       0.0387
      6  CG        25.7310   -8.2530    6.1860 C.3    40  MET40       0.0595
      7  SD        24.0050   -7.7310    6.2910 S.3    40  MET40      -0.1393
      8  CE        24.1800   -5.9900    6.6700 C.3    40  MET40       0.0692
      9  N         23.8540   -5.5370    0.1530 N.3    43  LEU43      -0.1231
     10  CA        22.8490   -4.6400    0.7130 C.3    43  LEU43       0.1693
     11  C         23.4420   -3.2750    1.0360 C.2    43  LEU43       0.2592
     12  O         22.7990   -2.2440    0.8100 O.2    43  LEU43      -0.2718
     13  CB        22.2240   -5.2670    1.9580 C.3    43  LEU43       0.0284
     14  CG        21.0100   -6.1770    1.7390 C.3    43  LEU43       0.0019
     15  CD1       21.3300   -7.2960    0.7830 C.3    43  LEU43       0.0001
     16  CD2       20.4800   -6.7420    3.0650 C.3    43  LEU43       0.0001
     17  N         24.6690   -3.2480    1.5610 N.am   44  THR44      -0.1953
     18  CA        25.3260   -1.9780    1.8560 C.3    44  THR44       0.1897
     19  C         25.6090   -1.1950    0.5820 C.2    44  THR44       0.2313
     20  O         25.3910    0.0220    0.5290 O.2    44  THR44      -0.2863
     21  CB        26.6210   -2.2290    2.6260 C.3    44  THR44       0.1794
     22  OG1       26.3070   -2.6900    3.9460 O.3    44  THR44      -0.2208
     23  CG2       27.4490   -0.9640    2.7160 C.3    44  THR44       0.0378
     24  N         23.9810   -1.4940   -2.2980 N.3    46  LEU46      -0.1231
     25  CA        22.6780   -1.0510   -2.7860 C.3    46  LEU46       0.1693
     26  C         22.1570    0.1330   -1.9800 C.2    46  LEU46       0.2591
     27  O         21.7050    1.1340   -2.5480 O.2    46  LEU46      -0.2718
     28  CB        21.6850   -2.2100   -2.7340 C.3    46  LEU46       0.0284
     29  CG        20.2430   -1.8880   -3.1180 C.3    46  LEU46       0.0019
     30  CD1       20.1430   -1.5690   -4.5950 C.3    46  LEU46       0.0001
     31  CD2       19.3250   -3.0480   -2.7450 C.3    46  LEU46       0.0001
     32  N         22.2210    0.0390   -0.6500 N.am   47  ALA47      -0.1980
     33  CA        21.6470    1.0850    0.1890 C.3    47  ALA47       0.1597
     34  C         22.3590    2.4160   -0.0120 C.2    47  ALA47       0.2287
     35  O         21.7180    3.4730   -0.0240 O.2    47  ALA47      -0.2864
     36  CB        21.7000    0.6630    1.6550 C.3    47  ALA47       0.0319
     37  N         21.0720    3.9460   -3.2240 N.3    50  GLU50      -0.1245
     38  CA        19.7170    4.4500   -3.0190 C.3    50  GLU50       0.1567
     39  C         19.7060    5.7440   -2.2200 C.2    50  GLU50       0.2260
     40  O         18.8390    6.5980   -2.4410 O.2    50  GLU50      -0.2867
     41  CB        18.8660    3.4060   -2.3040 C.3    50  GLU50       0.0388
     42  CG        18.2280    2.3840   -3.2090 C.3    50  GLU50       0.1160
     43  CD        17.4070    1.3930   -2.4250 C.2    50  GLU50       0.3649
     44  OE1       18.0090    0.5990   -1.6740 O.co2  50  GLU50      -0.2457
     45  OE2       16.1640    1.4200   -2.5300 O.co2  50  GLU50      -0.2457
     46  N         16.2720    8.1460    7.2410 N.3    80  TRP80      -0.1227
     47  CA        16.7730    7.5480    6.0040 C.3    80  TRP80       0.1737
     48  C         16.5350    6.0430    5.9600 C.2    80  TRP80       0.2595
     49  O         16.2250    5.4920    4.8990 O.2    80  TRP80      -0.2718
     50  CB        18.2590    7.8570    5.8190 C.3    80  TRP80       0.0564
     51  CG        19.1350    7.2160    6.8410 C.ar   80  TRP80       0.0003
     52  CD1       19.4860    7.7280    8.0550 C.ar   80  TRP80       0.0946
     53  CD2       19.7750    5.9350    6.7440 C.ar   80  TRP80       0.0152
     54  NE1       20.3040    6.8480    8.7210 N.ar   80  TRP80      -0.2442
     55  CE2       20.5020    5.7410    7.9360 C.ar   80  TRP80       0.0810
     56  CE3       19.8110    4.9400    5.7600 C.ar   80  TRP80       0.0012
     57  CZ2       21.2510    4.5910    8.1760 C.ar   80  TRP80       0.0191
     58  CZ3       20.5550    3.7960    6.0000 C.ar   80  TRP80       0.0001
     59  CH2       21.2640    3.6320    7.1990 C.ar   80  TRP80       0.0015
     60  N         16.6750    5.3530    7.0930 N.am   81  LEU81      -0.1980
     61  CA        16.4820    3.9080    7.0630 C.3    81  LEU81       0.1596
     62  C         15.0000    3.5540    7.0190 C.2    81  LEU81       0.2287
     63  O         14.6060    2.6230    6.3070 O.2    81  LEU81      -0.2864
     64  CB        17.1710    3.2530    8.2620 C.3    81  LEU81       0.0297
     65  CG        17.1560    1.7200    8.2960 C.3    81  LEU81       0.0022
     66  CD1       17.6850    1.1390    6.9870 C.3    81  LEU81       0.0001
     67  CD2       17.9650    1.2060    9.4800 C.3    81  LEU81       0.0001
     68  N         14.1110    3.9170    3.4050 N.3    84  LEU84      -0.1231
     69  CA        14.5750    2.7640    2.6370 C.3    84  LEU84       0.1693
     70  C         13.6750    1.5580    2.8680 C.2    84  LEU84       0.2591
     71  O         13.3220    0.8440    1.9230 O.2    84  LEU84      -0.2718
     72  CB        16.0160    2.4180    3.0080 C.3    84  LEU84       0.0284
     73  CG        17.1610    3.2660    2.4630 C.3    84  LEU84       0.0019
     74  CD1       18.4860    2.6650    2.9070 C.3    84  LEU84       0.0001
     75  CD2       17.0940    3.3670    0.9530 C.3    84  LEU84       0.0001
     76  N         13.2700    1.3400    4.1200 N.am   85  MET85      -0.1979
     77  CA        12.5140    0.1440    4.4730 C.3    85  MET85       0.1605
     78  C         11.1020    0.1730    3.8970 C.2    85  MET85       0.2287
     79  O         10.6170   -0.8440    3.3880 O.2    85  MET85      -0.2864
     80  CB        12.4820   -0.0110    5.9940 C.3    85  MET85       0.0413
     81  CG        13.7520   -0.6340    6.5710 C.3    85  MET85       0.0598
     82  SD        13.7390   -0.7000    8.3730 S.3    85  MET85      -0.1393
     83  CE        15.0250   -1.9040    8.6940 C.3    85  MET85       0.0692
     84  N         11.4080   -0.6960    0.3650 N.3    88  LEU88      -0.1245
     85  CA        11.6260   -2.1310    0.2020 C.3    88  LEU88       0.1561
     86  C         10.3350   -2.9040    0.4240 C.2    88  LEU88       0.2260
     87  O          9.9990   -3.8190   -0.3380 O.2    88  LEU88      -0.2867
     88  CB        12.6990   -2.6090    1.1770 C.3    88  LEU88       0.0270
     89  CG        12.8460   -4.1300    1.2810 C.3    88  LEU88       0.0019
     90  CD1       13.3610   -4.6830   -0.0390 C.3    88  LEU88       0.0001
     91  CD2       13.7590   -4.5290    2.4280 C.3    88  LEU88       0.0001
     92  N          7.8840   -2.3470   -2.7780 N.3    91  ARG91      -0.1245
     93  CA         8.1670   -3.1230   -3.9760 C.3    91  ARG91       0.1563
     94  C          8.2060   -4.6270   -3.7160 C.2    91  ARG91       0.2260
     95  O          8.3070   -5.3910   -4.6800 O.2    91  ARG91      -0.2867
     96  CB         9.4760   -2.6470   -4.6100 C.3    91  ARG91       0.0307
     97  CG        10.6950   -2.7520   -3.7230 C.3    91  ARG91       0.0489
     98  CD        11.9430   -2.2980   -4.4720 C.3    91  ARG91       0.2205
     99  NE        13.1550   -2.5000   -3.6820 N.pl3  91  ARG91      -0.0865
    100  CZ        13.7410   -1.5520   -2.9570 C.cat  91  ARG91       0.5346
    101  NH1       13.2300   -0.3280   -2.9280 N.pl3  91  ARG91       0.1354
    102  NH2       14.8410   -1.8260   -2.2650 N.pl3  91  ARG91       0.1354
    103  N         14.7850   -6.6310   -2.6720 N.3   101  PHE101     -0.1241
    104  CA        15.8100   -5.6030   -2.5180 C.3   101  PHE101      0.1605
    105  C         16.1390   -4.9610   -3.8590 C.2   101  PHE101      0.2264
    106  O         16.3110   -3.7400   -3.9500 O.2   101  PHE101     -0.2867
    107  CB        17.0650   -6.2020   -1.8800 C.3   101  PHE101      0.0534
    108  CG        16.9140   -6.5130   -0.4150 C.ar  101  PHE101     -0.0203
    109  CD1       17.1360   -5.5330    0.5410 C.ar  101  PHE101     -0.0042
    110  CD2       16.5590   -7.7820    0.0080 C.ar  101  PHE101     -0.0042
    111  CE1       17.0060   -5.8110    1.8950 C.ar  101  PHE101     -0.0003
    112  CE2       16.4210   -8.0680    1.3640 C.ar  101  PHE101     -0.0003
    113  CZ        16.6470   -7.0780    2.3070 C.ar  101  PHE101     -0.0000
    114  N         19.5610  -10.9260   11.4760 N.3   118  MET118     -0.1245
    115  CA        18.8970  -10.3910   10.2960 C.3   118  MET118      0.1570
    116  C         17.5240  -11.0110   10.0650 C.2   118  MET118      0.2261
    117  O         16.6450  -10.3490    9.5020 O.2   118  MET118     -0.2867
    118  CB        19.7870  -10.5980    9.0660 C.3   118  MET118      0.0387
    119  CG        19.2280  -10.0400    7.7670 C.3   118  MET118      0.0595
    120  SD        18.9070   -8.2640    7.8050 S.3   118  MET118     -0.1393
    121  CE        20.5660   -7.6010    7.8660 C.3   118  MET118      0.0692
    122  N         14.6750   -8.9500   11.4890 N.3   121  ILE121     -0.1231
    123  CA        14.3290   -7.7790   10.6950 C.3   121  ILE121      0.1692
    124  C         13.5980   -8.1930    9.4250 C.2   121  ILE121      0.2592
    125  O         12.6490   -7.5260    8.9970 O.2   121  ILE121     -0.2718
    126  CB        15.5950   -6.9570   10.3980 C.3   121  ILE121      0.0266
    127  CG1       16.1750   -6.4120   11.7060 C.3   121  ILE121      0.0019
    128  CG2       15.2900   -5.8220    9.4430 C.3   121  ILE121      0.0020
    129  CD1       17.4100   -5.5630   11.5270 C.3   121  ILE121      0.0001
    130  N         14.0130   -9.3050    8.8130 N.am  122  PHE122     -0.1976
    131  CA        13.2880   -9.8290    7.6590 C.3   122  PHE122      0.1639
    132  C         11.8420  -10.1390    8.0200 C.2   122  PHE122      0.2290
    133  O         10.9120   -9.7000    7.3330 O.2   122  PHE122     -0.2864
    134  CB        13.9830  -11.0800    7.1210 C.3   122  PHE122      0.0560
    135  CG        15.0280  -10.7990    6.0810 C.ar  122  PHE122     -0.0200
    136  CD1       15.8920   -9.7230    6.2160 C.ar  122  PHE122     -0.0042
    137  CD2       15.1580  -11.6230    4.9750 C.ar  122  PHE122     -0.0042
    138  CE1       16.8590   -9.4660    5.2580 C.ar  122  PHE122     -0.0003
    139  CE2       16.1240  -11.3730    4.0150 C.ar  122  PHE122     -0.0003
    140  CZ        16.9760  -10.2930    4.1570 C.ar  122  PHE122     -0.0000
    141  N          9.9000   -7.0220    8.2590 N.3   125  LEU125     -0.1245
    142  CA         9.6860   -6.4540    6.9320 C.3   125  LEU125      0.1561
    143  C          8.6560   -7.2660    6.1530 C.2   125  LEU125      0.2260
    144  O          7.7310   -6.7070    5.5520 O.2   125  LEU125     -0.2867
    145  CB        11.0140   -6.3840    6.1770 C.3   125  LEU125      0.0270
    146  CG        12.0380   -5.3640    6.6820 C.3   125  LEU125      0.0019
    147  CD1       13.4460   -5.7320    6.2190 C.3   125  LEU125      0.0001
    148  CD2       11.6750   -3.9560    6.2370 C.3   125  LEU125      0.0001
    149  N         17.0700   -2.0420   12.9440 N.3   212  GLY212     -0.1225
    150  CA        18.0420   -2.0330   11.8660 C.3   212  GLY212      0.1811
    151  C         19.2490   -1.1640   12.1500 C.2   212  GLY212      0.2280
    152  O         20.3640   -1.4920   11.7350 O.2   212  GLY212     -0.2866
    153  N         21.6140   -3.0230   14.3200 N.3   215  HIS215     -0.1226
    154  CA        22.2840   -4.0640   13.5480 C.3   215  HIS215      0.1752
    155  C         23.4200   -3.4880   12.7150 C.2   215  HIS215      0.2595
    156  O         24.4760   -4.1160   12.5780 O.2   215  HIS215     -0.2718
    157  CB        21.2790   -4.7890   12.6540 C.3   215  HIS215      0.0759
    158  CG        21.8540   -5.9720   11.9390 C.ar  215  HIS215      0.0818
    159  ND1       22.4280   -5.8800   10.6880 N.ar  215  HIS215     -0.2268
    160  CD2       21.9480   -7.2730   12.3010 C.ar  215  HIS215      0.1154
    161  CE1       22.8490   -7.0740   10.3110 C.ar  215  HIS215      0.1986
    162  NE2       22.5690   -7.9370   11.2710 N.ar  215  HIS215     -0.2212
    163  N         23.2280   -2.2900   12.1570 N.am  216  LEU216     -0.1980
    164  CA        24.2880   -1.6540   11.3830 C.3   216  LEU216      0.1596
    165  C         25.4150   -1.1560   12.2780 C.2   216  LEU216      0.2287
    166  O         26.5830   -1.1850   11.8750 O.2   216  LEU216     -0.2864
    167  CB        23.7150   -0.5050   10.5560 C.3   216  LEU216      0.0297
    168  CG        22.7180   -0.9610    9.4940 C.3   216  LEU216      0.0022
    169  CD1       22.0950    0.2190    8.7580 C.3   216  LEU216      0.0001
    170  CD2       23.4060   -1.9010    8.5170 C.3   216  LEU216      0.0001
    171  N         32.0400   -0.0730    5.4290 N.3   227  LEU227     -0.1245
    172  CA        30.9090    0.8270    5.2650 C.3   227  LEU227      0.1561
    173  C         31.3700    2.1320    4.6340 C.2   227  LEU227      0.2260
    174  O         32.4210    2.6690    4.9980 O.2   227  LEU227     -0.2867
    175  CB        30.2360    1.1040    6.6110 C.3   227  LEU227      0.0270
    176  CG        29.3850   -0.0390    7.1610 C.3   227  LEU227      0.0019
    177  CD1       29.0830    0.1660    8.6380 C.3   227  LEU227      0.0001
    178  CD2       28.0970   -0.1420    6.3560 C.3   227  LEU227      0.0001
    179  N         27.3650    6.2430    4.6690 N.3   231  LEU231     -0.1245
    180  CA        26.6270    5.4270    5.6270 C.3   231  LEU231      0.1561
    181  C         27.1420    5.6390    7.0440 C.2   231  LEU231      0.2260
    182  O         26.3480    5.7290    7.9880 O.2   231  LEU231     -0.2867
    183  CB        26.7040    3.9500    5.2430 C.3   231  LEU231      0.0270
    184  CG        25.5530    3.4670    4.3570 C.3   231  LEU231      0.0019
    185  CD1       25.8670    2.1170    3.7430 C.3   231  LEU231      0.0001
    186  CD2       24.2610    3.3990    5.1570 C.3   231  LEU231      0.0001
@<TRIPOS>BOND
     1    95    94    2
     2    96    93    1
     3    96    97    1
     4    30    29    1
     5    98    97    1
     6    98    99    1
     7    93    94    1
     8    93    92    1
     9   106   105    2
    10   105   104    1
    11    99   100    2
    12    37    38    1
    13    42    43    1
    14    42    41    1
    15    29    31    1
    16    29    28    1
    17    38    41    1
    18    38    39    1
    19   100   101    1
    20   100   102    1
    21    25    28    1
    22    25    24    1
    23    25    26    1
    24   103   104    1
    25    27    26    2
    26    45    43   ar
    27   104   107    1
    28    40    39    2
    29    43    44   ar
    30    26    32   am
    31   107   108    1
    32    32    33    1
    33   108   110   ar
    34   108   109   ar
    35    87    86    2
    36    90    89    1
    37    35    34    2
    38    34    33    1
    39   110   112   ar
    40     9    10    1
    41    33    36    1
    42    85    84    1
    43    85    86    1
    44    85    88    1
    45    20    19    2
    46   109   111   ar
    47    19    18    1
    48    10    11    1
    49    10    13    1
    50    15    14    1
    51    12    11    2
    52    75    73    1
    53    11    17   am
    54    88    89    1
    55    89    91    1
    56   112   113   ar
    57    17    18    1
    58    14    13    1
    59    14    16    1
    60    18    21    1
    61   111   113   ar
    62    71    70    2
    63    73    74    1
    64    73    72    1
    65    21    23    1
    66    21    22    1
    67    69    70    1
    68    69    72    1
    69    69    68    1
    70     4     3    2
    71     3     2    1
    72    70    76   am
    73     1     2    1
    74    79    78    2
    75   185   184    1
    76     2     5    1
    77    78    77    1
    78   139   140   ar
    79   139   137   ar
    80    76    77    1
    81   140   138   ar
    82   184   186    1
    83   184   183    1
    84    77    80    1
    85   173   174    2
    86   173   172    1
    87   179   180    1
    88    49    48    2
    89   137   135   ar
    90     5     6    1
    91   183   180    1
    92   138   136   ar
    93   172   171    1
    94   172   175    1
    95   144   143    2
    96   180   181    1
    97    56    58   ar
    98    56    53   ar
    99    50    47    1
   100    50    51    1
   101    48    47    1
   102    48    60   am
   103    80    81    1
   104    58    59   ar
   105    47    46    1
   106   135   136   ar
   107   135   134    1
   108   143   142    1
   109   145   146    1
   110   145   142    1
   111     6     7    1
   112   147   146    1
   113   148   146    1
   114     7     8    1
   115    63    62    2
   116   178   176    1
   117    81    82    1
   118   175   176    1
   119    53    51   ar
   120    53    55   ar
   121    51    52   ar
   122   142   141    1
   123    66    65    1
   124    62    61    1
   125   181   182    2
   126    61    60    1
   127    61    64    1
   128   134   131    1
   129   176   177    1
   130    59    57   ar
   131   133   132    2
   132   131   132    1
   133   131   130    1
   134   119   120    1
   135   119   118    1
   136   120   121    1
   137    55    57   ar
   138    55    54   ar
   139    52    54   ar
   140    64    65    1
   141    65    67    1
   142    82    83    1
   143   170   168    1
   144   169   168    1
   145   130   124   am
   146   125   124    2
   147   118   115    1
   148   124   123    1
   149   128   126    1
   150   168   167    1
   151   117   116    2
   152   116   115    1
   153   115   114    1
   154   161   159   ar
   155   161   162   ar
   156   126   123    1
   157   126   127    1
   158   167   164    1
   159   159   158   ar
   160   123   122    1
   161   162   160   ar
   162   164   163    1
   163   164   165    1
   164   129   127    1
   165   152   151    2
   166   150   151    1
   167   150   149    1
   168   166   165    2
   169   158   160   ar
   170   158   157    1
   171   163   155   am
   172   156   155    2
   173   157   154    1
   174   155   154    1
   175   154   153    1
