@<TRIPOS>MOLECULE
tmp/5tlwD00.pdb
 124 113 0 0 0
SMALL
GASTEIGER

@<TRIPOS>ATOM
      1  N          0.9070   -9.7660   -0.4840 N.3    33  ASP33      -0.1225
      2  CA        -0.3230  -10.5370   -0.6260 C.3    33  ASP33       0.1805
      3  C         -1.5700   -9.6590   -0.6520 C.2    33  ASP33       0.2598
      4  O         -2.6700  -10.1520   -0.3860 O.2    33  ASP33      -0.2718
      5  CB        -0.4360  -11.5530    0.5110 C.3    33  ASP33       0.1424
      6  CG        -0.5570  -10.8890    1.8740 C.2    33  ASP33       0.3668
      7  OD1        0.2270   -9.9550    2.1530 O.co2  33  ASP33      -0.2456
      8  OD2       -1.4440  -11.2920    2.6580 O.co2  33  ASP33      -0.2456
      9  N         -1.4280   -8.3720   -0.9590 N.am   34  GLU34      -0.1965
     10  CA        -2.5770   -7.4750   -0.9650 C.3    34  GLU34       0.1733
     11  C         -3.6900   -8.0410   -1.8390 C.2    34  GLU34       0.2617
     12  O         -3.4670   -8.3960   -3.0000 O.2    34  GLU34      -0.2715
     13  CB        -2.1660   -6.0880   -1.4690 C.3    34  GLU34       0.0429
     14  CG        -1.0810   -5.4030   -0.6430 C.3    34  GLU34       0.1163
     15  CD         0.3320   -5.7390   -1.1090 C.2    34  GLU34       0.3649
     16  OE1        1.2870   -5.0780   -0.6480 O.co2  34  GLU34      -0.2457
     17  OE2        0.4890   -6.6600   -1.9380 O.co2  34  GLU34      -0.2457
     18  N         -4.8900   -8.1390   -1.2660 N.am   35  SER35      -0.1950
     19  CA        -6.0470   -8.5950   -2.0230 C.3    35  SER35       0.1924
     20  C         -6.2630   -7.7030   -3.2410 C.2    35  SER35       0.2314
     21  O         -5.7250   -6.5960   -3.3390 O.2    35  SER35      -0.2863
     22  CB        -7.3020   -8.5990   -1.1480 C.3    35  SER35       0.2116
     23  OG        -7.5690   -7.3110   -0.6200 O.3    35  SER35      -0.2180
     24  N         -7.2580   -4.3240   -2.2480 N.3    38  SER38      -0.1217
     25  CA        -6.2630   -3.5050   -1.5640 C.3    38  SER38       0.1889
     26  C         -5.1660   -3.0490   -2.5180 C.2    38  SER38       0.2288
     27  O         -4.6790   -1.9180   -2.4120 O.2    38  SER38      -0.2866
     28  CB        -5.6560   -4.2740   -0.3870 C.3    38  SER38       0.2089
     29  OG        -6.5510   -4.3170    0.7130 O.3    38  SER38      -0.2183
     30  N         -6.1220    0.0300   -4.5220 N.3    41  LYS41      -0.1231
     31  CA        -5.8360    1.3010   -3.8670 C.3    41  LYS41       0.1693
     32  C         -4.3750    1.6970   -4.0540 C.2    41  LYS41       0.2591
     33  O         -4.0670    2.8700   -4.2970 O.2    41  LYS41      -0.2718
     34  CB        -6.1820    1.2120   -2.3790 C.3    41  LYS41       0.0285
     35  CG        -7.6750    1.2320   -2.0770 C.3    41  LYS41       0.0035
     36  CD        -7.9350    1.1480   -0.5780 C.3    41  LYS41       0.0206
     37  CE        -9.4190    1.2120   -0.2620 C.3    41  LYS41       0.1093
     38  NZ        -9.6750    1.1490    1.2050 N.3    41  LYS41      -0.1314
     39  N         -3.4610    0.7300   -3.9460 N.am   42  ARG42      -0.1980
     40  CA        -2.0410    1.0270   -4.1010 C.3    42  ARG42       0.1597
     41  C         -1.7470    1.5840   -5.4890 C.2    42  ARG42       0.2287
     42  O         -1.1230    2.6420   -5.6270 O.2    42  ARG42      -0.2864
     43  CB        -1.2120   -0.2320   -3.8500 C.3    42  ARG42       0.0334
     44  CG        -1.4350   -0.8890   -2.4970 C.3    42  ARG42       0.0492
     45  CD        -0.7350   -0.1510   -1.3640 C.3    42  ARG42       0.2205
     46  NE        -0.6350   -1.0010   -0.1790 N.pl3  42  ARG42      -0.0865
     47  CZ         0.3170   -1.9120    0.0180 C.cat  42  ARG42       0.5346
     48  NH1        1.2720   -2.0990   -0.8860 N.pl3  42  ARG42       0.1354
     49  NH2        0.3160   -2.6440    1.1240 N.pl3  42  ARG42       0.1354
     50  N         -1.7100  -16.1400    1.3920 N.3   107  LYS107     -0.1245
     51  CA        -2.8440  -15.6740    2.1820 C.3   107  LYS107      0.1561
     52  C         -4.0740  -16.5120    1.8530 C.2   107  LYS107      0.2260
     53  O         -4.4380  -16.6520    0.6820 O.2   107  LYS107     -0.2867
     54  CB        -3.1310  -14.2000    1.9000 C.3   107  LYS107      0.0271
     55  CG        -4.2220  -13.6090    2.7920 C.3   107  LYS107      0.0035
     56  CD        -5.2590  -12.8140    2.0030 C.3   107  LYS107      0.0206
     57  CE        -4.6860  -11.5080    1.4650 C.3   107  LYS107      0.1093
     58  NZ        -4.2770  -10.5640    2.5490 N.3   107  LYS107     -0.1314
     59  N         -7.2110  -16.4820    4.0160 N.3   109  ASP109     -0.1239
     60  CA        -8.5070  -16.0520    4.5240 C.3   109  ASP109      0.1674
     61  C         -9.2900  -15.3320    3.4270 C.2   109  ASP109      0.2266
     62  O         -8.7560  -14.9810    2.3760 O.2   109  ASP109     -0.2867
     63  CB        -8.3520  -15.1550    5.7550 C.3   109  ASP109      0.1410
     64  CG        -7.9470  -13.7350    5.4090 C.2   109  ASP109      0.3668
     65  OD1       -6.8170  -13.3370    5.7740 O.co2 109  ASP109     -0.2456
     66  OD2       -8.7630  -13.0130    4.7910 O.co2 109  ASP109     -0.2456
     67  N         -1.1180  -17.3970    5.8140 N.3   146  LYS146     -0.1245
     68  CA        -1.4390  -16.2070    6.5930 C.3   146  LYS146      0.1561
     69  C         -2.9490  -16.0510    6.7010 C.2   146  LYS146      0.2260
     70  O         -3.6720  -16.2370    5.7200 O.2   146  LYS146     -0.2867
     71  CB        -0.8420  -14.9370    5.9620 C.3   146  LYS146      0.0271
     72  CG        -1.4220  -13.6340    6.5150 C.3   146  LYS146      0.0035
     73  CD        -0.7320  -12.4140    5.9420 C.3   146  LYS146      0.0206
     74  CE        -1.6900  -11.2440    5.8310 C.3   146  LYS146      0.1093
     75  NZ        -1.0260  -10.0170    5.3010 N.3   146  LYS146     -0.1314
     76  N         -5.7150  -13.2430    8.6950 N.3   148  ARG148     -0.1245
     77  CA        -5.7840  -11.9670    9.3990 C.3   148  ARG148      0.1563
     78  C         -7.1250  -11.8240   10.1090 C.2   148  ARG148      0.2260
     79  O         -8.1800  -11.8850    9.4680 O.2   148  ARG148     -0.2867
     80  CB        -5.5750  -10.8060    8.4290 C.3   148  ARG148      0.0307
     81  CG        -5.6830   -9.4290    9.0690 C.3   148  ARG148      0.0489
     82  CD        -5.2930   -8.3360    8.0850 C.3   148  ARG148      0.2205
     83  NE        -5.4230   -7.0030    8.6710 N.pl3 148  ARG148     -0.0865
     84  CZ        -6.4460   -6.1750    8.4710 C.cat 148  ARG148      0.5346
     85  NH1       -7.4630   -6.5190    7.6850 N.pl3 148  ARG148      0.1354
     86  NH2       -6.4510   -4.9850    9.0630 N.pl3 148  ARG148      0.1354
     87  N         -2.2250  -14.1170   12.7790 N.3   187  GLU187     -0.1245
     88  CA        -2.2540  -12.6930   12.8060 C.3   187  GLU187      0.1567
     89  C         -3.4970  -12.1030   13.4520 C.2   187  GLU187      0.2260
     90  O         -4.4900  -11.8950   12.8040 O.2   187  GLU187     -0.2867
     91  CB        -2.1120  -12.1180   11.4050 C.3   187  GLU187      0.0388
     92  CG        -1.9960  -10.6080   11.3680 C.3   187  GLU187      0.1160
     93  CD        -2.0810   -9.9770    9.9900 C.2   187  GLU187      0.3649
     94  OE1       -1.9880  -10.6850    9.0040 O.co2 187  GLU187     -0.2457
     95  OE2       -2.2290   -8.7560    9.8950 O.co2 187  GLU187     -0.2457
     96  N         -4.6480   -8.8890   14.5770 N.3   189  GLU189     -0.1245
     97  CA        -4.3340   -7.5080   14.5720 C.3   189  GLU189      0.1567
     98  C         -5.2080   -6.5900   15.3870 C.2   189  GLU189      0.2260
     99  O         -6.3780   -6.5570   15.2420 O.2   189  GLU189     -0.2867
    100  CB        -4.2340   -7.0190   13.1200 C.3   189  GLU189      0.0388
    101  CG        -3.8860   -5.5540   12.9780 C.3   189  GLU189      0.1160
    102  CD        -3.7940   -5.0080   11.5550 C.2   189  GLU189      0.3649
    103  OE1       -3.7890   -5.7110   10.5560 O.co2 189  GLU189     -0.2457
    104  OE2       -3.7080   -3.8120   11.4390 O.co2 189  GLU189     -0.2457
    105  N          2.0480  -12.9890   14.1020 N.3   229  LYS229     -0.1245
    106  CA         2.1330  -11.7070   13.4080 C.3   229  LYS229      0.1561
    107  C          1.2760  -10.7120   14.1790 C.2   229  LYS229      0.2260
    108  O          0.1020  -10.4890   13.8420 O.2   229  LYS229     -0.2867
    109  CB         1.6900  -11.8160   11.9500 C.3   229  LYS229      0.0271
    110  CG         1.7440  -10.5000   11.1860 C.3   229  LYS229      0.0035
    111  CD         1.5930  -10.7340    9.6800 C.3   229  LYS229      0.0206
    112  CE         1.6580   -9.4400    8.8940 C.3   229  LYS229      0.1093
    113  NZ         1.3890   -9.6610    7.4430 N.3   229  LYS229     -0.1314
    114  N          3.7200   -2.4790    3.3450 N.3   303  ARG303     -0.1245
    115  CA         3.9380   -1.0740    3.0110 C.3   303  ARG303      0.1563
    116  C          5.2970   -0.5850    3.4980 C.2   303  ARG303      0.2260
    117  O          5.9560    0.2090    2.8160 O.2   303  ARG303     -0.2867
    118  CB         2.8240   -0.2170    3.6090 C.3   303  ARG303      0.0307
    119  CG         1.8980    0.4150    2.5860 C.3   303  ARG303      0.0489
    120  CD         0.5440    0.7090    3.2060 C.3   303  ARG303      0.2205
    121  NE        -0.2280   -0.5200    3.3720 N.pl3 303  ARG303     -0.0865
    122  CZ        -1.1930   -0.7010    4.2690 C.cat 303  ARG303      0.5346
    123  NH1       -1.5210    0.2640    5.1190 N.pl3 303  ARG303      0.1354
    124  NH2       -1.8260   -1.8640    4.3210 N.pl3 303  ARG303      0.1354
@<TRIPOS>BOND
     1    42    41    2
     2    41    40    1
     3    30    31    1
     4    33    32    2
     5    40    39    1
     6    40    43    1
     7    32    39   am
     8    32    31    1
     9    31    34    1
    10    43    44    1
    11    21    20    2
    12    20    19    1
    13    12    11    2
    14    26    27    2
    15    26    25    1
    16    44    45    1
    17    34    35    1
    18    24    25    1
    19    35    36    1
    20    19    18    1
    21    19    22    1
    22    17    15   ar
    23    11    18   am
    24    11    10    1
    25    25    28    1
    26    13    10    1
    27    13    14    1
    28    45    46    1
    29    22    23    1
    30    15    16   ar
    31    15    14    1
    32    10     9    1
    33     9     3   am
    34    48    47    1
    35     3     2    1
    36     3     4    2
    37     2     1    1
    38     2     5    1
    39    36    37    1
    40    28    29    1
    41    37    38    1
    42    46    47    2
    43    47    49    1
    44     5     6    1
    45    53    52    2
    46    50    51    1
    47    57    56    1
    48    57    58    1
    49    52    51    1
    50     6     7   ar
    51     6     8   ar
    52    54    51    1
    53    54    55    1
    54    56    55    1
    55    62    61    2
    56   119   120    1
    57   119   118    1
    58   117   116    2
    59   115   114    1
    60   115   116    1
    61   115   118    1
    62   120   121    1
    63   121   122    2
    64    61    60    1
    65    59    60    1
    66   122   124    1
    67   122   123    1
    68    60    63    1
    69    66    64   ar
    70    75    74    1
    71    64    63    1
    72    64    65   ar
    73    70    69    2
    74    67    68    1
    75    74    73    1
    76    73    72    1
    77    71    72    1
    78    71    68    1
    79    68    69    1
    80   113   112    1
    81    85    84    1
    82    82    83    1
    83    82    81    1
    84    80    81    1
    85    80    77    1
    86    84    83    2
    87    84    86    1
    88    76    77    1
    89   112   111    1
    90    94    93   ar
    91    77    78    1
    92    79    78    2
    93   111   110    1
    94    95    93   ar
    95    93    92    1
    96   103   102   ar
    97   110   109    1
    98    92    91    1
    99    91    88    1
   100   104   102   ar
   101   102   101    1
   102   109   106    1
   103    87    88    1
   104    90    89    2
   105    88    89    1
   106   101   100    1
   107   100    97    1
   108   106   105    1
   109   106   107    1
   110   108   107    2
   111    97    96    1
   112    97    98    1
   113    99    98    2
