@<TRIPOS>MOLECULE
tmp/5tlyA01.pdb
 186 175 0 0 0
SMALL
GASTEIGER

@<TRIPOS>ATOM
      1  N         25.8410   -8.6480    3.5800 N.3    36  MET36      -0.1245
      2  CA        25.9450   -7.3200    4.1770 C.3    36  MET36       0.1570
      3  C         26.5370   -6.3210    3.1910 C.2    36  MET36       0.2261
      4  O         26.1470   -5.1480    3.1760 O.2    36  MET36      -0.2867
      5  CB        26.7870   -7.3790    5.4510 C.3    36  MET36       0.0387
      6  CG        26.0650   -7.9640    6.6530 C.3    36  MET36       0.0595
      7  SD        24.6900   -6.9360    7.2030 S.3    36  MET36      -0.1393
      8  CE        25.5210   -5.3700    7.4600 C.3    36  MET36       0.0692
      9  N         23.7890   -5.3240    0.5890 N.3    39  LEU39      -0.1231
     10  CA        22.8030   -4.4360    1.1990 C.3    39  LEU39       0.1693
     11  C         23.4000   -3.0670    1.4980 C.2    39  LEU39       0.2592
     12  O         22.7270   -2.0430    1.3390 O.2    39  LEU39      -0.2718
     13  CB        22.2420   -5.0680    2.4730 C.3    39  LEU39       0.0284
     14  CG        20.9600   -5.8970    2.3580 C.3    39  LEU39       0.0019
     15  CD1       21.1020   -7.0060    1.3290 C.3    39  LEU39       0.0001
     16  CD2       20.5830   -6.4730    3.7150 C.3    39  LEU39       0.0001
     17  N         24.6600   -3.0300    1.9390 N.am   40  THR40      -0.1953
     18  CA        25.3110   -1.7520    2.2100 C.3    40  THR40       0.1897
     19  C         25.5130   -0.9550    0.9280 C.2    40  THR40       0.2313
     20  O         25.2370    0.2510    0.8910 O.2    40  THR40      -0.2863
     21  CB        26.6480   -1.9840    2.9150 C.3    40  THR40       0.1794
     22  OG1       26.4120   -2.3480    4.2810 O.3    40  THR40      -0.2208
     23  CG2       27.5170   -0.7340    2.8660 C.3    40  THR40       0.0378
     24  N         23.8050   -1.2660   -1.9020 N.3    42  LEU42      -0.1231
     25  CA        22.5040   -0.8660   -2.4280 C.3    42  LEU42       0.1693
     26  C         21.9160    0.2940   -1.6350 C.2    42  LEU42       0.2591
     27  O         21.3660    1.2380   -2.2140 O.2    42  LEU42      -0.2718
     28  CB        21.5470   -2.0590   -2.4200 C.3    42  LEU42       0.0284
     29  CG        20.0990   -1.7690   -2.8160 C.3    42  LEU42       0.0019
     30  CD1       20.0190   -1.3020   -4.2610 C.3    42  LEU42       0.0001
     31  CD2       19.2250   -2.9950   -2.5920 C.3    42  LEU42       0.0001
     32  N         22.0230    0.2420   -0.3050 N.am   43  ALA43      -0.1980
     33  CA        21.4690    1.3130    0.5170 C.3    43  ALA43       0.1597
     34  C         22.2200    2.6210    0.3060 C.2    43  ALA43       0.2287
     35  O         21.6150    3.7000    0.3160 O.2    43  ALA43      -0.2864
     36  CB        21.4960    0.9110    1.9900 C.3    43  ALA43       0.0319
     37  N         20.9140    4.0770   -2.9100 N.3    46  GLU46      -0.1245
     38  CA        19.5430    4.5460   -2.7340 C.3    46  GLU46       0.1567
     39  C         19.4930    5.8720   -1.9850 C.2    46  GLU46       0.2260
     40  O         18.6060    6.6940   -2.2400 O.2    46  GLU46      -0.2867
     41  CB        18.7160    3.5020   -1.9860 C.3    46  GLU46       0.0388
     42  CG        18.2630    2.3260   -2.8240 C.3    46  GLU46       0.1160
     43  CD        17.3760    1.3820   -2.0390 C.2    46  GLU46       0.3649
     44  OE1       17.8930    0.7030   -1.1270 O.co2  46  GLU46      -0.2457
     45  OE2       16.1610    1.3330   -2.3190 O.co2  46  GLU46      -0.2457
     46  N         16.0460    8.3750    7.4230 N.3    76  TRP76      -0.1227
     47  CA        16.5770    7.7460    6.2130 C.3    76  TRP76       0.1737
     48  C         16.2960    6.2470    6.1790 C.2    76  TRP76       0.2595
     49  O         15.9320    5.7030    5.1300 O.2    76  TRP76      -0.2718
     50  CB        18.0770    8.0130    6.0850 C.3    76  TRP76       0.0564
     51  CG        18.9210    7.3720    7.1460 C.ar   76  TRP76       0.0003
     52  CD1       19.2160    7.8810    8.3760 C.ar   76  TRP76       0.0946
     53  CD2       19.5890    6.1060    7.0650 C.ar   76  TRP76       0.0152
     54  NE1       20.0220    7.0090    9.0690 N.ar   76  TRP76      -0.2442
     55  CE2       20.2660    5.9130    8.2850 C.ar   76  TRP76       0.0810
     56  CE3       19.6790    5.1180    6.0790 C.ar   76  TRP76       0.0012
     57  CZ2       21.0210    4.7700    8.5470 C.ar   76  TRP76       0.0191
     58  CZ3       20.4310    3.9860    6.3410 C.ar   76  TRP76       0.0001
     59  CH2       21.0910    3.8210    7.5650 C.ar   76  TRP76       0.0015
     60  N         16.4530    5.5600    7.3130 N.am   77  LEU77      -0.1980
     61  CA        16.2160    4.1200    7.3200 C.3    77  LEU77       0.1596
     62  C         14.7270    3.8060    7.2390 C.2    77  LEU77       0.2287
     63  O         14.3280    2.8360    6.5850 O.2    77  LEU77      -0.2864
     64  CB        16.8420    3.4860    8.5610 C.3    77  LEU77       0.0297
     65  CG        16.8490    1.9560    8.5900 C.3    77  LEU77       0.0022
     66  CD1       17.3590    1.3970    7.2680 C.3    77  LEU77       0.0001
     67  CD2       17.6970    1.4510    9.7480 C.3    77  LEU77       0.0001
     68  N         13.9280    4.1140    3.5510 N.3    80  LEU80      -0.1231
     69  CA        14.4020    2.9360    2.8300 C.3    80  LEU80       0.1693
     70  C         13.5040    1.7340    3.0900 C.2    80  LEU80       0.2591
     71  O         13.1930    0.9700    2.1680 O.2    80  LEU80      -0.2718
     72  CB        15.8420    2.6090    3.2290 C.3    80  LEU80       0.0284
     73  CG        16.9580    3.5190    2.7190 C.3    80  LEU80       0.0019
     74  CD1       18.3090    3.0080    3.1880 C.3    80  LEU80       0.0001
     75  CD2       16.9150    3.6150    1.2040 C.3    80  LEU80       0.0001
     76  N         13.0700    1.5560    4.3390 N.am   81  MET81      -0.1979
     77  CA        12.3030    0.3650    4.6910 C.3    81  MET81       0.1605
     78  C         10.9010    0.3990    4.0940 C.2    81  MET81       0.2287
     79  O         10.4260   -0.6130    3.5660 O.2    81  MET81      -0.2864
     80  CB        12.2460    0.2130    6.2110 C.3    81  MET81       0.0413
     81  CG        13.5150   -0.3770    6.8110 C.3    81  MET81       0.0598
     82  SD        13.5080   -0.3920    8.6130 S.3    81  MET81      -0.1393
     83  CE        14.8850   -1.4890    8.9490 C.3    81  MET81       0.0692
     84  N         11.2360   -0.4700    0.5140 N.3    84  LEU84      -0.1245
     85  CA        11.4600   -1.9040    0.3630 C.3    84  LEU84       0.1561
     86  C         10.1710   -2.6830    0.5850 C.2    84  LEU84       0.2260
     87  O          9.8390   -3.5950   -0.1820 O.2    84  LEU84      -0.2867
     88  CB        12.5410   -2.3660    1.3410 C.3    84  LEU84       0.0270
     89  CG        12.6510   -3.8740    1.5790 C.3    84  LEU84       0.0019
     90  CD1       13.1420   -4.5870    0.3290 C.3    84  LEU84       0.0001
     91  CD2       13.5610   -4.1620    2.7590 C.3    84  LEU84       0.0001
     92  N          8.0310   -2.2100   -2.4820 N.3    87  ARG87      -0.1245
     93  CA         8.4650   -2.9990   -3.6320 C.3    87  ARG87       0.1563
     94  C          8.0900   -4.4670   -3.4850 C.2    87  ARG87       0.2260
     95  O          7.8720   -5.1550   -4.4890 O.2    87  ARG87      -0.2867
     96  CB         9.9780   -2.8770   -3.8270 C.3    87  ARG87       0.0307
     97  CG        10.4580   -1.5060   -4.2460 C.3    87  ARG87       0.0489
     98  CD        11.8910   -1.5620   -4.7540 C.3    87  ARG87       0.2205
     99  NE        12.8350   -2.0120   -3.7340 N.pl3  87  ARG87      -0.0865
    100  CZ        13.3780   -1.2150   -2.8190 C.cat  87  ARG87       0.5346
    101  NH1       13.0620    0.0730   -2.7870 N.pl3  87  ARG87       0.1354
    102  NH2       14.2340   -1.7030   -1.9320 N.pl3  87  ARG87       0.1354
    103  N         14.6280   -6.3480   -2.4720 N.3    97  PHE97      -0.1241
    104  CA        15.6230   -5.2910   -2.3170 C.3    97  PHE97       0.1605
    105  C         15.9470   -4.6520   -3.6600 C.2    97  PHE97       0.2264
    106  O         16.0430   -3.4250   -3.7700 O.2    97  PHE97      -0.2867
    107  CB        16.8910   -5.8570   -1.6730 C.3    97  PHE97       0.0534
    108  CG        16.7340   -6.1990   -0.2180 C.ar   97  PHE97      -0.0203
    109  CD1       16.9980   -5.2530    0.7570 C.ar   97  PHE97      -0.0042
    110  CD2       16.3270   -7.4650    0.1740 C.ar   97  PHE97      -0.0042
    111  CE1       16.8570   -5.5590    2.0980 C.ar   97  PHE97      -0.0003
    112  CE2       16.1840   -7.7770    1.5140 C.ar   97  PHE97      -0.0003
    113  CZ        16.4500   -6.8230    2.4770 C.ar   97  PHE97      -0.0000
    114  N         19.6080  -10.6440   11.5190 N.3   114  MET114     -0.1245
    115  CA        18.8780  -10.1510   10.3590 C.3   114  MET114      0.1570
    116  C         17.4820  -10.7470   10.2630 C.2   114  MET114      0.2261
    117  O         16.5940  -10.1220    9.6730 O.2   114  MET114     -0.2867
    118  CB        19.6780  -10.4600    9.0900 C.3   114  MET114      0.0387
    119  CG        19.0950   -9.9010    7.8090 C.3   114  MET114      0.0595
    120  SD        19.2810   -8.1140    7.7040 S.3   114  MET114     -0.1393
    121  CE        21.0610   -7.9680    7.5720 C.3   114  MET114      0.0692
    122  N         14.5350   -8.6350   11.8440 N.3   117  ILE117     -0.1231
    123  CA        14.1770   -7.4720   11.0400 C.3   117  ILE117      0.1692
    124  C         13.4840   -7.9050    9.7540 C.2   117  ILE117      0.2592
    125  O         12.5540   -7.2420    9.2810 O.2   117  ILE117     -0.2718
    126  CB        15.4250   -6.6160   10.7580 C.3   117  ILE117      0.0266
    127  CG1       16.1900   -6.3600   12.0580 C.3   117  ILE117      0.0019
    128  CG2       15.0320   -5.3000   10.1090 C.3   117  ILE117      0.0020
    129  CD1       17.4280   -5.5100   11.8830 C.3   117  ILE117      0.0001
    130  N         13.9220   -9.0240    9.1720 N.am  118  PHE118     -0.1976
    131  CA        13.2680   -9.5530    7.9780 C.3   118  PHE118      0.1639
    132  C         11.8030   -9.8710    8.2500 C.2   118  PHE118      0.2290
    133  O         10.9210   -9.5170    7.4590 O.2   118  PHE118     -0.2864
    134  CB        14.0050  -10.8010    7.4880 C.3   118  PHE118      0.0560
    135  CG        14.8850  -10.5650    6.2920 C.ar  118  PHE118     -0.0200
    136  CD1       14.7080  -11.3010    5.1310 C.ar  118  PHE118     -0.0042
    137  CD2       15.8900   -9.6120    6.3270 C.ar  118  PHE118     -0.0042
    138  CE1       15.5180  -11.0930    4.0280 C.ar  118  PHE118     -0.0003
    139  CE2       16.7030   -9.3980    5.2260 C.ar  118  PHE118     -0.0003
    140  CZ        16.5150  -10.1400    4.0770 C.ar  118  PHE118     -0.0000
    141  N          9.7220   -6.7060    8.4490 N.3   121  LEU121     -0.1245
    142  CA         9.5130   -6.1250    7.1270 C.3   121  LEU121      0.1561
    143  C          8.5060   -6.9370    6.3230 C.2   121  LEU121      0.2260
    144  O          7.6240   -6.3710    5.6650 O.2   121  LEU121     -0.2867
    145  CB        10.8450   -6.0270    6.3810 C.3   121  LEU121      0.0270
    146  CG        11.8630   -5.0240    6.9280 C.3   121  LEU121      0.0019
    147  CD1       13.2360   -5.2640    6.3190 C.3   121  LEU121      0.0001
    148  CD2       11.4030   -3.5970    6.6650 C.3   121  LEU121      0.0001
    149  N         16.7290   -1.7900   13.1690 N.3   205  GLY205     -0.1225
    150  CA        17.7210   -1.8040   12.1090 C.3   205  GLY205      0.1811
    151  C         18.8910   -0.8820   12.3820 C.2   205  GLY205      0.2280
    152  O         20.0220   -1.1740   11.9840 O.2   205  GLY205     -0.2866
    153  N         21.2530   -2.6490   14.6100 N.3   208  HIS208     -0.1226
    154  CA        21.9430   -3.7400   13.9320 C.3   208  HIS208      0.1752
    155  C         23.1120   -3.2300   13.0980 C.2   208  HIS208      0.2595
    156  O         24.1630   -3.8790   13.0320 O.2   208  HIS208     -0.2718
    157  CB        20.9530   -4.5160   13.0630 C.3   208  HIS208      0.0759
    158  CG        21.5280   -5.7540   12.4480 C.ar  208  HIS208      0.0818
    159  ND1       21.7830   -5.8650   11.0980 N.ar  208  HIS208     -0.2268
    160  CD2       21.8970   -6.9340   13.0000 C.ar  208  HIS208      0.1154
    161  CE1       22.2840   -7.0610   10.8450 C.ar  208  HIS208      0.1986
    162  NE2       22.3640   -7.7290   11.9810 N.ar  208  HIS208     -0.2212
    163  N         22.9540   -2.0680   12.4570 N.am  209  LEU209     -0.1980
    164  CA        24.0410   -1.5230   11.6500 C.3   209  LEU209      0.1596
    165  C         25.1750   -0.9910   12.5140 C.2   209  LEU209      0.2287
    166  O         26.3400   -1.0450   12.1040 O.2   209  LEU209     -0.2864
    167  CB        23.5150   -0.4240   10.7300 C.3   209  LEU209      0.0297
    168  CG        22.5730   -0.9230    9.6360 C.3   209  LEU209      0.0022
    169  CD1       22.1860    0.2080    8.6970 C.3   209  LEU209      0.0001
    170  CD2       23.2220   -2.0700    8.8750 C.3   209  LEU209      0.0001
    171  N         31.6750    0.1470    5.7530 N.3   220  LEU220     -0.1245
    172  CA        30.5400    0.9820    5.3960 C.3   220  LEU220      0.1561
    173  C         31.0200    2.2580    4.7180 C.2   220  LEU220      0.2260
    174  O         32.1310    2.7360    4.9630 O.2   220  LEU220     -0.2867
    175  CB        29.7120    1.3270    6.6350 C.3   220  LEU220      0.0270
    176  CG        29.1790    0.1420    7.4440 C.3   220  LEU220      0.0019
    177  CD1       28.4730    0.6240    8.7010 C.3   220  LEU220      0.0001
    178  CD2       28.2490   -0.7140    6.5990 C.3   220  LEU220      0.0001
    179  N         27.0750    6.5910    4.6210 N.3   224  LEU224     -0.1245
    180  CA        26.3200    5.6830    5.4770 C.3   224  LEU224      0.1561
    181  C         26.8050    5.7440    6.9200 C.2   224  LEU224      0.2260
    182  O         26.0060    5.5800    7.8500 O.2   224  LEU224     -0.2867
    183  CB        26.4190    4.2570    4.9360 C.3   224  LEU224      0.0270
    184  CG        25.3710    3.2380    5.3820 C.3   224  LEU224      0.0019
    185  CD1       23.9730    3.7370    5.0680 C.3   224  LEU224      0.0001
    186  CD2       25.6270    1.9050    4.7020 C.3   224  LEU224      0.0001
@<TRIPOS>BOND
     1    98    97    1
     2    98    99    1
     3    95    94    2
     4    30    29    1
     5    97    96    1
     6    96    93    1
     7   106   105    2
     8    99   100    2
     9   105   104    1
    10    93    94    1
    11    93    92    1
    12    37    38    1
    13    42    43    1
    14    42    41    1
    15   100   101    1
    16   100   102    1
    17    29    31    1
    18    29    28    1
    19    38    41    1
    20    38    39    1
    21   103   104    1
    22    25    28    1
    23    25    24    1
    24    25    26    1
    25    45    43   ar
    26   104   107    1
    27    40    39    2
    28    27    26    2
    29    43    44   ar
    30   107   108    1
    31    26    32   am
    32    32    33    1
    33   108   110   ar
    34   108   109   ar
    35    87    86    2
    36   110   112   ar
    37    34    35    2
    38    34    33    1
    39    90    89    1
    40    85    84    1
    41    85    86    1
    42    85    88    1
    43    33    36    1
    44     9    10    1
    45   109   111   ar
    46    20    19    2
    47    19    18    1
    48    10    11    1
    49    10    13    1
    50    75    73    1
    51    15    14    1
    52    12    11    2
    53    88    89    1
    54    11    17   am
    55   112   113   ar
    56    89    91    1
    57    17    18    1
    58   111   113   ar
    59    71    70    2
    60    18    21    1
    61    14    13    1
    62    14    16    1
    63    73    74    1
    64    73    72    1
    65    69    70    1
    66    69    72    1
    67    69    68    1
    68    23    21    1
    69    21    22    1
    70    70    76   am
    71     4     3    2
    72     3     2    1
    73    79    78    2
    74     1     2    1
    75   138   140   ar
    76   138   136   ar
    77   140   139   ar
    78    78    77    1
    79     2     5    1
    80    76    77    1
    81   179   180    1
    82    77    80    1
    83   186   184    1
    84   173   174    2
    85   173   172    1
    86   183   184    1
    87   183   180    1
    88   185   184    1
    89    49    48    2
    90   136   135   ar
    91   139   137   ar
    92   172   171    1
    93   172   175    1
    94     5     6    1
    95   180   181    1
    96   144   143    2
    97    56    58   ar
    98    56    53   ar
    99    50    47    1
   100    50    51    1
   101    48    47    1
   102    48    60   am
   103    80    81    1
   104    47    46    1
   105   135   137   ar
   106   135   134    1
   107   147   146    1
   108   143   142    1
   109    58    59   ar
   110   145   146    1
   111   145   142    1
   112    63    62    2
   113   178   176    1
   114   175   176    1
   115     6     7    1
   116   148   146    1
   117    81    82    1
   118   181   182    2
   119    53    51   ar
   120    53    55   ar
   121   142   141    1
   122    51    52   ar
   123     7     8    1
   124    62    61    1
   125    66    65    1
   126    60    61    1
   127    61    64    1
   128   176   177    1
   129   133   132    2
   130   134   131    1
   131    59    57   ar
   132   121   120    1
   133   120   119    1
   134   119   118    1
   135   131   132    1
   136   131   130    1
   137    55    57   ar
   138    55    54   ar
   139    52    54   ar
   140    64    65    1
   141    65    67    1
   142    82    83    1
   143   169   168    1
   144   170   168    1
   145   118   115    1
   146   130   124   am
   147   125   124    2
   148   168   167    1
   149   117   116    2
   150   124   123    1
   151   128   126    1
   152   116   115    1
   153   115   114    1
   154   167   164    1
   155   126   123    1
   156   126   127    1
   157   161   159   ar
   158   161   162   ar
   159   123   122    1
   160   159   158   ar
   161   164   163    1
   162   164   165    1
   163   129   127    1
   164   162   160   ar
   165   152   151    2
   166   166   165    2
   167   150   151    1
   168   150   149    1
   169   158   160   ar
   170   158   157    1
   171   163   155   am
   172   156   155    2
   173   157   154    1
   174   155   154    1
   175   154   153    1
