@<TRIPOS>MOLECULE
tmp/5tlzD00.pdb
 148 134 0 0 0
SMALL
GASTEIGER

@<TRIPOS>ATOM
      1  N          5.5780   -9.3170    2.9840 N.3    28  ALA28      -0.1245
      2  CA         4.1370   -9.5470    2.9610 C.3    28  ALA28       0.1562
      3  C          3.5950   -8.8780    1.7030 C.2    28  ALA28       0.2260
      4  O          3.3590   -7.6650    1.6780 O.2    28  ALA28      -0.2867
      5  CB         3.4760   -9.0110    4.2260 C.3    28  ALA28       0.0290
      6  N          0.7830  -10.1460   -0.0370 N.3    30  ASP30      -0.1225
      7  CA        -0.4600  -10.8850   -0.2380 C.3    30  ASP30       0.1805
      8  C         -1.6950   -9.9820   -0.2890 C.2    30  ASP30       0.2598
      9  O         -2.8010  -10.4240    0.0450 O.2    30  ASP30      -0.2718
     10  CB        -0.6270  -11.9320    0.8640 C.3    30  ASP30       0.1424
     11  CG        -0.6540  -11.3230    2.2550 C.2    30  ASP30       0.3668
     12  OD1        0.3780  -10.7650    2.6870 O.co2  30  ASP30      -0.2456
     13  OD2       -1.7000  -11.4180    2.9250 O.co2  30  ASP30      -0.2456
     14  N         -1.5380   -8.7330   -0.7100 N.am   31  GLU31      -0.1965
     15  CA        -2.6970   -7.8680   -0.8860 C.3    31  GLU31       0.1733
     16  C         -3.6520   -8.4670   -1.9180 C.2    31  GLU31       0.2617
     17  O         -3.2460   -8.8510   -3.0220 O.2    31  GLU31      -0.2715
     18  CB        -2.2540   -6.4660   -1.3160 C.3    31  GLU31       0.0429
     19  CG        -1.2780   -5.7800   -0.3440 C.3    31  GLU31       0.1163
     20  CD         0.1940   -6.0430   -0.6600 C.2    31  GLU31       0.3649
     21  OE1        0.4930   -6.9280   -1.4940 O.co2  31  GLU31      -0.2457
     22  OE2        1.0570   -5.3570   -0.0650 O.co2  31  GLU31      -0.2457
     23  N         -4.9260   -8.5710   -1.5440 N.am   32  SER32      -0.1950
     24  CA        -5.9430   -9.0450   -2.4690 C.3    32  SER32       0.1924
     25  C         -6.1780   -8.0040   -3.5630 C.2    32  SER32       0.2314
     26  O         -5.6680   -6.8820   -3.5180 O.2    32  SER32      -0.2863
     27  CB        -7.2490   -9.3540   -1.7280 C.3    32  SER32       0.2116
     28  OG        -7.7910   -8.1940   -1.1190 O.3    32  SER32      -0.2180
     29  N         -7.3880   -4.6350   -2.4680 N.3    35  SER35      -0.1217
     30  CA        -6.4580   -3.8570   -1.6550 C.3    35  SER35       0.1889
     31  C         -5.2640   -3.3680   -2.4670 C.2    35  SER35       0.2288
     32  O         -4.8050   -2.2370   -2.2780 O.2    35  SER35      -0.2866
     33  CB        -5.9840   -4.6930   -0.4670 C.3    35  SER35       0.2089
     34  OG        -7.0900   -5.2910    0.1910 O.3    35  SER35      -0.2183
     35  N         -3.3420    0.5480   -3.7470 N.3    39  ARG39      -0.1245
     36  CA        -1.9190    0.8630   -3.8260 C.3    39  ARG39       0.1563
     37  C         -1.5580    1.3460   -5.2250 C.2    39  ARG39       0.2260
     38  O         -0.8810    2.3680   -5.3860 O.2    39  ARG39      -0.2867
     39  CB        -1.0830   -0.3630   -3.4410 C.3    39  ARG39       0.0307
     40  CG        -1.4560   -1.0250   -2.1020 C.3    39  ARG39       0.0489
     41  CD        -0.8680   -0.3070   -0.8870 C.3    39  ARG39       0.2205
     42  NE        -1.4210    1.0340   -0.7110 N.pl3  39  ARG39      -0.0865
     43  CZ        -2.6080    1.2980   -0.1690 C.cat  39  ARG39       0.5346
     44  NH1       -3.0150    2.5570   -0.0540 N.pl3  39  ARG39       0.1354
     45  NH2       -3.3940    0.3120    0.2520 N.pl3  39  ARG39       0.1354
     46  N         -1.5580  -16.5760    1.6350 N.3   104  LYS104     -0.1245
     47  CA        -2.6720  -16.1090    2.4510 C.3   104  LYS104      0.1561
     48  C         -3.9250  -16.9060    2.1070 C.2   104  LYS104      0.2260
     49  O         -4.2780  -17.0440    0.9290 O.2   104  LYS104     -0.2867
     50  CB        -2.9190  -14.6220    2.2240 C.3   104  LYS104      0.0271
     51  CG        -3.9900  -14.0310    3.1460 C.3   104  LYS104      0.0035
     52  CD        -5.2900  -13.7420    2.4020 C.3   104  LYS104      0.0206
     53  CE        -5.1500  -12.5690    1.4410 C.3   104  LYS104      0.1093
     54  NZ        -4.5350  -11.3790    2.1250 N.3   104  LYS104     -0.1314
     55  N         -7.0780  -16.7400    4.2060 N.3   106  ASP106     -0.1239
     56  CA        -8.3620  -16.2720    4.7130 C.3   106  ASP106      0.1674
     57  C         -9.1560  -15.5940    3.5960 C.2   106  ASP106      0.2266
     58  O         -8.6170  -15.2410    2.5470 O.2   106  ASP106     -0.2867
     59  CB        -8.1860  -15.3150    5.9060 C.3   106  ASP106      0.1410
     60  CG        -7.6720  -13.9300    5.5070 C.2   106  ASP106      0.3668
     61  OD1       -8.4540  -13.1280    4.9280 O.co2 106  ASP106     -0.2456
     62  OD2       -6.4890  -13.6360    5.8240 O.co2 106  ASP106     -0.2456
     63  N         -1.0130  -17.6980    5.8990 N.3   143  LYS143     -0.1245
     64  CA        -1.3400  -16.5430    6.7210 C.3   143  LYS143      0.1561
     65  C         -2.8510  -16.3950    6.8040 C.2   143  LYS143      0.2260
     66  O         -3.5610  -16.6160    5.8150 O.2   143  LYS143     -0.2867
     67  CB        -0.7280  -15.2510    6.1640 C.3   143  LYS143      0.0271
     68  CG        -0.6260  -14.1400    7.2000 C.3   143  LYS143      0.0035
     69  CD        -0.8340  -12.7620    6.5710 C.3   143  LYS143      0.0206
     70  CE        -2.2870  -12.5180    6.2060 C.3   143  LYS143      0.1093
     71  NZ        -2.4950  -11.1230    5.6960 N.3   143  LYS143     -0.1314
     72  N         -5.5250  -13.4910    8.7290 N.3   145  ARG145     -0.1245
     73  CA        -5.5850  -12.2120    9.4360 C.3   145  ARG145      0.1563
     74  C         -6.9310  -12.0250   10.1290 C.2   145  ARG145      0.2260
     75  O         -7.9790  -11.9820    9.4730 O.2   145  ARG145     -0.2867
     76  CB        -5.3410  -11.0460    8.4830 C.3   145  ARG145      0.0307
     77  CG        -5.3790   -9.6820    9.1680 C.3   145  ARG145      0.0489
     78  CD        -4.7300   -8.6350    8.2920 C.3   145  ARG145      0.2205
     79  NE        -4.8510   -7.2900    8.8380 N.pl3 145  ARG145     -0.0865
     80  CZ        -5.7820   -6.4090    8.4890 C.cat 145  ARG145      0.5346
     81  NH1       -6.7040   -6.7120    7.5800 N.pl3 145  ARG145      0.1354
     82  NH2       -5.7830   -5.2080    9.0550 N.pl3 145  ARG145      0.1354
     83  N         -2.1990  -14.4040   12.9210 N.3   184  GLU184     -0.1245
     84  CA        -2.1750  -12.9390   12.8970 C.3   184  GLU184      0.1567
     85  C         -3.4140  -12.3740   13.5800 C.2   184  GLU184      0.2260
     86  O         -4.4430  -12.1310   12.9240 O.2   184  GLU184     -0.2867
     87  CB        -2.0740  -12.3850   11.4730 C.3   184  GLU184      0.0388
     88  CG        -2.1300  -10.8520   11.4400 C.3   184  GLU184      0.1160
     89  CD        -1.8290  -10.2450   10.0780 C.2   184  GLU184      0.3649
     90  OE1       -1.6430  -11.0120    9.1090 O.co2 184  GLU184     -0.2457
     91  OE2       -1.7950   -8.9890    9.9880 O.co2 184  GLU184     -0.2457
     92  N         -4.4440   -9.1160   14.6080 N.3   186  GLU186     -0.1245
     93  CA        -4.0280   -7.7240   14.5930 C.3   186  GLU186      0.1567
     94  C         -4.9660   -6.8720   15.4340 C.2   186  GLU186      0.2260
     95  O         -6.1810   -6.8930   15.2410 O.2   186  GLU186     -0.2867
     96  CB        -3.9760   -7.1610   13.1760 C.3   186  GLU186      0.0388
     97  CG        -3.7000   -5.6570   13.2140 C.3   186  GLU186      0.1160
     98  CD        -3.4030   -5.0460   11.8670 C.2   186  GLU186      0.3649
     99  OE1       -3.5370   -5.7440   10.8360 O.co2 186  GLU186     -0.2457
    100  OE2       -3.0390   -3.8470   11.8530 O.co2 186  GLU186     -0.2457
    101  N          2.1230  -13.3390   14.2680 N.3   226  LYS226     -0.1245
    102  CA         2.2360  -12.0480   13.5860 C.3   226  LYS226      0.1561
    103  C          1.3640  -11.0420   14.3270 C.2   226  LYS226      0.2260
    104  O          0.1890  -10.8370   13.9750 O.2   226  LYS226     -0.2867
    105  CB         1.8330  -12.1530   12.1120 C.3   226  LYS226      0.0271
    106  CG         1.8320  -10.8110   11.3780 C.3   226  LYS226      0.0035
    107  CD         1.7850  -10.9910    9.8650 C.3   226  LYS226      0.0206
    108  CE         1.8920   -9.6380    9.1560 C.3   226  LYS226      0.1093
    109  NZ         1.9710   -9.7590    7.6700 N.3   226  LYS226     -0.1314
    110  N          3.7780   -7.1890   12.2180 N.3   267  LEU267     -0.1231
    111  CA         3.1880   -6.4080   11.1460 C.3   267  LEU267      0.1693
    112  C          3.6030   -4.9530   11.3100 C.2   267  LEU267      0.2593
    113  O          3.8060   -4.4750   12.4270 O.2   267  LEU267     -0.2718
    114  CB         1.6650   -6.5400   11.1690 C.3   267  LEU267      0.0284
    115  CG         0.9690   -6.0990   12.4570 C.3   267  LEU267      0.0019
    116  CD1        0.5600   -4.6260   12.3940 C.3   267  LEU267      0.0001
    117  CD2       -0.2320   -6.9950   12.7590 C.3   267  LEU267      0.0001
    118  N          3.7530   -4.2480   10.1890 N.am  268  SER268     -0.1938
    119  CA         4.1230   -2.8370   10.2620 C.3   268  SER268      0.2055
    120  C          2.9190   -1.9250   10.4350 C.2   268  SER268      0.2643
    121  O          3.0720   -0.8130   10.9560 O.2   268  SER268     -0.2714
    122  CB         4.9070   -2.4020    9.0140 C.3   268  SER268      0.2130
    123  OG         4.1660   -2.6190    7.8180 O.3   268  SER268     -0.2179
    124  N          1.7320   -2.3670   10.0260 N.am  269  GLY269     -0.1954
    125  CA         0.5440   -1.5550   10.2350 C.3   269  GLY269      0.1869
    126  C          0.6590   -0.2540    9.4700 C.2   269  GLY269      0.2309
    127  O          0.9690   -0.2380    8.2740 O.2   269  GLY269     -0.2863
    128  N          7.3470   -9.0490    9.3690 N.3   297  SER297     -0.1217
    129  CA         6.5080   -9.4880    8.2500 C.3   297  SER297      0.1889
    130  C          5.8370   -8.2180    7.7320 C.2   297  SER297      0.2288
    131  O          4.7050   -7.9020    8.1010 O.2   297  SER297     -0.2866
    132  CB         5.4860  -10.5490    8.6670 C.3   297  SER297      0.2089
    133  OG         4.6380  -10.8800    7.5710 O.3   297  SER297     -0.2183
    134  N          4.5410   -5.3110    4.9230 N.3   299  GLY299     -0.1210
    135  CA         4.0000   -4.9510    3.6320 C.3   299  GLY299      0.1956
    136  C          4.4870   -3.5700    3.2390 C.2   299  GLY299      0.2611
    137  O          5.5340   -3.4150    2.5820 O.2   299  GLY299     -0.2717
    138  N          3.7740   -2.5460    3.6530 N.am  300  ARG300     -0.1979
    139  CA         4.1170   -1.1950    3.2950 C.3   300  ARG300      0.1597
    140  C          5.5000   -0.7890    3.7360 C.2   300  ARG300      0.2287
    141  O          6.1660   -0.0810    3.0400 O.2   300  ARG300     -0.2864
    142  CB         3.0730   -0.2070    3.7940 C.3   300  ARG300      0.0334
    143  CG         2.0060    0.0570    2.7460 C.3   300  ARG300      0.0492
    144  CD         0.8020    0.8240    3.2420 C.3   300  ARG300      0.2205
    145  NE         0.0020    0.0680    4.1910 N.pl3 300  ARG300     -0.0865
    146  CZ        -0.8490    0.6110    5.0460 C.cat 300  ARG300      0.5346
    147  NH1       -1.0050    1.9140    5.0780 N.pl3 300  ARG300      0.1354
    148  NH2       -1.5410   -0.1490    5.8590 N.pl3 300  ARG300      0.1354
@<TRIPOS>BOND
     1    38    37    2
     2    37    36    1
     3    36    35    1
     4    36    39    1
     5    25    26    2
     6    25    24    1
     7    39    40    1
     8    17    16    2
     9    24    27    1
    10    24    23    1
    11    29    30    1
    12    31    32    2
    13    31    30    1
    14    40    41    1
    15    16    23   am
    16    16    15    1
    17    27    28    1
    18    30    33    1
    19    21    20   ar
    20    18    15    1
    21    18    19    1
    22    41    42    1
    23    15    14    1
    24    42    43    2
    25    14     8   am
    26    20    19    1
    27    20    22   ar
    28    33    34    1
    29     8     7    1
    30     8     9    2
    31     7     6    1
    32     7    10    1
    33    43    44    1
    34    43    45    1
    35    10    11    1
    36    49    48    2
    37    53    54    1
    38    53    52    1
    39    46    47    1
    40     4     3    2
    41     3     2    1
    42    48    47    1
    43    50    47    1
    44    50    51    1
    45    11    12   ar
    46    11    13   ar
    47    52    51    1
    48    58    57    2
    49   137   136    2
    50   143   144    1
    51   143   142    1
    52     2     1    1
    53     2     5    1
    54   141   140    2
    55   136   135    1
    56   136   138   am
    57   144   145    1
    58   139   138    1
    59   139   140    1
    60   139   142    1
    61    57    56    1
    62   135   134    1
    63   145   146    2
    64    55    56    1
    65    56    59    1
    66    61    60   ar
    67   146   147    1
    68   146   148    1
    69    60    62   ar
    70    60    59    1
    71    71    70    1
    72    66    65    2
    73    63    64    1
    74    67    64    1
    75    67    68    1
    76    70    69    1
    77    69    68    1
    78    64    65    1
    79   133   132    1
    80    81    80    1
    81   109   108    1
    82   130   131    2
    83   130   129    1
    84   123   122    1
    85   129   132    1
    86   129   128    1
    87   127   126    2
    88    78    79    1
    89    78    77    1
    90    76    77    1
    91    76    73    1
    92    80    79    2
    93    80    82    1
    94    72    73    1
    95   122   119    1
    96    90    89   ar
    97   108   107    1
    98    73    74    1
    99   126   125    1
   100    75    74    2
   101   107   106    1
   102    91    89   ar
   103   124   125    1
   104   124   120   am
   105    89    88    1
   106   118   119    1
   107   118   112   am
   108   119   120    1
   109   120   121    2
   110    99    98   ar
   111   111   114    1
   112   111   112    1
   113   111   110    1
   114   114   115    1
   115   112   113    2
   116   106   105    1
   117    88    87    1
   118    87    84    1
   119   100    98   ar
   120    98    97    1
   121   105   102    1
   122   116   115    1
   123   115   117    1
   124    84    83    1
   125    84    85    1
   126    86    85    2
   127    96    97    1
   128    96    93    1
   129   102   101    1
   130   102   103    1
   131   104   103    2
   132    93    92    1
   133    93    94    1
   134    95    94    2
