@<TRIPOS>MOLECULE
tmp/5tm1A01.pdb
 153 140 0 0 0
SMALL
GASTEIGER

@<TRIPOS>ATOM
      1  N         25.7980   -8.9490    3.5950 N.3    32  MET32      -0.1245
      2  CA        25.8740   -7.6490    4.2500 C.3    32  MET32       0.1570
      3  C         26.4530   -6.6060    3.3030 C.2    32  MET32       0.2261
      4  O         26.0460   -5.4460    3.3180 O.2    32  MET32      -0.2867
      5  CB        26.7170   -7.7320    5.5240 C.3    32  MET32       0.0387
      6  CG        25.9980   -8.3290    6.7280 C.3    32  MET32       0.0595
      7  SD        24.8700   -7.1750    7.5400 S.3    32  MET32      -0.1393
      8  CE        23.3160   -7.5600    6.7360 C.3    32  MET32       0.0692
      9  N         23.7110   -5.4960    0.6160 N.3    35  LEU35      -0.1231
     10  CA        22.6550   -4.6650    1.1840 C.3    35  LEU35       0.1693
     11  C         23.1380   -3.2450    1.4600 C.2    35  LEU35       0.2592
     12  O         22.4540   -2.2760    1.1310 O.2    35  LEU35      -0.2718
     13  CB        22.1150   -5.2880    2.4730 C.3    35  LEU35       0.0284
     14  CG        21.4330   -6.6520    2.3520 C.3    35  LEU35       0.0019
     15  CD1       20.8390   -7.0720    3.6880 C.3    35  LEU35       0.0001
     16  CD2       20.3660   -6.6260    1.2700 C.3    35  LEU35       0.0001
     17  N         24.3150   -3.1260    2.0650 N.am   36  THR36      -0.1953
     18  CA        24.8640   -1.8210    2.4120 C.3    36  THR36       0.1897
     19  C         25.2920   -1.0470    1.1680 C.2    36  THR36       0.2313
     20  O         25.1870    0.1790    1.1260 O.2    36  THR36      -0.2863
     21  CB        26.0610   -1.9500    3.3700 C.3    36  THR36       0.1794
     22  OG1       27.0770   -2.7600    2.7660 O.3    36  THR36      -0.2208
     23  CG2       25.6210   -2.5850    4.6820 C.3    36  THR36       0.0378
     24  N         23.8150   -1.4080   -1.7880 N.3    38  LEU38      -0.1231
     25  CA        22.5410   -1.0180   -2.3760 C.3    38  LEU38       0.1693
     26  C         21.9240    0.1500   -1.6150 C.2    38  LEU38       0.2591
     27  O         21.3510    1.0610   -2.2130 O.2    38  LEU38      -0.2718
     28  CB        21.5770   -2.2060   -2.3940 C.3    38  LEU38       0.0284
     29  CG        20.1810   -1.9570   -2.9660 C.3    38  LEU38       0.0019
     30  CD1       20.2710   -1.5280   -4.4210 C.3    38  LEU38       0.0001
     31  CD2       19.3170   -3.2010   -2.8210 C.3    38  LEU38       0.0001
     32  N         22.0500    0.1170   -0.2920 N.am   39  ALA39      -0.1980
     33  CA        21.4930    1.1630    0.5590 C.3    39  ALA39       0.1597
     34  C         22.1990    2.4960    0.3350 C.2    39  ALA39       0.2287
     35  O         21.5660    3.5520    0.3410 O.2    39  ALA39      -0.2864
     36  CB        21.5810    0.7560    2.0230 C.3    39  ALA39       0.0319
     37  N         21.1820    4.0600   -2.9770 N.3    42  GLU42      -0.1245
     38  CA        19.8010    4.4610   -2.8150 C.3    42  GLU42       0.1567
     39  C         19.6510    5.7420   -2.0410 C.2    42  GLU42       0.2260
     40  O         18.7380    6.4540   -2.2650 O.2    42  GLU42      -0.2867
     41  CB        19.0020    3.3980   -2.1130 C.3    42  GLU42       0.0388
     42  CG        18.1910    2.5530   -3.0440 C.3    42  GLU42       0.1160
     43  CD        17.2440    1.6250   -2.3640 C.2    42  GLU42       0.3649
     44  OE1       17.6730    0.7820   -1.5860 O.co2  42  GLU42      -0.2457
     45  OE2       16.0640    1.7350   -2.6410 O.co2  42  GLU42      -0.2457
     46  N         16.4560    5.4140    7.2630 N.3    73  LEU73      -0.1245
     47  CA        16.2580    3.9700    7.3080 C.3    73  LEU73       0.1561
     48  C         14.7740    3.6200    7.2210 C.2    73  LEU73       0.2260
     49  O         14.4020    2.6090    6.6270 O.2    73  LEU73      -0.2867
     50  CB        16.8720    3.3800    8.5780 C.3    73  LEU73       0.0270
     51  CG        16.9340    1.8520    8.6270 C.3    73  LEU73       0.0019
     52  CD1       17.5770    1.3090    7.3600 C.3    73  LEU73       0.0001
     53  CD2       17.6940    1.3850    9.8570 C.3    73  LEU73       0.0001
     54  N         13.8680    3.9400    3.5450 N.3    76  LEU76      -0.1231
     55  CA        14.3700    2.7740    2.8240 C.3    76  LEU76       0.1693
     56  C         13.4720    1.5660    3.0560 C.2    76  LEU76       0.2591
     57  O         13.1410    0.8370    2.1210 O.2    76  LEU76      -0.2718
     58  CB        15.8020    2.4420    3.2510 C.3    76  LEU76       0.0284
     59  CG        16.9260    3.3500    2.7510 C.3    76  LEU76       0.0019
     60  CD1       18.2660    2.8800    3.2970 C.3    76  LEU76       0.0001
     61  CD2       16.9490    3.3860    1.2320 C.3    76  LEU76       0.0001
     62  N         13.0790    1.3640    4.3090 N.am   77  MET77      -0.1979
     63  CA        12.2980    0.1930    4.6880 C.3    77  MET77       0.1605
     64  C         10.9050    0.1850    4.0650 C.2    77  MET77       0.2287
     65  O         10.4710   -0.8340    3.5310 O.2    77  MET77      -0.2864
     66  CB        12.1940    0.0980    6.2120 C.3    77  MET77       0.0413
     67  CG        13.4490   -0.4500    6.8750 C.3    77  MET77       0.0598
     68  SD        13.3380   -0.4940    8.6730 S.3    77  MET77      -0.1393
     69  CE        14.8160   -1.4200    9.0840 C.3    77  MET77       0.0692
     70  N         11.1930   -0.6880    0.5120 N.3    80  LEU80      -0.1245
     71  CA        11.4300   -2.1200    0.3640 C.3    80  LEU80       0.1561
     72  C         10.1360   -2.9020    0.5470 C.2    80  LEU80       0.2260
     73  O          9.8210   -3.8040   -0.2310 O.2    80  LEU80      -0.2867
     74  CB        12.4770   -2.5930    1.3730 C.3    80  LEU80       0.0270
     75  CG        12.5980   -4.1020    1.5880 C.3    80  LEU80       0.0019
     76  CD1       13.0700   -4.7950    0.3190 C.3    80  LEU80       0.0001
     77  CD2       13.5320   -4.4050    2.7490 C.3    80  LEU80       0.0001
     78  N          7.9030   -2.4740   -2.4740 N.3    83  ARG83      -0.1245
     79  CA         8.3410   -3.2410   -3.6370 C.3    83  ARG83       0.1563
     80  C          8.0310   -4.7270   -3.4930 C.2    83  ARG83       0.2260
     81  O          7.9490   -5.4510   -4.4850 O.2    83  ARG83      -0.2867
     82  CB         9.8430   -3.0600   -3.8720 C.3    83  ARG83       0.0307
     83  CG        10.2530   -1.6710   -4.3180 C.3    83  ARG83       0.0489
     84  CD        11.6630   -1.6810   -4.8870 C.3    83  ARG83       0.2205
     85  NE        12.6380   -2.2200   -3.9430 N.pl3  83  ARG83      -0.0865
     86  CZ        13.3390   -1.4800   -3.0900 C.cat  83  ARG83       0.5346
     87  NH1       13.1750   -0.1640   -3.0590 N.pl3  83  ARG83       0.1354
     88  NH2       14.2050   -2.0540   -2.2660 N.pl3  83  ARG83       0.1354
     89  N         14.6820   -6.5020   -2.3820 N.3    93  PHE93      -0.1241
     90  CA        15.6780   -5.4520   -2.2090 C.3    93  PHE93       0.1605
     91  C         16.0280   -4.8560   -3.5630 C.2    93  PHE93       0.2264
     92  O         16.1700   -3.6420   -3.7110 O.2    93  PHE93      -0.2867
     93  CB        16.9320   -5.9980   -1.5230 C.3    93  PHE93       0.0534
     94  CG        16.7240   -6.3700   -0.0830 C.ar   93  PHE93      -0.0203
     95  CD1       16.9800   -5.4550    0.9250 C.ar   93  PHE93      -0.0042
     96  CD2       16.2710   -7.6320    0.2640 C.ar   93  PHE93      -0.0042
     97  CE1       16.7910   -5.7920    2.2520 C.ar   93  PHE93      -0.0003
     98  CE2       16.0780   -7.9750    1.5890 C.ar   93  PHE93      -0.0003
     99  CZ        16.3380   -7.0530    2.5850 C.ar   93  PHE93      -0.0000
    100  N         19.3960  -10.9390   11.8270 N.3   110  MET110     -0.1245
    101  CA        18.7780  -10.3250   10.6600 C.3   110  MET110      0.1570
    102  C         17.3960  -10.9180   10.3950 C.2   110  MET110      0.2261
    103  O         16.5380  -10.2740    9.7930 O.2   110  MET110     -0.2867
    104  CB        19.6730  -10.4990    9.4300 C.3   110  MET110      0.0387
    105  CG        19.2990   -9.6180    8.2500 C.3   110  MET110      0.0595
    106  SD        19.5440   -7.8660    8.5930 S.3   110  MET110     -0.1393
    107  CE        18.9800   -7.1370    7.0580 C.3   110  MET110      0.0692
    108  N         14.4610   -8.9040   12.0040 N.3   113  ILE113     -0.1245
    109  CA        14.1020   -7.7180   11.2370 C.3   113  ILE113      0.1561
    110  C         13.3910   -8.1240    9.9500 C.2   113  ILE113      0.2260
    111  O         12.4710   -7.4440    9.4940 O.2   113  ILE113     -0.2867
    112  CB        15.3420   -6.8670   10.9000 C.3   113  ILE113      0.0252
    113  CG1       16.1490   -6.5820   12.1690 C.3   113  ILE113      0.0019
    114  CG2       14.9350   -5.5680   10.2200 C.3   113  ILE113      0.0019
    115  CD1       17.3880   -5.7460   11.9310 C.3   113  ILE113      0.0001
    116  N          9.6920   -6.9430    8.6110 N.3   117  LEU117     -0.1245
    117  CA         9.5590   -6.3610    7.2800 C.3   117  LEU117      0.1561
    118  C          8.5530   -7.1390    6.4390 C.2   117  LEU117      0.2260
    119  O          7.7670   -6.5520    5.6950 O.2   117  LEU117     -0.2867
    120  CB        10.9160   -6.3200    6.5730 C.3   117  LEU117      0.0270
    121  CG        11.9260   -5.2890    7.0780 C.3   117  LEU117      0.0019
    122  CD1       13.2850   -5.5190    6.4400 C.3   117  LEU117      0.0001
    123  CD2       11.4330   -3.8780    6.7930 C.3   117  LEU117      0.0001
    124  N         16.9160   -1.9480   13.4050 N.3   198  GLY198     -0.1225
    125  CA        17.8730   -2.0520   12.3200 C.3   198  GLY198      0.1811
    126  C         19.0410   -1.1040   12.5070 C.2   198  GLY198      0.2280
    127  O         20.1360   -1.3440   11.9980 O.2   198  GLY198     -0.2866
    128  N         21.4790   -2.7350   15.0820 N.3   201  HIS201     -0.1226
    129  CA        22.0700   -3.9260   14.4830 C.3   201  HIS201      0.1752
    130  C         23.1430   -3.5370   13.4720 C.2   201  HIS201      0.2595
    131  O         24.1030   -4.2750   13.2530 O.2   201  HIS201     -0.2718
    132  CB        20.9960   -4.7840   13.8110 C.3   201  HIS201      0.0759
    133  CG        21.5270   -6.0330   13.1770 C.ar  201  HIS201      0.0818
    134  ND1       21.9880   -6.0710   11.8790 N.ar  201  HIS201     -0.2268
    135  CD2       21.6670   -7.2900   13.6630 C.ar  201  HIS201      0.1154
    136  CE1       22.3910   -7.2960   11.5920 C.ar  201  HIS201      0.1986
    137  NE2       22.2080   -8.0550   12.6570 N.ar  201  HIS201     -0.2212
    138  N         22.9710   -2.3690   12.8630 N.am  202  LEU202     -0.1980
    139  CA        23.9170   -1.8740   11.8720 C.3   202  LEU202      0.1596
    140  C         25.1180   -1.2190   12.5460 C.2   202  LEU202      0.2287
    141  O         26.2310   -1.2470   12.0190 O.2   202  LEU202     -0.2864
    142  CB        23.2270   -0.8860   10.9290 C.3   202  LEU202      0.0297
    143  CG        24.0070   -0.4130    9.7020 C.3   202  LEU202      0.0022
    144  CD1       24.5180   -1.5990    8.9010 C.3   202  LEU202      0.0001
    145  CD2       23.1310    0.4790    8.8370 C.3   202  LEU202      0.0001
    146  N         27.5450   -3.9290   13.5740 N.3   205  MET205     -0.1245
    147  CA        28.2930   -4.4090   12.4180 C.3   205  MET205      0.1570
    148  C         29.3880   -3.4210   12.0350 C.2   205  MET205      0.2261
    149  O         30.4150   -3.8040   11.4740 O.2   205  MET205     -0.2867
    150  CB        27.3580   -4.6480   11.2300 C.3   205  MET205      0.0387
    151  CG        26.4270   -5.8360   11.4010 C.3   205  MET205      0.0595
    152  SD        27.3190   -7.3980   11.5210 S.3   205  MET205     -0.1393
    153  CE        25.9680   -8.5430   11.7810 C.3   205  MET205      0.0692
@<TRIPOS>BOND
     1    84    83    1
     2    84    85    1
     3    81    80    2
     4    30    29    1
     5    83    82    1
     6    85    86    2
     7    82    79    1
     8    92    91    2
     9    79    80    1
    10    79    78    1
    11    91    90    1
    12    86    87    1
    13    86    88    1
    14    42    43    1
    15    42    41    1
    16    37    38    1
    17    29    31    1
    18    29    28    1
    19    38    41    1
    20    38    39    1
    21    45    43   ar
    22    28    25    1
    23    89    90    1
    24    25    24    1
    25    25    26    1
    26    43    44   ar
    27    40    39    2
    28    27    26    2
    29    90    93    1
    30    26    32   am
    31    93    94    1
    32    32    33    1
    33    73    72    2
    34    94    96   ar
    35    94    95   ar
    36    96    98   ar
    37    76    75    1
    38    34    35    2
    39    34    33    1
    40    71    70    1
    41    71    72    1
    42    71    74    1
    43    33    36    1
    44     9    10    1
    45    95    97   ar
    46    20    19    2
    47    12    11    2
    48    19    18    1
    49    10    11    1
    50    10    13    1
    51    61    59    1
    52    16    14    1
    53    74    75    1
    54    11    17   am
    55    75    77    1
    56    98    99   ar
    57    17    18    1
    58    57    56    2
    59    97    99   ar
    60    14    13    1
    61    14    15    1
    62    18    21    1
    63    59    58    1
    64    59    60    1
    65    22    21    1
    66    55    56    1
    67    55    58    1
    68    55    54    1
    69    56    62   am
    70     3     4    2
    71     3     2    1
    72    21    23    1
    73    65    64    2
    74     1     2    1
    75    64    63    1
    76     2     5    1
    77    62    63    1
    78    63    66    1
    79     5     6    1
    80   119   118    2
    81    66    67    1
    82   118   117    1
    83   122   121    1
    84   120   121    1
    85   120   117    1
    86    49    48    2
    87     6     7    1
    88     8     7    1
    89   123   121    1
    90    67    68    1
    91   107   106    1
    92    48    47    1
    93    46    47    1
    94   117   116    1
    95    47    50    1
    96    52    51    1
    97   105   106    1
    98   105   104    1
    99    50    51    1
   100    51    53    1
   101    68    69    1
   102   145   143    1
   103   144   143    1
   104   104   101    1
   105   111   110    2
   106   143   142    1
   107   103   102    2
   108   110   109    1
   109   114   112    1
   110   102   101    1
   111   101   100    1
   112   112   109    1
   113   112   113    1
   114   142   139    1
   115   150   151    1
   116   150   147    1
   117   109   108    1
   118   151   152    1
   119   149   148    2
   120   152   153    1
   121   136   134   ar
   122   136   137   ar
   123   139   140    1
   124   139   138    1
   125   134   133   ar
   126   115   113    1
   127   127   126    2
   128   141   140    2
   129   148   147    1
   130   125   126    1
   131   125   124    1
   132   147   146    1
   133   137   135   ar
   134   138   130   am
   135   133   135   ar
   136   133   132    1
   137   131   130    2
   138   130   129    1
   139   132   129    1
   140   129   128    1
