@<TRIPOS>MOLECULE
tmp/5tm2B01.pdb
 159 149 0 0 0
SMALL
GASTEIGER

@<TRIPOS>ATOM
      1  N         12.7240    6.1750   40.0050 N.3    39  LEU39      -0.1231
      2  CA        11.9870    5.9870   38.7600 C.3    39  LEU39       0.1693
      3  C         11.6720    4.5160   38.5220 C.2    39  LEU39       0.2592
      4  O         10.6000    4.1800   38.0040 O.2    39  LEU39      -0.2718
      5  CB        12.7800    6.5590   37.5840 C.3    39  LEU39       0.0284
      6  CG        13.1060    8.0540   37.6140 C.3    39  LEU39       0.0019
      7  CD1       13.7190    8.4960   36.2920 C.3    39  LEU39       0.0001
      8  CD2       11.8670    8.8720   37.9360 C.3    39  LEU39       0.0001
      9  N         12.5920    3.6240   38.8970 N.am   40  THR40      -0.1953
     10  CA        12.3690    2.1970   38.6920 C.3    40  THR40       0.1897
     11  C         11.3340    1.6540   39.6700 C.2    40  THR40       0.2313
     12  O         10.4640    0.8640   39.2860 O.2    40  THR40      -0.2863
     13  CB        13.6870    1.4350   38.8300 C.3    40  THR40       0.1794
     14  OG1       14.6870    2.0550   38.0120 O.3    40  THR40      -0.2208
     15  CG2       13.5140   -0.0140   38.3940 C.3    40  THR40       0.0378
     16  N          8.9540    3.3640   41.0780 N.3    42  LEU42      -0.1231
     17  CA         7.6610    3.9070   40.6760 C.3    42  LEU42       0.1693
     18  C          7.1000    3.1610   39.4720 C.2    42  LEU42       0.2591
     19  O          5.9050    2.8450   39.4310 O.2    42  LEU42      -0.2718
     20  CB         7.7920    5.3990   40.3690 C.3    42  LEU42       0.0284
     21  CG         6.5180    6.1190   39.9260 C.3    42  LEU42       0.0019
     22  CD1        5.4960    6.1500   41.0510 C.3    42  LEU42       0.0001
     23  CD2        6.8370    7.5270   39.4470 C.3    42  LEU42       0.0001
     24  N          7.9450    2.8690   38.4810 N.am   43  ALA43      -0.1980
     25  CA         7.4770    2.1500   37.3020 C.3    43  ALA43       0.1597
     26  C          7.0590    0.7270   37.6450 C.2    43  ALA43       0.2287
     27  O          6.1230    0.1930   37.0400 O.2    43  ALA43      -0.2864
     28  CB         8.5610    2.1410   36.2240 C.3    43  ALA43       0.0319
     29  N          3.6210    0.8190   39.1680 N.3    46  GLU46      -0.1245
     30  CA         2.6230    1.1780   38.1670 C.3    46  GLU46       0.1567
     31  C          2.3150    0.0150   37.2350 C.2    46  GLU46       0.2260
     32  O          1.1960   -0.0800   36.7150 O.2    46  GLU46      -0.2867
     33  CB         3.0950    2.3890   37.3660 C.3    46  GLU46       0.0388
     34  CG         2.8800    3.7180   38.0610 C.3    46  GLU46       0.1160
     35  CD         3.4800    4.8700   37.2860 C.2    46  GLU46       0.3649
     36  OE1        4.7080    4.8530   37.0650 O.co2  46  GLU46      -0.2457
     37  OE2        2.7250    5.7810   36.8840 O.co2  46  GLU46      -0.2457
     38  N          4.6230   -1.8590   27.4930 N.3    76  TRP76      -0.1227
     39  CA         4.5030   -1.3920   28.8710 C.3    76  TRP76       0.1737
     40  C          5.1710   -0.0350   29.0610 C.2    76  TRP76       0.2595
     41  O          4.6300    0.8400   29.7470 O.2    76  TRP76      -0.2718
     42  CB         5.0930   -2.4240   29.8350 C.3    76  TRP76       0.0564
     43  CG         6.5630   -2.6580   29.6600 C.ar   76  TRP76       0.0003
     44  CD1        7.1580   -3.5270   28.7940 C.ar   76  TRP76       0.0946
     45  CD2        7.6240   -2.0130   30.3740 C.ar   76  TRP76       0.0152
     46  NE1        8.5240   -3.4620   28.9220 N.ar   76  TRP76      -0.2442
     47  CE2        8.8360   -2.5400   29.8860 C.ar   76  TRP76       0.0810
     48  CE3        7.6680   -1.0410   31.3780 C.ar   76  TRP76       0.0012
     49  CZ2       10.0780   -2.1280   30.3670 C.ar   76  TRP76       0.0191
     50  CZ3        8.9010   -0.6330   31.8550 C.ar   76  TRP76       0.0001
     51  CH2       10.0890   -1.1760   31.3490 C.ar   76  TRP76       0.0015
     52  N          6.3450    0.1650   28.4570 N.am   77  LEU77      -0.1980
     53  CA         7.0200    1.4510   28.5870 C.3    77  LEU77       0.1596
     54  C          6.3000    2.5410   27.8020 C.2    77  LEU77       0.2287
     55  O          6.2980    3.7040   28.2190 O.2    77  LEU77      -0.2864
     56  CB         8.4760    1.3330   28.1360 C.3    77  LEU77       0.0297
     57  CG         9.3610    2.5640   28.3550 C.3    77  LEU77       0.0022
     58  CD1        9.2660    3.0510   29.7940 C.3    77  LEU77       0.0001
     59  CD2       10.8060    2.2640   27.9850 C.3    77  LEU77       0.0001
     60  N          3.5120    3.6750   30.0330 N.3    80  LEU80      -0.1231
     61  CA         4.0380    4.4730   31.1360 C.3    80  LEU80       0.1693
     62  C          4.4190    5.8740   30.6780 C.2    80  LEU80       0.2591
     63  O          4.2030    6.8520   31.4030 O.2    80  LEU80      -0.2718
     64  CB         5.2460    3.7760   31.7620 C.3    80  LEU80       0.0284
     65  CG         4.9830    2.5240   32.6000 C.3    80  LEU80       0.0019
     66  CD1        6.2930    1.8950   33.0460 C.3    80  LEU80       0.0001
     67  CD2        4.1120    2.8600   33.8000 C.3    80  LEU80       0.0001
     68  N          4.9860    5.9960   29.4750 N.am   81  MET81      -0.1979
     69  CA         5.4540    7.3000   29.0150 C.3    81  MET81       0.1605
     70  C          4.2890    8.2020   28.6190 C.2    81  MET81       0.2287
     71  O          4.2520    9.3790   28.9970 O.2    81  MET81      -0.2864
     72  CB         6.4340    7.1290   27.8530 C.3    81  MET81       0.0413
     73  CG         7.7470    6.4840   28.2610 C.3    81  MET81       0.0598
     74  SD         8.9660    6.4520   26.9340 S.3    81  MET81      -0.1393
     75  CE         7.9450    5.8770   25.5850 C.3    81  MET81       0.0692
     76  N          2.9000    9.4700   31.7100 N.3    84  LEU84      -0.1245
     77  CA         3.7370   10.5470   32.2300 C.3    84  LEU84       0.1561
     78  C          3.5600   11.8210   31.4160 C.2    84  LEU84       0.2260
     79  O          3.4410   12.9170   31.9780 O.2    84  LEU84      -0.2867
     80  CB         5.2030   10.1150   32.2270 C.3    84  LEU84       0.0270
     81  CG         6.2340   11.2370   32.3530 C.3    84  LEU84       0.0019
     82  CD1        6.1890   11.8530   33.7410 C.3    84  LEU84       0.0001
     83  CD2        7.6310   10.7320   32.0240 C.3    84  LEU84       0.0001
     84  N          0.2050   13.3260   32.4690 N.3    87  ARG87      -0.1245
     85  CA         0.2260   13.9530   33.7860 C.3    87  ARG87       0.1563
     86  C          1.0340   15.2440   33.7960 C.2    87  ARG87       0.2260
     87  O          0.8120   16.0940   34.6650 O.2    87  ARG87      -0.2867
     88  CB         0.7980   12.9830   34.8300 C.3    87  ARG87       0.0307
     89  CG         0.0290   11.6880   34.9870 C.3    87  ARG87       0.0489
     90  CD         0.4730   10.9360   36.2350 C.3    87  ARG87       0.2205
     91  NE         1.9100   10.6680   36.2530 N.pl3  87  ARG87      -0.0865
     92  CZ         2.4660    9.5310   35.8420 C.cat  87  ARG87       0.5346
     93  NH1        1.7050    8.5490   35.3780 N.pl3  87  ARG87       0.1354
     94  NH2        3.7830    9.3740   35.8960 N.pl3  87  ARG87       0.1354
     95  N          6.4840   12.9600   37.1450 N.3    97  PHE97      -0.1241
     96  CA         6.5360   11.5210   37.3840 C.3    97  PHE97       0.1605
     97  C          5.5760   11.1200   38.4960 C.2    97  PHE97       0.2264
     98  O          4.9200   10.0740   38.4170 O.2    97  PHE97      -0.2867
     99  CB         7.9640   11.0940   37.7300 C.3    97  PHE97       0.0534
    100  CG         8.9090   11.1240   36.5610 C.ar   97  PHE97      -0.0203
    101  CD1        9.6350   12.2660   36.2650 C.ar   97  PHE97      -0.0042
    102  CD2        9.0740   10.0050   35.7600 C.ar   97  PHE97      -0.0042
    103  CE1       10.5060   12.2930   35.1900 C.ar   97  PHE97      -0.0003
    104  CE2        9.9430   10.0260   34.6840 C.ar   97  PHE97      -0.0003
    105  CZ        10.6600   11.1710   34.3980 C.ar   97  PHE97      -0.0000
    106  N         19.8170   10.1750   29.2410 N.3   114  MET114     -0.1245
    107  CA        18.3810   10.3250   29.4210 C.3   114  MET114      0.1570
    108  C         17.8720   11.7080   29.0440 C.2   114  MET114      0.2261
    109  O         16.6560   11.8760   28.9190 O.2   114  MET114     -0.2867
    110  CB        18.0030   10.0170   30.8690 C.3   114  MET114      0.0387
    111  CG        18.0910    8.5350   31.1650 C.3   114  MET114      0.0595
    112  SD        16.8760    7.5330   30.2560 S.3   114  MET114     -0.1393
    113  CE        15.4850    7.7870   31.3320 C.3   114  MET114      0.0692
    114  N         15.9500   11.4860   25.9060 N.3   117  ILE117     -0.1245
    115  CA        14.6350   10.9430   26.2310 C.3   117  ILE117      0.1561
    116  C         13.8320   11.9540   27.0410 C.2   117  ILE117      0.2260
    117  O         12.6110   12.0720   26.8770 O.2   117  ILE117     -0.2867
    118  CB        14.7830    9.6010   26.9730 C.3   117  ILE117      0.0252
    119  CG1       15.4020    8.5480   26.0510 C.3   117  ILE117      0.0019
    120  CG2       13.4400    9.1210   27.5060 C.3   117  ILE117      0.0019
    121  CD1       15.5850    7.1950   26.7060 C.3   117  ILE117      0.0001
    122  N         10.3050   13.5340   25.8140 N.3   121  LEU121     -0.1245
    123  CA         9.0960   13.4670   26.6270 C.3   121  LEU121      0.1561
    124  C          8.5150   14.8570   26.8560 C.2   121  LEU121      0.2260
    125  O          7.2910   15.0360   26.8480 O.2   121  LEU121     -0.2867
    126  CB         9.3960   12.7800   27.9600 C.3   121  LEU121      0.0270
    127  CG         9.6930   11.2790   27.9000 C.3   121  LEU121      0.0019
    128  CD1       10.2700   10.7890   29.2180 C.3   121  LEU121      0.0001
    129  CD2        8.4360   10.5000   27.5410 C.3   121  LEU121      0.0001
    130  N         14.2990    4.0260   25.3560 N.3   208  GLY208     -0.1225
    131  CA        14.2800    3.7100   26.7740 C.3   208  GLY208      0.1811
    132  C         14.7560    2.2990   27.0620 C.2   208  GLY208      0.2280
    133  O         15.4560    2.0620   28.0500 O.2   208  GLY208     -0.2866
    134  N         18.6210    2.0730   26.8320 N.3   211  HIS211     -0.1226
    135  CA        19.2630    2.6120   28.0250 C.3   211  HIS211      0.1752
    136  C         18.9830    1.7550   29.2510 C.2   211  HIS211      0.2595
    137  O         19.8330    1.6630   30.1440 O.2   211  HIS211     -0.2718
    138  CB        18.8010    4.0490   28.2730 C.3   211  HIS211      0.0759
    139  CG        19.6780    4.8160   29.2170 C.ar  211  HIS211      0.0818
    140  ND1       20.2240    4.2590   30.3550 N.ar  211  HIS211     -0.2268
    141  CD2       20.1080    6.0990   29.1860 C.ar  211  HIS211      0.1154
    142  CE1       20.9490    5.1670   30.9850 C.ar  211  HIS211      0.1986
    143  NE2       20.8950    6.2920   30.2950 N.ar  211  HIS211     -0.2212
    144  N         17.8060    1.1310   29.3180 N.am  212  LEU212     -0.1980
    145  CA        17.5080    0.2460   30.4360 C.3   212  LEU212      0.1596
    146  C         18.3060   -1.0480   30.3700 C.2   212  LEU212      0.2287
    147  O         18.4750   -1.7090   31.4000 O.2   212  LEU212     -0.2864
    148  CB        16.0110   -0.0630   30.4820 C.3   212  LEU212      0.0297
    149  CG        15.1470    0.9670   31.2120 C.3   212  LEU212      0.0022
    150  CD1       13.6860    0.5750   31.0760 C.3   212  LEU212      0.0001
    151  CD2       15.4860    0.9550   32.7010 C.3   212  LEU212      0.0001
    152  N         10.0310   -5.9570   36.2500 N.3   225  LEU225     -0.1245
    153  CA        10.5720   -5.0980   35.2040 C.3   225  LEU225      0.1561
    154  C         11.7590   -5.7490   34.5050 C.2   225  LEU225      0.2260
    155  O         11.9650   -5.5310   33.3060 O.2   225  LEU225     -0.2867
    156  CB        10.9650   -3.7420   35.7940 C.3   225  LEU225      0.0270
    157  CG        11.1940   -2.5770   34.8280 C.3   225  LEU225      0.0019
    158  CD1       10.7600   -1.2700   35.4700 C.3   225  LEU225      0.0001
    159  CD2       12.6520   -2.4940   34.4010 C.3   225  LEU225      0.0001
@<TRIPOS>BOND
     1   130   131    1
     2    75    74    1
     3   122   123    1
     4   114   115    1
     5   119   121    1
     6   119   118    1
     7   115   118    1
     8   115   116    1
     9   123   124    1
    10   123   126    1
    11   131   132    1
    12   134   135    1
    13   125   124    2
    14   117   116    2
    15    74    73    1
    16   118   120    1
    17   132   133    2
    18    38    39    1
    19   129   127    1
    20    54    55    2
    21    54    53    1
    22    72    73    1
    23    72    69    1
    24   127   126    1
    25   127   128    1
    26    59    57    1
    27   135   138    1
    28   135   136    1
    29    56    57    1
    30    56    53    1
    31   138   139    1
    32    57    58    1
    33    52    53    1
    34    52    40   am
    35    70    71    2
    36    70    69    1
    37    44    46   ar
    38    44    43   ar
    39    39    40    1
    40    39    42    1
    41   109   108    2
    42    46    47   ar
    43    69    68    1
    44   108   107    1
    45    40    41    2
    46   141   139   ar
    47   141   143   ar
    48   139   140   ar
    49   106   107    1
    50   136   144   am
    51   136   137    2
    52   144   145    1
    53   107   110    1
    54    68    62   am
    55    43    42    1
    56    43    45   ar
    57    47    49   ar
    58    47    45   ar
    59    60    61    1
    60   112   111    1
    61   112   113    1
    62   143   142   ar
    63   140   142   ar
    64    49    51   ar
    65   146   145    1
    66   146   147    2
    67    45    48   ar
    68   145   148    1
    69   148   149    1
    70    62    61    1
    71    62    63    2
    72   110   111    1
    73   150   149    1
    74    61    64    1
    75   149   151    1
    76    51    50   ar
    77    48    50   ar
    78    78    79    2
    79    78    77    1
    80    76    77    1
    81    64    65    1
    82    83    81    1
    83    80    77    1
    84    80    81    1
    85    81    82    1
    86    84    85    1
    87    65    66    1
    88    65    67    1
    89   155   154    2
    90    85    86    1
    91    85    88    1
    92    86    87    2
    93   105   104   ar
    94   105   103   ar
    95   159   157    1
    96   154   153    1
    97   104   102   ar
    98   157   158    1
    99   157   156    1
   100    88    89    1
   101    89    90    1
   102   103   101   ar
   103   153   156    1
   104   153   152    1
   105    93    92    1
   106   102   100   ar
   107    92    94    1
   108    92    91    2
   109    28    25    1
   110    90    91    1
   111   101   100   ar
   112     7     6    1
   113   100    99    1
   114    32    31    2
   115    37    35   ar
   116    27    26    2
   117    36    35   ar
   118    95    96    1
   119    31    30    1
   120    35    34    1
   121    25    26    1
   122    25    24    1
   123    33    34    1
   124    33    30    1
   125    96    99    1
   126    96    97    1
   127     5     6    1
   128     5     2    1
   129     6     8    1
   130     4     3    2
   131    14    13    1
   132    30    29    1
   133    15    13    1
   134    98    97    2
   135    24    18   am
   136     3     2    1
   137     3     9   am
   138    10    13    1
   139    10     9    1
   140    10    11    1
   141     2     1    1
   142    12    11    2
   143    19    18    2
   144    23    21    1
   145    18    17    1
   146    21    20    1
   147    21    22    1
   148    20    17    1
   149    17    16    1
