@<TRIPOS>MOLECULE
tmp/5tm2A01.pdb
 175 163 0 0 0
SMALL
GASTEIGER

@<TRIPOS>ATOM
      1  N         26.0100   -8.9230    3.5040 N.3    32  MET32      -0.1245
      2  CA        26.0680   -7.5960    4.1110 C.3    32  MET32       0.1570
      3  C         26.6870   -6.5770    3.1650 C.2    32  MET32       0.2261
      4  O         26.2740   -5.4110    3.1410 O.2    32  MET32      -0.2867
      5  CB        26.8640   -7.6420    5.4140 C.3    32  MET32       0.0387
      6  CG        26.0940   -8.1750    6.6040 C.3    32  MET32       0.0595
      7  SD        24.5110   -7.3530    6.8800 S.3    32  MET32      -0.1393
      8  CE        23.7660   -8.4710    8.0680 C.3    32  MET32       0.0692
      9  N         23.8860   -5.5490    0.5310 N.3    35  LEU35      -0.1231
     10  CA        22.7790   -4.7270    1.0180 C.3    35  LEU35       0.1693
     11  C         23.2400   -3.3170    1.3700 C.2    35  LEU35       0.2592
     12  O         22.5490   -2.3390    1.0610 O.2    35  LEU35      -0.2718
     13  CB        22.1160   -5.3910    2.2250 C.3    35  LEU35       0.0284
     14  CG        21.3520   -6.6870    1.9460 C.3    35  LEU35       0.0019
     15  CD1       20.6010   -7.1500    3.1850 C.3    35  LEU35       0.0001
     16  CD2       20.4010   -6.5100    0.7730 C.3    35  LEU35       0.0001
     17  N         24.3970   -3.1890    2.0230 N.am   36  THR36      -0.1953
     18  CA        24.8930   -1.8620    2.3750 C.3    36  THR36       0.1897
     19  C         25.3320   -1.0820    1.1410 C.2    36  THR36       0.2313
     20  O         25.1730    0.1440    1.0970 O.2    36  THR36      -0.2863
     21  CB        26.0450   -1.9710    3.3750 C.3    36  THR36       0.1794
     22  OG1       27.1120   -2.7350    2.8000 O.3    36  THR36      -0.2208
     23  CG2       25.5740   -2.6490    4.6550 C.3    36  THR36       0.0378
     24  N         23.9150   -1.4640   -1.8360 N.3    38  LEU38      -0.1231
     25  CA        22.6540   -1.0700   -2.4550 C.3    38  LEU38       0.1693
     26  C         22.0130    0.0920   -1.7070 C.2    38  LEU38       0.2591
     27  O         21.5100    1.0370   -2.3280 O.2    38  LEU38      -0.2718
     28  CB        21.7020   -2.2640   -2.5070 C.3    38  LEU38       0.0284
     29  CG        20.2360   -1.9610   -2.8260 C.3    38  LEU38       0.0019
     30  CD1       20.0790   -1.4400   -4.2490 C.3    38  LEU38       0.0001
     31  CD2       19.3690   -3.1920   -2.5970 C.3    38  LEU38       0.0001
     32  N         22.0190    0.0410   -0.3730 N.am   39  ALA39      -0.1980
     33  CA        21.4310    1.1200    0.4090 C.3    39  ALA39       0.1597
     34  C         22.2050    2.4220    0.2440 C.2    39  ALA39       0.2287
     35  O         21.6150    3.5050    0.3280 O.2    39  ALA39      -0.2864
     36  CB        21.3630    0.7230    1.8840 C.3    39  ALA39       0.0319
     37  N         21.0510    3.9690   -2.8940 N.3    42  GLU42      -0.1245
     38  CA        19.6830    4.4490   -2.7310 C.3    42  GLU42       0.1567
     39  C         19.6290    5.7320   -1.9140 C.2    42  GLU42       0.2260
     40  O         18.7020    6.5330   -2.0830 O.2    42  GLU42      -0.2867
     41  CB        18.8190    3.3700   -2.0800 C.3    42  GLU42       0.0388
     42  CG        18.4260    2.2350   -3.0120 C.3    42  GLU42       0.1160
     43  CD        17.5730    1.1880   -2.3210 C.2    42  GLU42       0.3649
     44  OE1       18.1170    0.4300   -1.4920 O.co2  42  GLU42      -0.2457
     45  OE2       16.3560    1.1350   -2.5960 O.co2  42  GLU42      -0.2457
     46  N         16.0550    8.0170    7.3060 N.3    72  TRP72      -0.1227
     47  CA        16.6020    7.4050    6.0960 C.3    72  TRP72       0.1737
     48  C         16.3690    5.8980    6.0780 C.2    72  TRP72       0.2595
     49  O         16.0880    5.3200    5.0220 O.2    72  TRP72      -0.2718
     50  CB        18.0930    7.7200    5.9620 C.3    72  TRP72       0.0564
     51  CG        18.9610    7.0900    7.0130 C.ar   72  TRP72       0.0003
     52  CD1       19.3660    7.6560    8.1850 C.ar   72  TRP72       0.0946
     53  CD2       19.5400    5.7780    6.9800 C.ar   72  TRP72       0.0152
     54  NE1       20.1570    6.7790    8.8860 N.ar   72  TRP72      -0.2442
     55  CE2       20.2780    5.6170    8.1690 C.ar   72  TRP72       0.0810
     56  CE3       19.5030    4.7230    6.0620 C.ar   72  TRP72       0.0012
     57  CZ2       20.9730    4.4460    8.4650 C.ar   72  TRP72       0.0191
     58  CZ3       20.1920    3.5600    6.3580 C.ar   72  TRP72       0.0001
     59  CH2       20.9180    3.4310    7.5500 C.ar   72  TRP72       0.0015
     60  N         16.4780    5.2430    7.2370 N.am   73  LEU73      -0.1980
     61  CA        16.2520    3.8020    7.2770 C.3    73  LEU73       0.1596
     62  C         14.7680    3.4700    7.1920 C.2    73  LEU73       0.2287
     63  O         14.3980    2.4350    6.6260 O.2    73  LEU73      -0.2864
     64  CB        16.8680    3.2050    8.5430 C.3    73  LEU73       0.0297
     65  CG        16.8420    1.6770    8.6420 C.3    73  LEU73       0.0022
     66  CD1       17.4020    1.0490    7.3750 C.3    73  LEU73       0.0001
     67  CD2       17.6150    1.1970    9.8630 C.3    73  LEU73       0.0001
     68  N         13.8550    3.5990    3.5030 N.3    76  LEU76      -0.1231
     69  CA        14.3390    2.4200    2.7910 C.3    76  LEU76       0.1693
     70  C         13.4950    1.1900    3.0950 C.2    76  LEU76       0.2591
     71  O         13.3480    0.3130    2.2350 O.2    76  LEU76      -0.2718
     72  CB        15.8010    2.1490    3.1470 C.3    76  LEU76       0.0284
     73  CG        16.8470    3.1450    2.6420 C.3    76  LEU76       0.0019
     74  CD1       18.2390    2.7420    3.1090 C.3    76  LEU76       0.0001
     75  CD2       16.8000    3.2530    1.1250 C.3    76  LEU76       0.0001
     76  N         12.9330    1.1040    4.3010 N.am   77  MET77      -0.1979
     77  CA        12.1600   -0.0750    4.6660 C.3    77  MET77       0.1605
     78  C         10.7610   -0.0460    4.0570 C.2    77  MET77       0.2287
     79  O         10.2960   -1.0640    3.5280 O.2    77  MET77      -0.2864
     80  CB        12.0930   -0.2020    6.1880 C.3    77  MET77       0.0413
     81  CG        13.4150   -0.6320    6.8170 C.3    77  MET77       0.0598
     82  SD        13.3580   -0.6740    8.6160 S.3    77  MET77      -0.1393
     83  CE        14.2640   -2.1820    8.9410 C.3    77  MET77       0.0692
     84  N         11.2260   -0.9930    0.4980 N.3    80  LEU80      -0.1245
     85  CA        11.4280   -2.4310    0.3670 C.3    80  LEU80       0.1561
     86  C         10.1230   -3.1910    0.5850 C.2    80  LEU80       0.2260
     87  O          9.7690   -4.0900   -0.1890 O.2    80  LEU80      -0.2867
     88  CB        12.4940   -2.8990    1.3590 C.3    80  LEU80       0.0270
     89  CG        12.5220   -4.3980    1.6810 C.3    80  LEU80       0.0019
     90  CD1       12.9990   -5.2130    0.4890 C.3    80  LEU80       0.0001
     91  CD2       13.3770   -4.6760    2.9040 C.3    80  LEU80       0.0001
     92  N          7.9960   -2.6520   -2.5220 N.3    83  ARG83      -0.1245
     93  CA         8.4580   -3.4410   -3.6610 C.3    83  ARG83       0.1563
     94  C          8.1990   -4.9250   -3.4450 C.2    83  ARG83       0.2260
     95  O          7.8920   -5.6560   -4.3940 O.2    83  ARG83      -0.2867
     96  CB         9.9480   -3.2020   -3.9090 C.3    83  ARG83       0.0307
     97  CG        10.3210   -1.7730   -4.2500 C.3    83  ARG83       0.0489
     98  CD        11.7690   -1.6910   -4.7110 C.3    83  ARG83       0.2205
     99  NE        12.6840   -2.3460   -3.7800 N.pl3  83  ARG83      -0.0865
    100  CZ        13.3660   -1.7120   -2.8300 C.cat  83  ARG83       0.5346
    101  NH1       13.2380   -0.4010   -2.6820 N.pl3  83  ARG83       0.1354
    102  NH2       14.1790   -2.3900   -2.0300 N.pl3  83  ARG83       0.1354
    103  N         14.5940   -6.8170   -2.2340 N.3    93  PHE93      -0.1241
    104  CA        15.5880   -5.7620   -2.0680 C.3    93  PHE93       0.1605
    105  C         15.9410   -5.1390   -3.4110 C.2    93  PHE93       0.2264
    106  O         16.0710   -3.9150   -3.5260 O.2    93  PHE93      -0.2867
    107  CB        16.8420   -6.3130   -1.3890 C.3    93  PHE93       0.0534
    108  CG        16.6760   -6.5690    0.0810 C.ar   93  PHE93      -0.0203
    109  CD1       16.2910   -7.8160    0.5430 C.ar   93  PHE93      -0.0042
    110  CD2       16.9150   -5.5620    1.0030 C.ar   93  PHE93      -0.0042
    111  CE1       16.1430   -8.0550    1.8970 C.ar   93  PHE93      -0.0003
    112  CE2       16.7690   -5.7940    2.3590 C.ar   93  PHE93      -0.0003
    113  CZ        16.3820   -7.0430    2.8060 C.ar   93  PHE93      -0.0000
    114  N         19.2580  -10.5670   12.3490 N.3   107  MET107     -0.1245
    115  CA        18.6160  -10.1680   11.1020 C.3   107  MET107      0.1570
    116  C         17.2290  -10.7860   10.9590 C.2   107  MET107      0.2261
    117  O         16.2840  -10.1150   10.5410 O.2   107  MET107     -0.2867
    118  CB        19.4830  -10.5590    9.9030 C.3   107  MET107      0.0387
    119  CG        18.7350  -10.5860    8.5750 C.3   107  MET107      0.0595
    120  SD        18.1740   -8.9680    8.0140 S.3   107  MET107     -0.1393
    121  CE        19.2020   -8.7510    6.5630 C.3   107  MET107      0.0692
    122  N         14.2200   -8.7770   12.3400 N.3   110  ILE110     -0.1245
    123  CA        13.7580   -7.6650   11.5170 C.3   110  ILE110      0.1561
    124  C         13.2140   -8.1690   10.1880 C.2   110  ILE110      0.2260
    125  O         12.3350   -7.5380    9.5880 O.2   110  ILE110     -0.2867
    126  CB        14.8990   -6.6510   11.3130 C.3   110  ILE110      0.0252
    127  CG1       15.5760   -6.3390   12.6470 C.3   110  ILE110      0.0019
    128  CG2       14.3760   -5.3730   10.6790 C.3   110  ILE110      0.0019
    129  CD1       16.7670   -5.4260   12.5190 C.3   110  ILE110      0.0001
    130  N          9.5590   -7.1520    8.5210 N.3   114  LEU114     -0.1245
    131  CA         9.4110   -6.5850    7.1840 C.3   114  LEU114      0.1561
    132  C          8.4590   -7.4200    6.3360 C.2   114  LEU114      0.2260
    133  O          7.6660   -6.8730    5.5610 O.2   114  LEU114     -0.2867
    134  CB        10.7770   -6.4730    6.5080 C.3   114  LEU114      0.0270
    135  CG        11.7670   -5.4770    7.1130 C.3   114  LEU114      0.0019
    136  CD1       13.1700   -5.7320    6.5860 C.3   114  LEU114      0.0001
    137  CD2       11.3370   -4.0500    6.8140 C.3   114  LEU114      0.0001
    138  N         16.9260   -1.9030   13.5280 N.3   196  GLY196     -0.1225
    139  CA        17.9410   -2.0460   12.5040 C.3   196  GLY196      0.1811
    140  C         19.1430   -1.1660   12.7710 C.2   196  GLY196      0.2280
    141  O         20.2810   -1.5520   12.4880 O.2   196  GLY196     -0.2866
    142  N         21.5220   -2.7930   15.2630 N.3   199  HIS199     -0.1226
    143  CA        22.2910   -3.8980   14.7020 C.3   199  HIS199      0.1752
    144  C         23.4350   -3.3910   13.8310 C.2   199  HIS199      0.2595
    145  O         24.5530   -3.9110   13.9130 O.2   199  HIS199     -0.2718
    146  CB        21.3720   -4.8280   13.8990 C.3   199  HIS199      0.0759
    147  CG        20.4490   -5.6650   14.7400 C.ar  199  HIS199      0.0818
    148  ND1       19.4280   -6.4180   14.1990 N.ar  199  HIS199     -0.2268
    149  CD2       20.3960   -5.8740   16.0780 C.ar  199  HIS199      0.1154
    150  CE1       18.7840   -7.0490   15.1650 C.ar  199  HIS199      0.1986
    151  NE2       19.3510   -6.7370   16.3150 N.ar  199  HIS199     -0.2212
    152  N         23.1830   -2.3620   13.0150 N.am  200  LEU200     -0.1980
    153  CA        24.2360   -1.8200   12.1590 C.3   200  LEU200      0.1596
    154  C         25.3650   -1.2180   12.9880 C.2   200  LEU200      0.2287
    155  O         26.5440   -1.3800   12.6510 O.2   200  LEU200     -0.2864
    156  CB        23.6590   -0.7800   11.1920 C.3   200  LEU200      0.0297
    157  CG        22.5760   -1.2610   10.2160 C.3   200  LEU200      0.0022
    158  CD1       22.1780   -0.1940    9.1910 C.3   200  LEU200      0.0001
    159  CD2       23.0140   -2.5380    9.5180 C.3   200  LEU200      0.0001
    160  N         27.1760   -4.3920   14.2520 N.3   203  MET203     -0.1245
    161  CA        27.7550   -5.2080   13.1870 C.3   203  MET203      0.1570
    162  C         28.8860   -4.4840   12.4640 C.2   203  MET203      0.2261
    163  O         29.8510   -5.1250   12.0240 O.2   203  MET203     -0.2867
    164  CB        26.6370   -5.6190   12.2110 C.3   203  MET203      0.0387
    165  CG        27.0410   -5.9010   10.7520 C.3   203  MET203      0.0595
    166  SD        26.9900   -4.4550    9.6630 S.3   203  MET203     -0.1393
    167  CE        27.6220   -5.1440    8.1320 C.3   203  MET203      0.0692
    168  N         27.0620    6.4170    4.4430 N.3   211  LEU211     -0.1245
    169  CA        26.2260    5.5700    5.2850 C.3   211  LEU211      0.1561
    170  C         26.7150    5.5930    6.7280 C.2   211  LEU211      0.2260
    171  O         25.9060    5.5830    7.6640 O.2   211  LEU211     -0.2867
    172  CB        26.1940    4.1440    4.7190 C.3   211  LEU211      0.0270
    173  CG        25.1780    3.1450    5.2970 C.3   211  LEU211      0.0019
    174  CD1       23.8540    3.8360    5.5620 C.3   211  LEU211      0.0001
    175  CD2       24.9670    1.8970    4.4170 C.3   211  LEU211      0.0001
@<TRIPOS>BOND
     1    98    97    1
     2    98    99    1
     3    95    94    2
     4    97    96    1
     5    30    29    1
     6    96    93    1
     7    99   100    2
     8    93    94    1
     9    93    92    1
    10   106   105    2
    11   105   104    1
    12    42    43    1
    13    42    41    1
    14    37    38    1
    15   100   101    1
    16   100   102    1
    17    29    31    1
    18    29    28    1
    19    38    41    1
    20    38    39    1
    21    45    43   ar
    22    28    25    1
    23    25    24    1
    24    25    26    1
    25    27    26    2
    26    43    44   ar
    27   103   104    1
    28    40    39    2
    29   104   107    1
    30    26    32   am
    31   107   108    1
    32    32    33    1
    33    87    86    2
    34   108   109   ar
    35   108   110   ar
    36    34    35    2
    37    34    33    1
    38    85    84    1
    39    85    86    1
    40    85    88    1
    41    33    36    1
    42    90    89    1
    43     9    10    1
    44   109   111   ar
    45    16    14    1
    46   110   112   ar
    47    10    11    1
    48    10    13    1
    49    12    11    2
    50    20    19    2
    51    75    73    1
    52    19    18    1
    53    88    89    1
    54    11    17   am
    55    89    91    1
    56   111   113   ar
    57    14    13    1
    58    14    15    1
    59    17    18    1
    60    71    70    2
    61   112   113   ar
    62    18    21    1
    63    73    74    1
    64    73    72    1
    65    69    70    1
    66    69    72    1
    67    69    68    1
    68    22    21    1
    69    70    76   am
    70     4     3    2
    71     3     2    1
    72    21    23    1
    73     1     2    1
    74    79    78    2
    75    78    77    1
    76     2     5    1
    77    76    77    1
    78   175   173    1
    79   168   169    1
    80    77    80    1
    81   172   169    1
    82   172   173    1
    83    49    48    2
    84   169   170    1
    85   173   174    1
    86     5     6    1
    87   133   132    2
    88    50    47    1
    89    50    51    1
    90    56    58   ar
    91    56    53   ar
    92    48    47    1
    93    48    60   am
    94    47    46    1
    95    80    81    1
    96   132   131    1
    97    58    59   ar
    98   134   135    1
    99   134   131    1
   100   121   120    1
   101   136   135    1
   102     6     7    1
   103    63    62    2
   104   170   171    2
   105   137   135    1
   106    81    82    1
   107     7     8    1
   108    53    51   ar
   109    53    55   ar
   110    51    52   ar
   111   131   130    1
   112    62    61    1
   113    60    61    1
   114    61    64    1
   115    66    65    1
   116    59    57   ar
   117   120   119    1
   118   167   166    1
   119    55    57   ar
   120    55    54   ar
   121    52    54   ar
   122    64    65    1
   123   119   118    1
   124    82    83    1
   125    65    67    1
   126   158   157    1
   127   159   157    1
   128   125   124    2
   129   166   165    1
   130   118   115    1
   131   124   123    1
   132   157   156    1
   133   117   116    2
   134   128   126    1
   135   165   164    1
   136   116   115    1
   137   115   114    1
   138   156   153    1
   139   126   123    1
   140   126   127    1
   141   123   122    1
   142   163   162    2
   143   153   154    1
   144   153   152    1
   145   164   161    1
   146   162   161    1
   147   141   140    2
   148   139   140    1
   149   139   138    1
   150   129   127    1
   151   155   154    2
   152   152   144   am
   153   161   160    1
   154   144   145    2
   155   144   143    1
   156   146   143    1
   157   146   147    1
   158   148   147   ar
   159   148   150   ar
   160   143   142    1
   161   147   149   ar
   162   150   151   ar
   163   149   151   ar
