@<TRIPOS>MOLECULE
tmp/5tm3A01.pdb
 175 163 0 0 0
SMALL
GASTEIGER

@<TRIPOS>ATOM
      1  N         25.9060   -8.7640    3.4230 N.3    36  MET36      -0.1245
      2  CA        26.0030   -7.4250    3.9940 C.3    36  MET36       0.1570
      3  C         26.6640   -6.4520    3.0290 C.2    36  MET36       0.2261
      4  O         26.3120   -5.2670    3.0070 O.2    36  MET36      -0.2867
      5  CB        26.7690   -7.4690    5.3160 C.3    36  MET36       0.0387
      6  CG        25.9970   -8.1140    6.4520 C.3    36  MET36       0.0595
      7  SD        24.4370   -7.2730    6.7700 S.3    36  MET36      -0.1393
      8  CE        25.0250   -5.6280    7.1610 C.3    36  MET36       0.0692
      9  N         23.9770   -5.5340    0.4430 N.3    39  LEU39      -0.1231
     10  CA        22.9870   -4.6420    1.0360 C.3    39  LEU39       0.1693
     11  C         23.5810   -3.2690    1.3220 C.2    39  LEU39       0.2592
     12  O         22.9070   -2.2470    1.1450 O.2    39  LEU39      -0.2718
     13  CB        22.4210   -5.2600    2.3140 C.3    39  LEU39       0.0284
     14  CG        21.7000   -6.6030    2.1710 C.3    39  LEU39       0.0019
     15  CD1       21.1690   -7.0770    3.5160 C.3    39  LEU39       0.0001
     16  CD2       20.5780   -6.5110    1.1500 C.3    39  LEU39       0.0001
     17  N         24.8390   -3.2240    1.7670 N.am   40  THR40      -0.1953
     18  CA        25.4850   -1.9420    2.0380 C.3    40  THR40       0.1897
     19  C         25.6430   -1.1290    0.7610 C.2    40  THR40       0.2313
     20  O         25.3290    0.0660    0.7270 O.2    40  THR40      -0.2863
     21  CB        26.8460   -2.1640    2.6990 C.3    40  THR40       0.1794
     22  OG1       26.6670   -2.8460    3.9450 O.3    40  THR40      -0.2208
     23  CG2       27.5420   -0.8320    2.9500 C.3    40  THR40       0.0378
     24  N         23.8970   -1.4020   -1.9500 N.3    42  LEU42      -0.1231
     25  CA        22.5800   -1.0170   -2.4450 C.3    42  LEU42       0.1693
     26  C         22.0040    0.1370   -1.6330 C.2    42  LEU42       0.2591
     27  O         21.5070    1.1200   -2.1960 O.2    42  LEU42      -0.2718
     28  CB        21.6380   -2.2210   -2.4130 C.3    42  LEU42       0.0284
     29  CG        20.2160   -1.9820   -2.9230 C.3    42  LEU42       0.0019
     30  CD1       20.2260   -1.6090   -4.3960 C.3    42  LEU42       0.0001
     31  CD2       19.3480   -3.2070   -2.6790 C.3    42  LEU42       0.0001
     32  N         22.0620    0.0330   -0.3030 N.am   43  ALA43      -0.1980
     33  CA        21.5170    1.0870    0.5470 C.3    43  ALA43       0.1597
     34  C         22.2500    2.4040    0.3340 C.2    43  ALA43       0.2287
     35  O         21.6390    3.4800    0.3820 O.2    43  ALA43      -0.2864
     36  CB        21.5890    0.6670    2.0140 C.3    43  ALA43       0.0319
     37  N         20.9420    3.8300   -2.8810 N.3    46  GLU46      -0.1245
     38  CA        19.5660    4.2810   -2.6970 C.3    46  GLU46       0.1567
     39  C         19.5010    5.5870   -1.9170 C.2    46  GLU46       0.2260
     40  O         18.5840    6.3900   -2.1310 O.2    46  GLU46      -0.2867
     41  CB        18.7430    3.2050   -1.9880 C.3    46  GLU46       0.0388
     42  CG        18.1120    2.1810   -2.9160 C.3    46  GLU46       0.1160
     43  CD        17.0010    1.3960   -2.2430 C.2    46  GLU46       0.3649
     44  OE1       17.2750    0.7230   -1.2280 O.co2  46  GLU46      -0.2457
     45  OE2       15.8480    1.4630   -2.7220 O.co2  46  GLU46      -0.2457
     46  N         15.8000    8.2650    7.4670 N.3    76  TRP76      -0.1227
     47  CA        16.3760    7.6440    6.2750 C.3    76  TRP76       0.1737
     48  C         16.1630    6.1340    6.2630 C.2    76  TRP76       0.2595
     49  O         15.8370    5.5590    5.2180 O.2    76  TRP76      -0.2718
     50  CB        17.8640    7.9840    6.1570 C.3    76  TRP76       0.0564
     51  CG        18.7460    7.3380    7.1830 C.ar   76  TRP76       0.0003
     52  CD1       19.1090    7.8510    8.3920 C.ar   76  TRP76       0.0946
     53  CD2       19.3920    6.0630    7.0780 C.ar   76  TRP76       0.0152
     54  NE1       19.9340    6.9710    9.0520 N.ar   76  TRP76      -0.2442
     55  CE2       20.1230    5.8650    8.2660 C.ar   76  TRP76       0.0810
     56  CE3       19.4190    5.0670    6.0960 C.ar   76  TRP76       0.0012
     57  CZ2       20.8750    4.7140    8.4990 C.ar   76  TRP76       0.0191
     58  CZ3       20.1650    3.9230    6.3300 C.ar   76  TRP76       0.0001
     59  CH2       20.8820    3.7570    7.5210 C.ar   76  TRP76       0.0015
     60  N         16.3320    5.4700    7.4100 N.am   77  LEU77      -0.1980
     61  CA        16.1370    4.0230    7.4280 C.3    77  LEU77       0.1596
     62  C         14.6610    3.6580    7.3350 C.2    77  LEU77       0.2287
     63  O         14.3140    2.6360    6.7330 O.2    77  LEU77      -0.2864
     64  CB        16.7670    3.4090    8.6790 C.3    77  LEU77       0.0297
     65  CG        16.8290    1.8780    8.6830 C.3    77  LEU77       0.0022
     66  CD1       17.4470    1.3630    7.3900 C.3    77  LEU77       0.0001
     67  CD2       17.6030    1.3610    9.8870 C.3    77  LEU77       0.0001
     68  N         13.9050    3.9610    3.5740 N.3    80  LEU80      -0.1231
     69  CA        14.4290    2.7960    2.8670 C.3    80  LEU80       0.1693
     70  C         13.5790    1.5600    3.1330 C.2    80  LEU80       0.2591
     71  O         13.3220    0.7660    2.2220 O.2    80  LEU80      -0.2718
     72  CB        15.8790    2.5340    3.2760 C.3    80  LEU80       0.0284
     73  CG        16.9710    3.4550    2.7310 C.3    80  LEU80       0.0019
     74  CD1       18.3360    3.0130    3.2350 C.3    80  LEU80       0.0001
     75  CD2       16.9400    3.4820    1.2120 C.3    80  LEU80       0.0001
     76  N         13.1280    1.3850    4.3780 N.am   81  MET81      -0.1979
     77  CA        12.3840    0.1810    4.7300 C.3    81  MET81       0.1605
     78  C         10.9830    0.1880    4.1300 C.2    81  MET81       0.2287
     79  O         10.5150   -0.8420    3.6310 O.2    81  MET81      -0.2864
     80  CB        12.3250    0.0280    6.2500 C.3    81  MET81       0.0413
     81  CG        13.6050   -0.5310    6.8580 C.3    81  MET81       0.0598
     82  SD        13.5420   -0.6590    8.6560 S.3    81  MET81      -0.1393
     83  CE        15.0240   -1.6110    8.9760 C.3    81  MET81       0.0692
     84  N         11.3120   -0.6890    0.5530 N.3    84  LEU84      -0.1245
     85  CA        11.5540   -2.1200    0.4090 C.3    84  LEU84       0.1561
     86  C         10.2700   -2.9120    0.6100 C.2    84  LEU84       0.2260
     87  O          9.9820   -3.8500   -0.1420 O.2    84  LEU84      -0.2867
     88  CB        12.6230   -2.5710    1.4050 C.3    84  LEU84       0.0270
     89  CG        12.8010   -4.0800    1.5930 C.3    84  LEU84       0.0019
     90  CD1       13.3550   -4.7230    0.3300 C.3    84  LEU84       0.0001
     91  CD2       13.6990   -4.3710    2.7850 C.3    84  LEU84       0.0001
     92  N          8.0430   -2.5730   -2.4980 N.3    87  ARG87      -0.1245
     93  CA         8.4710   -3.3700   -3.6440 C.3    87  ARG87       0.1563
     94  C          8.1480   -4.8460   -3.4560 C.2    87  ARG87       0.2260
     95  O          7.9560   -5.5670   -4.4410 O.2    87  ARG87      -0.2867
     96  CB         9.9730   -3.1990   -3.8860 C.3    87  ARG87       0.0307
     97  CG        10.4050   -1.7900   -4.2390 C.3    87  ARG87       0.0489
     98  CD        11.8390   -1.7650   -4.7520 C.3    87  ARG87       0.2205
     99  NE        12.8000   -2.2550   -3.7670 N.pl3  87  ARG87      -0.0865
    100  CZ        13.4120   -1.4840   -2.8730 C.cat  87  ARG87       0.5346
    101  NH1       13.1580   -0.1830   -2.8280 N.pl3  87  ARG87       0.1354
    102  NH2       14.2780   -2.0140   -2.0190 N.pl3  87  ARG87       0.1354
    103  N         14.7690   -6.6020   -2.4530 N.3    97  PHE97      -0.1241
    104  CA        15.7800   -5.5610   -2.3040 C.3    97  PHE97       0.1605
    105  C         16.1050   -4.9300   -3.6500 C.2    97  PHE97       0.2264
    106  O         16.2100   -3.7030   -3.7640 O.2    97  PHE97      -0.2867
    107  CB        17.0410   -6.1380   -1.6610 C.3    97  PHE97       0.0534
    108  CG        16.8930   -6.4380   -0.1970 C.ar   97  PHE97      -0.0203
    109  CD1       17.1710   -5.4690    0.7540 C.ar   97  PHE97      -0.0042
    110  CD2       16.4800   -7.6900    0.2300 C.ar   97  PHE97      -0.0042
    111  CE1       17.0370   -5.7410    2.1040 C.ar   97  PHE97      -0.0003
    112  CE2       16.3440   -7.9690    1.5780 C.ar   97  PHE97      -0.0003
    113  CZ        16.6230   -6.9930    2.5170 C.ar   97  PHE97      -0.0000
    114  N         19.7800  -10.5500   11.6860 N.3   114  MET114     -0.1245
    115  CA        19.1080  -10.0920   10.4780 C.3   114  MET114      0.1570
    116  C         17.7670  -10.7880   10.2740 C.2   114  MET114      0.2261
    117  O         16.8580  -10.2100    9.6650 O.2   114  MET114     -0.2867
    118  CB        20.0240  -10.3080    9.2680 C.3   114  MET114      0.0387
    119  CG        19.4540   -9.8290    7.9430 C.3   114  MET114      0.0595
    120  SD        19.1510   -8.0520    7.9490 S.3   114  MET114     -0.1393
    121  CE        20.7990   -7.4220    7.6480 C.3   114  MET114      0.0692
    122  N         14.8900   -8.7180   11.8330 N.3   117  ILE117     -0.1245
    123  CA        14.4870   -7.5820   11.0110 C.3   117  ILE117      0.1561
    124  C         13.7530   -8.0600    9.7650 C.2   117  ILE117      0.2260
    125  O         12.7830   -7.4340    9.3200 O.2   117  ILE117     -0.2867
    126  CB        15.7170   -6.7270   10.6580 C.3   117  ILE117      0.0252
    127  CG1       16.3780   -6.2010   11.9320 C.3   117  ILE117      0.0019
    128  CG2       15.3350   -5.5770    9.7320 C.3   117  ILE117      0.0019
    129  CD1       17.6790   -5.4890   11.6840 C.3   117  ILE117      0.0001
    130  N          9.9290   -7.0010    8.4640 N.3   121  LEU121     -0.1245
    131  CA         9.7040   -6.4370    7.1360 C.3   121  LEU121      0.1561
    132  C          8.7050   -7.2710    6.3450 C.2   121  LEU121      0.2260
    133  O          7.8320   -6.7210    5.6630 O.2   121  LEU121     -0.2867
    134  CB        11.0280   -6.3290    6.3810 C.3   121  LEU121      0.0270
    135  CG        12.0500   -5.3400    6.9380 C.3   121  LEU121      0.0019
    136  CD1       13.4140   -5.5890    6.3200 C.3   121  LEU121      0.0001
    137  CD2       11.5970   -3.9090    6.6870 C.3   121  LEU121      0.0001
    138  N         16.7080   -1.8860   13.1790 N.3   204  GLY204     -0.1225
    139  CA        17.6770   -1.9180   12.0990 C.3   204  GLY204      0.1811
    140  C         18.8620   -1.0060   12.3370 C.2   204  GLY204      0.2280
    141  O         19.9800   -1.3150   11.9140 O.2   204  GLY204     -0.2866
    142  N         21.2160   -2.8310   14.5880 N.3   207  HIS207     -0.1226
    143  CA        21.9100   -3.8980   13.8760 C.3   207  HIS207      0.1752
    144  C         23.0460   -3.3460   13.0240 C.2   207  HIS207      0.2595
    145  O         24.1390   -3.9230   12.9900 O.2   207  HIS207     -0.2718
    146  CB        20.9280   -4.6860   13.0120 C.3   207  HIS207      0.0759
    147  CG        21.5720   -5.7750   12.2130 C.ar  207  HIS207      0.0818
    148  ND1       22.0390   -5.5820   10.9300 N.ar  207  HIS207     -0.2268
    149  CD2       21.8370   -7.0680   12.5180 C.ar  207  HIS207      0.1154
    150  CE1       22.5610   -6.7090   10.4800 C.ar  207  HIS207      0.1986
    151  NE2       22.4500   -7.6260   11.4230 N.ar  207  HIS207     -0.2212
    152  N         22.8050   -2.2330   12.3260 N.am  208  LEU208     -0.1980
    153  CA        23.8690   -1.6030   11.5510 C.3   208  LEU208      0.1596
    154  C         24.9950   -1.1160   12.4500 C.2   208  LEU208      0.2287
    155  O         26.1620   -1.1290   12.0450 O.2   208  LEU208     -0.2864
    156  CB        23.3100   -0.4410   10.7310 C.3   208  LEU208      0.0297
    157  CG        22.3150   -0.8060    9.6310 C.3   208  LEU208      0.0022
    158  CD1       21.9510    0.4240    8.8150 C.3   208  LEU208      0.0001
    159  CD2       22.8890   -1.8960    8.7450 C.3   208  LEU208      0.0001
    160  N         31.5620    0.1820    5.9390 N.3   219  LEU219     -0.1245
    161  CA        30.4380    1.0310    5.5780 C.3   219  LEU219      0.1561
    162  C         30.9350    2.2770    4.8580 C.2   219  LEU219      0.2260
    163  O         32.0690    2.7200    5.0530 O.2   219  LEU219     -0.2867
    164  CB        29.6340    1.4280    6.8180 C.3   219  LEU219      0.0270
    165  CG        29.0060    0.2770    7.6070 C.3   219  LEU219      0.0019
    166  CD1       28.2650    0.7980    8.8300 C.3   219  LEU219      0.0001
    167  CD2       28.0740   -0.5330    6.7190 C.3   219  LEU219      0.0001
    168  N         26.8720    6.4490    4.6920 N.3   223  LEU223     -0.1245
    169  CA        26.1290    5.5430    5.5610 C.3   223  LEU223      0.1561
    170  C         26.5700    5.6900    7.0110 C.2   223  LEU223      0.2260
    171  O         25.7470    5.6060    7.9300 O.2   223  LEU223     -0.2867
    172  CB        26.3110    4.1040    5.0810 C.3   223  LEU223      0.0270
    173  CG        25.2260    3.0870    5.4220 C.3   223  LEU223      0.0019
    174  CD1       23.8560    3.6340    5.0760 C.3   223  LEU223      0.0001
    175  CD2       25.4890    1.8030    4.6610 C.3   223  LEU223      0.0001
@<TRIPOS>BOND
     1    98    97    1
     2    98    99    1
     3    95    94    2
     4    30    29    1
     5    97    96    1
     6    96    93    1
     7    99   100    2
     8   106   105    2
     9   105   104    1
    10    93    94    1
    11    93    92    1
    12    29    31    1
    13    29    28    1
    14    42    43    1
    15    42    41    1
    16    37    38    1
    17   100   101    1
    18   100   102    1
    19    45    43   ar
    20    38    41    1
    21    38    39    1
    22   103   104    1
    23    25    28    1
    24    25    24    1
    25    25    26    1
    26   104   107    1
    27    43    44   ar
    28    27    26    2
    29    40    39    2
    30   107   108    1
    31    26    32   am
    32    32    33    1
    33   108   110   ar
    34   108   109   ar
    35    87    86    2
    36   110   112   ar
    37    90    89    1
    38    34    35    2
    39    34    33    1
    40    85    84    1
    41    85    86    1
    42    85    88    1
    43     9    10    1
    44    33    36    1
    45    20    19    2
    46   109   111   ar
    47    19    18    1
    48    10    11    1
    49    10    13    1
    50    12    11    2
    51    16    14    1
    52    75    73    1
    53    11    17   am
    54    88    89    1
    55   112   113   ar
    56    89    91    1
    57    17    18    1
    58    18    21    1
    59   111   113   ar
    60    14    13    1
    61    14    15    1
    62    71    70    2
    63    21    23    1
    64    21    22    1
    65    73    74    1
    66    73    72    1
    67    69    70    1
    68    69    72    1
    69    69    68    1
    70     4     3    2
    71     3     2    1
    72    70    76   am
    73     1     2    1
    74    79    78    2
    75     2     5    1
    76    78    77    1
    77    76    77    1
    78   175   173    1
    79   168   169    1
    80    77    80    1
    81   162   163    2
    82   162   161    1
    83   174   173    1
    84   172   173    1
    85   172   169    1
    86    49    48    2
    87     5     6    1
    88   169   170    1
    89   161   160    1
    90   161   164    1
    91   133   132    2
    92    56    58   ar
    93    56    53   ar
    94    50    47    1
    95    50    51    1
    96    80    81    1
    97    48    47    1
    98    48    60   am
    99    47    46    1
   100   136   135    1
   101    58    59   ar
   102   132   131    1
   103   134   135    1
   104   134   131    1
   105     6     7    1
   106   137   135    1
   107   167   165    1
   108    63    62    2
   109     7     8    1
   110   164   165    1
   111    81    82    1
   112   170   171    2
   113    53    51   ar
   114    53    55   ar
   115   131   130    1
   116    51    52   ar
   117    62    61    1
   118    66    65    1
   119    60    61    1
   120    61    64    1
   121    59    57   ar
   122   165   166    1
   123   121   120    1
   124   119   120    1
   125   119   118    1
   126    55    57   ar
   127    55    54   ar
   128    52    54   ar
   129    82    83    1
   130    64    65    1
   131    65    67    1
   132   159   157    1
   133   158   157    1
   134   118   115    1
   135   125   124    2
   136   157   156    1
   137   117   116    2
   138   128   126    1
   139   124   123    1
   140   116   115    1
   141   115   114    1
   142   150   148   ar
   143   150   151   ar
   144   126   123    1
   145   126   127    1
   146   156   153    1
   147   148   147   ar
   148   123   122    1
   149   151   149   ar
   150   153   152    1
   151   153   154    1
   152   129   127    1
   153   141   140    2
   154   155   154    2
   155   139   140    1
   156   139   138    1
   157   147   149   ar
   158   147   146    1
   159   152   144   am
   160   145   144    2
   161   146   143    1
   162   144   143    1
   163   143   142    1
