@<TRIPOS>MOLECULE
tmp/5tm4A02.pdb
 214 202 0 0 0
SMALL
GASTEIGER

@<TRIPOS>ATOM
      1  N         14.5440   -4.5620   -3.8360 N.3    39  MET39      -0.1245
      2  CA        15.0490   -3.3810   -3.1450 C.3    39  MET39       0.1570
      3  C         13.9120   -2.4620   -2.7190 C.2    39  MET39       0.2261
      4  O         13.9430   -1.8930   -1.6220 O.2    39  MET39      -0.2867
      5  CB        16.0390   -2.6340   -4.0350 C.3    39  MET39       0.0387
      6  CG        17.3900   -3.3140   -4.1560 C.3    39  MET39       0.0595
      7  SD        18.1610   -3.5620   -2.5450 S.3    39  MET39      -0.1393
      8  CE        18.0440   -1.9090   -1.8580 C.3    39  MET39       0.0692
      9  N         12.4550   -4.0190    0.4250 N.3    42  LEU42      -0.1231
     10  CA        13.2840   -3.8070    1.6070 C.3    42  LEU42       0.1693
     11  C         13.3180   -2.3370    2.0070 C.2    42  LEU42       0.2592
     12  O         13.2920   -2.0130    3.2000 O.2    42  LEU42      -0.2718
     13  CB        14.6990   -4.3260    1.3520 C.3    42  LEU42       0.0284
     14  CG        14.8260   -5.8210    1.0580 C.3    42  LEU42       0.0019
     15  CD1       16.2680   -6.1850    0.7300 C.3    42  LEU42       0.0001
     16  CD2       14.3160   -6.6390    2.2330 C.3    42  LEU42       0.0001
     17  N         13.3840   -1.4330    1.0250 N.am   43  THR43      -0.1953
     18  CA        13.3900   -0.0050    1.3280 C.3    43  THR43       0.1897
     19  C         12.0980    0.4120    2.0170 C.2    43  THR43       0.2313
     20  O         12.1200    1.1180    3.0320 O.2    43  THR43      -0.2863
     21  CB        13.5990    0.8070    0.0480 C.3    43  THR43       0.1794
     22  OG1       14.9170    0.5690   -0.4610 O.3    43  THR43      -0.2208
     23  CG2       13.4230    2.2920    0.3200 C.3    43  THR43       0.0378
     24  N         10.1110   -1.4440    3.7160 N.3    45  LEU45      -0.1231
     25  CA        10.0520   -2.0580    5.0390 C.3    45  LEU45       0.1693
     26  C         10.8850   -1.2740    6.0470 C.2    45  LEU45       0.2591
     27  O         10.3860   -0.8700    7.1040 O.2    45  LEU45      -0.2718
     28  CB        10.5260   -3.5090    4.9670 C.3    45  LEU45       0.0284
     29  CG        10.6510   -4.2130    6.3200 C.3    45  LEU45       0.0019
     30  CD1        9.2960   -4.2970    7.0090 C.3    45  LEU45       0.0001
     31  CD2       11.2660   -5.5950    6.1560 C.3    45  LEU45       0.0001
     32  N         12.1640   -1.0510    5.7330 N.am   46  ALA46      -0.1980
     33  CA        13.0340   -0.3120    6.6430 C.3    46  ALA46       0.1597
     34  C         12.5430    1.1130    6.8560 C.2    46  ALA46       0.2287
     35  O         12.7710    1.6940    7.9230 O.2    46  ALA46      -0.2864
     36  CB        14.4680   -0.3070    6.1120 C.3    46  ALA46       0.0319
     37  N         10.0450    0.9020    9.5440 N.3    49  GLU49      -0.1245
     38  CA        10.7170    0.5320   10.7850 C.3    49  GLU49       0.1567
     39  C         11.4150    1.7220   11.4290 C.2    49  GLU49       0.2260
     40  O         11.5080    1.7930   12.6600 O.2    49  GLU49      -0.2867
     41  CB        11.7290   -0.5820   10.5240 C.3    49  GLU49       0.0388
     42  CG        11.1400   -1.9800   10.4770 C.3    49  GLU49       0.1160
     43  CD        12.1890   -3.0340   10.1780 C.2    49  GLU49       0.3649
     44  OE1       12.7400   -3.0250    9.0570 O.co2  49  GLU49      -0.2457
     45  OE2       12.4710   -3.8660   11.0650 O.co2  49  GLU49      -0.2457
     46  N         21.4340    3.6520   12.8300 N.3    79  TRP79      -0.1227
     47  CA        20.1170    3.1730   12.4150 C.3    79  TRP79       0.1737
     48  C         20.2020    1.8380   11.6820 C.2    79  TRP79       0.2595
     49  O         19.3500    0.9630   11.8790 O.2    79  TRP79      -0.2718
     50  CB        19.4100    4.2190   11.5490 C.3    79  TRP79       0.0564
     51  CG        20.0170    4.4450   10.1960 C.ar   79  TRP79       0.0003
     52  CD1       20.9560    5.3760    9.8640 C.ar   79  TRP79       0.0946
     53  CD2       19.7070    3.7400    8.9870 C.ar   79  TRP79       0.0152
     54  NE1       21.2590    5.2880    8.5270 N.ar   79  TRP79      -0.2442
     55  CE2       20.5050    4.2920    7.9660 C.ar   79  TRP79       0.0810
     56  CE3       18.8380    2.6920    8.6710 C.ar   79  TRP79       0.0012
     57  CZ2       20.4600    3.8320    6.6520 C.ar   79  TRP79       0.0191
     58  CZ3       18.7940    2.2360    7.3660 C.ar   79  TRP79       0.0001
     59  CH2       19.6000    2.8050    6.3730 C.ar   79  TRP79       0.0015
     60  N         21.2230    1.6540   10.8430 N.am   80  LEU80      -0.1980
     61  CA        21.3380    0.3940   10.1160 C.3    80  LEU80       0.1596
     62  C         21.8000   -0.7350   11.0290 C.2    80  LEU80       0.2287
     63  O         21.3530   -1.8780   10.8790 O.2    80  LEU80      -0.2864
     64  CB        22.2920    0.5470    8.9290 C.3    80  LEU80       0.0297
     65  CG        22.4250   -0.6990    8.0470 C.3    80  LEU80       0.0022
     66  CD1       21.0550   -1.1950    7.5990 C.3    80  LEU80       0.0001
     67  CD2       23.3190   -0.4190    6.8450 C.3    80  LEU80       0.0001
     68  N         18.6310   -1.8100   12.8440 N.3    83  LEU83      -0.1231
     69  CA        17.8010   -2.6250   11.9630 C.3    83  LEU83       0.1693
     70  C         18.3800   -4.0250   11.8080 C.2    83  LEU83       0.2591
     71  O         17.6360   -5.0100   11.7380 O.2    83  LEU83      -0.2718
     72  CB        17.6650   -1.9580   10.5940 C.3    83  LEU83       0.0284
     73  CG        16.7740   -0.7220   10.4790 C.3    83  LEU83       0.0019
     74  CD1       16.7550   -0.2100    9.0470 C.3    83  LEU83       0.0001
     75  CD2       15.3620   -1.0290   10.9570 C.3    83  LEU83       0.0001
     76  N         19.7100   -4.1310   11.7630 N.am   84  MET84      -0.1979
     77  CA        20.3440   -5.4170   11.4930 C.3    84  MET84       0.1605
     78  C         20.2670   -6.3460   12.6970 C.2    84  MET84       0.2287
     79  O         19.9730   -7.5370   12.5440 O.2    84  MET84      -0.2864
     80  CB        21.7950   -5.2080   11.0640 C.3    84  MET84       0.0413
     81  CG        21.9490   -4.7720    9.6200 C.3    84  MET84       0.0598
     82  SD        23.6720   -4.4900    9.1720 S.3    84  MET84      -0.1393
     83  CE        23.5290   -4.4160    7.3900 C.3    84  MET84       0.0692
     84  N         16.8020   -7.6440   12.7660 N.3    87  LEU87      -0.1245
     85  CA        16.6570   -8.7130   11.7820 C.3    87  LEU87       0.1561
     86  C         17.3210   -9.9960   12.2620 C.2    87  LEU87       0.2260
     87  O         16.7410  -11.0850   12.1690 O.2    87  LEU87      -0.2867
     88  CB        17.2530   -8.2770   10.4420 C.3    87  LEU87       0.0270
     89  CG        17.4050   -9.3790    9.3910 C.3    87  LEU87       0.0019
     90  CD1       16.0420   -9.8590    8.9200 C.3    87  LEU87       0.0001
     91  CD2       18.2430   -8.9020    8.2190 C.3    87  LEU87       0.0001
     92  N         15.1990  -11.6170   15.0300 N.3    90  ARG90      -0.1245
     93  CA        13.9940  -12.2620   14.5200 C.3    90  ARG90       0.1563
     94  C         14.3000  -13.5530   13.7740 C.2    90  ARG90       0.2260
     95  O         13.4220  -14.4160   13.6680 O.2    90  ARG90      -0.2867
     96  CB        13.2270  -11.3150   13.5920 C.3    90  ARG90       0.0307
     97  CG        12.8320   -9.9950   14.2260 C.3    90  ARG90       0.0489
     98  CD        11.8170   -9.2460   13.3750 C.3    90  ARG90       0.2205
     99  NE        12.3140   -8.9150   12.0410 N.pl3  90  ARG90      -0.0865
    100  CZ        12.9950   -7.8100   11.7510 C.cat  90  ARG90       0.5346
    101  NH1       13.2760   -6.9310   12.7030 N.pl3  90  ARG90       0.1354
    102  NH2       13.3980   -7.5850   10.5080 N.pl3  90  ARG90       0.1354
    103  N         12.9880  -11.0500    7.3810 N.3   100  PHE100     -0.1241
    104  CA        12.7940   -9.6100    7.2500 C.3   100  PHE100      0.1605
    105  C         11.4070   -9.2060    7.7300 C.2   100  PHE100      0.2264
    106  O         11.2260   -8.1210    8.2950 O.2   100  PHE100     -0.2867
    107  CB        13.0170   -9.1800    5.8020 C.3   100  PHE100      0.0534
    108  CG        14.4580   -9.2330    5.3720 C.ar  100  PHE100     -0.0203
    109  CD1       15.2570   -8.1050    5.4410 C.ar  100  PHE100     -0.0042
    110  CD2       15.0140  -10.4130    4.9040 C.ar  100  PHE100     -0.0042
    111  CE1       16.5820   -8.1510    5.0510 C.ar  100  PHE100     -0.0003
    112  CE2       16.3370  -10.4650    4.5120 C.ar  100  PHE100     -0.0003
    113  CZ        17.1220   -9.3330    4.5850 C.ar  100  PHE100     -0.0000
    114  N         19.9040   -9.3880   -5.6380 N.3   114  VAL114     -0.1231
    115  CA        20.5060   -8.0600   -5.6760 C.3   114  VAL114      0.1692
    116  C         22.0180   -8.2250   -5.7300 C.2   114  VAL114      0.2592
    117  O         22.5910   -9.0200   -4.9740 O.2   114  VAL114     -0.2718
    118  CB        20.0830   -7.2180   -4.4600 C.3   114  VAL114      0.0266
    119  CG1       20.6870   -5.8240   -4.5420 C.3   114  VAL114      0.0020
    120  CG2       18.5680   -7.1370   -4.3790 C.3   114  VAL114      0.0020
    121  N         22.6610   -7.4800   -6.6260 N.am  115  GLU115     -0.1966
    122  CA        24.0960   -7.6200   -6.8390 C.3   115  GLU115      0.1733
    123  C         24.8700   -7.2110   -5.5920 C.2   115  GLU115      0.2617
    124  O         24.7500   -6.0770   -5.1170 O.2   115  GLU115     -0.2715
    125  CB        24.5300   -6.7750   -8.0360 C.3   115  GLU115      0.0429
    126  CG        23.8950   -7.1900   -9.3390 C.3   115  GLU115      0.1163
    127  CD        24.2950   -8.5400   -9.8420 C.2   115  GLU115      0.3649
    128  OE1       25.3110   -9.1200   -9.3750 O.co2 115  GLU115     -0.2457
    129  OE2       23.6350   -8.9710  -10.7990 O.co2 115  GLU115     -0.2457
    130  N         25.6640   -8.1410   -5.0620 N.am  116  GLY116     -0.1940
    131  CA        26.5140   -7.8750   -3.9220 C.3   116  GLY116      0.2014
    132  C         25.8490   -7.9800   -2.5680 C.2   116  GLY116      0.2638
    133  O         26.5000   -7.6890   -1.5560 O.2   116  GLY116     -0.2714
    134  N         24.5800   -8.3850   -2.5070 N.am  117  MET117     -0.1976
    135  CA        23.8950   -8.4640   -1.2220 C.3   117  MET117      0.1605
    136  C         24.1350   -9.7940   -0.5180 C.2   117  MET117      0.2287
    137  O         24.0330   -9.8620    0.7120 O.2   117  MET117     -0.2864
    138  CB        22.3960   -8.2340   -1.4150 C.3   117  MET117      0.0413
    139  CG        21.6280   -7.9990   -0.1240 C.3   117  MET117      0.0598
    140  SD        19.9000   -7.5720   -0.4110 S.3   117  MET117     -0.1393
    141  CE        19.3350   -9.0280   -1.2890 C.3   117  MET117      0.0692
    142  N         26.5620   -9.8240    2.4060 N.3   120  ILE120     -0.1231
    143  CA        26.0230   -9.3000    3.6570 C.3   120  ILE120      0.1692
    144  C         24.9770  -10.2500    4.2270 C.2   120  ILE120      0.2592
    145  O         24.8600  -10.4060    5.4500 O.2   120  ILE120     -0.2718
    146  CB        25.4590   -7.8860    3.4370 C.3   120  ILE120      0.0266
    147  CG1       26.5490   -6.9730    2.8700 C.3   120  ILE120      0.0019
    148  CG2       24.9110   -7.3280    4.7330 C.3   120  ILE120      0.0020
    149  CD1       26.0860   -5.5680    2.5830 C.3   120  ILE120      0.0001
    150  N         24.1990  -10.8950    3.3540 N.am  121  PHE121     -0.1976
    151  CA        23.2840  -11.9430    3.7970 C.3   121  PHE121      0.1639
    152  C         24.0250  -13.0240    4.5760 C.2   121  PHE121      0.2290
    153  O         23.5770  -13.4590    5.6430 O.2   121  PHE121     -0.2864
    154  CB        22.5670  -12.5520    2.5910 C.3   121  PHE121      0.0560
    155  CG        21.2100  -11.9650    2.3290 C.ar  121  PHE121     -0.0200
    156  CD1       20.1190  -12.7910    2.1130 C.ar  121  PHE121     -0.0042
    157  CD2       21.0200  -10.5920    2.3050 C.ar  121  PHE121     -0.0042
    158  CE1       18.8630  -12.2610    1.8720 C.ar  121  PHE121     -0.0003
    159  CE2       19.7650  -10.0550    2.0680 C.ar  121  PHE121     -0.0003
    160  CZ        18.6870  -10.8900    1.8490 C.ar  121  PHE121     -0.0000
    161  N         24.9390  -11.7190    7.9750 N.3   124  LEU124     -0.1245
    162  CA        23.7720  -11.6700    8.8490 C.3   124  LEU124      0.1561
    163  C         23.3650  -13.0660    9.3020 C.2   124  LEU124      0.2260
    164  O         22.9560  -13.2570   10.4530 O.2   124  LEU124     -0.2867
    165  CB        22.6130  -10.9780    8.1330 C.3   124  LEU124      0.0270
    166  CG        22.8010   -9.4910    7.8310 C.3   124  LEU124      0.0019
    167  CD1       21.7700   -9.0080    6.8220 C.3   124  LEU124      0.0001
    168  CD2       22.7150   -8.6800    9.1140 C.3   124  LEU124      0.0001
    169  N         27.1230   -2.3280    4.5380 N.3   209  GLY209     -0.1225
    170  CA        25.7820   -2.0990    4.0260 C.3   209  GLY209      0.1811
    171  C         25.5820   -0.6730    3.5500 C.2   209  GLY209      0.2280
    172  O         25.0770   -0.4380    2.4490 O.2   209  GLY209     -0.2866
    173  N         27.1920    0.1620    0.0770 N.3   212  HIS212     -0.1226
    174  CA        26.4000   -0.2060   -1.0900 C.3   212  HIS212      0.1752
    175  C         25.1330    0.6280   -1.2150 C.2   212  HIS212      0.2595
    176  O         24.5760    0.7250   -2.3140 O.2   212  HIS212     -0.2718
    177  CB        26.0310   -1.6890   -1.0380 C.3   212  HIS212      0.0759
    178  CG        27.1190   -2.6020   -1.5110 C.ar  212  HIS212      0.0818
    179  ND1       27.8780   -3.3660   -0.6510 N.ar  212  HIS212     -0.2268
    180  CD2       27.5720   -2.8770   -2.7570 C.ar  212  HIS212      0.1154
    181  CE1       28.7520   -4.0710   -1.3460 C.ar  212  HIS212      0.1986
    182  NE2       28.5880   -3.7930   -2.6270 N.ar  212  HIS212     -0.2212
    183  N         24.6690    1.2330   -0.1220 N.am  213  LEU213     -0.1980
    184  CA        23.4020    1.9550   -0.1570 C.3   213  LEU213      0.1596
    185  C         23.5490    3.3250   -0.8100 C.2   213  LEU213      0.2287
    186  O         22.7660    3.6780   -1.6990 O.2   213  LEU213     -0.2864
    187  CB        22.8280    2.0800    1.2540 C.3   213  LEU213      0.0297
    188  CG        22.0350    0.8700    1.7520 C.3   213  LEU213      0.0022
    189  CD1       21.5110    1.1040    3.1620 C.3   213  LEU213      0.0001
    190  CD2       20.8920    0.5660    0.7960 C.3   213  LEU213      0.0001
    191  N         23.9080    2.9930   -4.9110 N.3   216  MET216     -0.1245
    192  CA        22.7400    2.7400   -5.7450 C.3   216  MET216      0.1570
    193  C         21.6320    3.7430   -5.4420 C.2   216  MET216      0.2261
    194  O         20.4740    3.5320   -5.8010 O.2   216  MET216     -0.2867
    195  CB        22.2320    1.3120   -5.5350 C.3   216  MET216      0.0387
    196  CG        21.8230    1.0020   -4.1040 C.3   216  MET216      0.0595
    197  SD        21.2650   -0.7000   -3.8920 S.3   216  MET216     -0.1393
    198  CE        19.8740   -0.7390   -5.0190 C.3   216  MET216      0.0692
    199  N         15.0060    8.0340    4.6420 N.3   220  LEU220     -0.1245
    200  CA        16.1770    7.1910    4.4260 C.3   220  LEU220      0.1561
    201  C         17.2750    7.9500    3.6950 C.2   220  LEU220      0.2260
    202  O         18.4630    7.7490    3.9700 O.2   220  LEU220     -0.2867
    203  CB        15.7920    5.9320    3.6480 C.3   220  LEU220      0.0270
    204  CG        15.3320    4.7210    4.4580 C.3   220  LEU220      0.0019
    205  CD1       14.1170    5.0710    5.2800 C.3   220  LEU220      0.0001
    206  CD2       15.0300    3.5510    3.5420 C.3   220  LEU220      0.0001
    207  N         20.8140    8.0640    5.1160 N.3   224  LEU224     -0.1245
    208  CA        21.9030    7.6180    4.2530 C.3   224  LEU224      0.1561
    209  C         22.8850    8.7460    3.9650 C.2   224  LEU224      0.2260
    210  O         24.0780    8.4920    3.7590 O.2   224  LEU224     -0.2867
    211  CB        21.3290    7.0610    2.9500 C.3   224  LEU224      0.0270
    212  CG        22.2800    6.5350    1.8790 C.3   224  LEU224      0.0019
    213  CD1       23.0920    5.3850    2.4300 C.3   224  LEU224      0.0001
    214  CD2       21.5020    6.1040    0.6440 C.3   224  LEU224      0.0001
@<TRIPOS>BOND
     1   129   127   ar
     2   127   128   ar
     3   127   126    1
     4   126   125    1
     5   125   122    1
     6   122   121    1
     7   122   123    1
     8   121   116   am
     9   194   193    2
    10   192   195    1
    11   192   193    1
    12   192   191    1
    13   116   115    1
    14   116   117    2
    15   115   114    1
    16   115   118    1
    17   123   124    2
    18   123   130   am
    19   195   196    1
    20   130   131    1
    21   198   197    1
    22   119   118    1
    23   118   120    1
    24     6     5    1
    25     6     7    1
    26   196   197    1
    27     5     2    1
    28   131   132    1
    29     1     2    1
    30     2     3    1
    31   180   182   ar
    32   180   178   ar
    33     3     4    2
    34   182   181   ar
    35   132   134   am
    36   132   133    2
    37     7     8    1
    38   134   135    1
    39   176   175    2
    40   186   185    2
    41   178   177    1
    42   178   179   ar
    43   138   135    1
    44   138   139    1
    45   181   179   ar
    46   141   140    1
    47   135   136    1
    48   175   174    1
    49   175   183   am
    50   174   177    1
    51   174   173    1
    52   185   184    1
    53   136   137    2
    54    22    21    1
    55   140   139    1
    56   184   183    1
    57   184   187    1
    58    21    23    1
    59    21    18    1
    60     9    10    1
    61   214   212    1
    62    15    14    1
    63   190   188    1
    64    17    18    1
    65    17    11   am
    66    14    13    1
    67    14    16    1
    68   187   188    1
    69    18    19    1
    70    13    10    1
    71    10    11    1
    72   188   189    1
    73   160   158   ar
    74   160   159   ar
    75   158   156   ar
    76   212   213    1
    77   212   211    1
    78    11    12    2
    79    19    20    2
    80   159   157   ar
    81   156   155   ar
    82   157   155   ar
    83   155   154    1
    84   142   143    1
    85   172   171    2
    86   149   147    1
    87   154   151    1
    88   147   146    1
    89   211   208    1
    90   150   151    1
    91   150   144   am
    92   146   143    1
    93   146   148    1
    94   206   204    1
    95   171   170    1
    96   203   200    1
    97   203   204    1
    98   143   144    1
    99   201   202    2
   100   201   200    1
   101    24    25    1
   102   210   209    2
   103   151   152    1
   104   209   208    1
   105   170   169    1
   106   144   145    2
   107   208   207    1
   108   200   199    1
   109   204   205    1
   110   112   113   ar
   111   112   110   ar
   112   152   153    2
   113   113   111   ar
   114   110   108   ar
   115    28    25    1
   116    28    29    1
   117    25    26    1
   118   111   109   ar
   119   108   109   ar
   120   108   107    1
   121    32    26   am
   122    32    33    1
   123   107   104    1
   124    26    27    2
   125    36    33    1
   126    31    29    1
   127    29    30    1
   128    59    57   ar
   129    59    58   ar
   130    33    34    1
   131    57    55   ar
   132   167   166    1
   133    67    65    1
   134    34    35    2
   135   104   103    1
   136   104   105    1
   137    58    56   ar
   138    83    82    1
   139    66    65    1
   140   105   106    2
   141   166   165    1
   142   166   168    1
   143    55    54   ar
   144    55    53   ar
   145   161   162    1
   146    65    64    1
   147   165   162    1
   148    91    89    1
   149    54    52   ar
   150    56    53   ar
   151   162   163    1
   152    90    89    1
   153    64    61    1
   154    53    51   ar
   155    74    73    1
   156    44    43   ar
   157    82    81    1
   158   163   164    2
   159    89    88    1
   160    37    38    1
   161    81    80    1
   162    52    51   ar
   163    61    60    1
   164    61    62    1
   165    43    42    1
   166    43    45   ar
   167    51    50    1
   168    88    85    1
   169    42    41    1
   170    73    72    1
   171    73    75    1
   172   102   100    1
   173    41    38    1
   174    72    69    1
   175    38    39    1
   176    60    48   am
   177    63    62    2
   178    80    77    1
   179    39    40    2
   180    77    76    1
   181    77    78    1
   182    50    47    1
   183    48    49    2
   184    48    47    1
   185    71    70    2
   186   100    99    2
   187   100   101    1
   188    76    70   am
   189    85    86    1
   190    85    84    1
   191    70    69    1
   192    69    68    1
   193    99    98    1
   194    87    86    2
   195    47    46    1
   196    79    78    2
   197    98    97    1
   198    96    97    1
   199    96    93    1
   200    95    94    2
   201    94    93    1
   202    93    92    1
