@<TRIPOS>MOLECULE
tmp/5tm5A01.pdb
 186 175 0 0 0
SMALL
GASTEIGER

@<TRIPOS>ATOM
      1  N        -10.8430    5.9030   15.2600 N.3    39  MET39      -0.1245
      2  CA       -10.3930    4.7290   16.0020 C.3    39  MET39       0.1570
      3  C         -9.6920    3.7320   15.0900 C.2    39  MET39       0.2261
      4  O         -8.7110    3.0990   15.4950 O.2    39  MET39      -0.2867
      5  CB       -11.5730    4.0720   16.7160 C.3    39  MET39       0.0387
      6  CG       -11.9170    4.7220   18.0420 C.3    39  MET39       0.0595
      7  SD       -10.5370    4.6390   19.2010 S.3    39  MET39      -0.1393
      8  CE       -10.2780    2.8690   19.2980 C.3    39  MET39       0.0692
      9  N         -6.2710    5.0160   14.8830 N.3    42  LEU42      -0.1231
     10  CA        -5.5180    4.8140   16.1170 C.3    42  LEU42       0.1693
     11  C         -5.1820    3.3430   16.3230 C.2    42  LEU42       0.2592
     12  O         -4.0840    3.0130   16.7870 O.2    42  LEU42      -0.2718
     13  CB        -6.3010    5.3610   17.3120 C.3    42  LEU42       0.0284
     14  CG        -6.5540    6.8700   17.3290 C.3    42  LEU42       0.0019
     15  CD1       -7.0880    7.3110   18.6840 C.3    42  LEU42       0.0001
     16  CD2       -5.2930    7.6420   16.9670 C.3    42  LEU42       0.0001
     17  N         -6.1110    2.4470   15.9830 N.am   43  THR43      -0.1953
     18  CA        -5.8510    1.0180   16.1210 C.3    43  THR43       0.1897
     19  C         -4.7480    0.5640   15.1690 C.2    43  THR43       0.2313
     20  O         -3.8290   -0.1590   15.5710 O.2    43  THR43      -0.2863
     21  CB        -7.1340    0.2210   15.8750 C.3    43  THR43       0.1794
     22  OG1       -8.0840    0.5010   16.9130 O.3    43  THR43      -0.2208
     23  CG2       -6.8360   -1.2730   15.8530 C.3    43  THR43       0.0378
     24  N         -2.3470    2.3480   13.9000 N.3    45  LEU45      -0.1231
     25  CA        -1.0670    2.8880   14.3450 C.3    45  LEU45       0.1693
     26  C         -0.5230    2.1000   15.5300 C.2    45  LEU45       0.2591
     27  O          0.6500    1.7030   15.5450 O.2    45  LEU45      -0.2718
     28  CB        -1.2220    4.3640   14.7080 C.3    45  LEU45       0.0284
     29  CG         0.0540    5.0560   15.1920 C.3    45  LEU45       0.0019
     30  CD1        1.0140    5.2850   14.0310 C.3    45  LEU45       0.0001
     31  CD2       -0.2780    6.3660   15.8910 C.3    45  LEU45       0.0001
     32  N         -1.3720    1.8550   16.5310 N.am   46  ALA46      -0.1980
     33  CA        -0.9250    1.1700   17.7400 C.3    46  ALA46       0.1597
     34  C         -0.4970   -0.2590   17.4380 C.2    46  ALA46       0.2287
     35  O          0.4660   -0.7640   18.0270 O.2    46  ALA46      -0.2864
     36  CB        -2.0340    1.1900   18.7940 C.3    46  ALA46       0.0319
     37  N          2.8990    0.0650   16.0310 N.3    49  GLU49      -0.1245
     38  CA         3.8250    0.4170   17.1040 C.3    49  GLU49       0.1567
     39  C          4.1540   -0.7810   17.9870 C.2    49  GLU49       0.2260
     40  O          5.2680   -0.8710   18.5180 O.2    49  GLU49      -0.2867
     41  CB         3.2470    1.5450   17.9520 C.3    49  GLU49       0.0388
     42  CG         3.3060    2.9070   17.2980 C.3    49  GLU49       0.1160
     43  CD         2.7460    3.9930   18.1960 C.2    49  GLU49       0.3649
     44  OE1        1.5090    4.0580   18.3460 O.co2  49  GLU49      -0.2457
     45  OE2        3.5450    4.7650   18.7660 O.co2  49  GLU49      -0.2457
     46  N          2.0020   -2.8090   27.8620 N.3    79  TRP79      -0.1227
     47  CA         2.0630   -2.3210   26.4810 C.3    79  TRP79       0.1737
     48  C          1.3310   -0.9940   26.3060 C.2    79  TRP79       0.2595
     49  O          1.7990   -0.1160   25.5730 O.2    79  TRP79      -0.2718
     50  CB         1.5010   -3.3670   25.5130 C.3    79  TRP79       0.0564
     51  CG         0.0130   -3.5920   25.6150 C.ar   79  TRP79       0.0003
     52  CD1       -0.6250   -4.5000   26.4100 C.ar   79  TRP79       0.0946
     53  CD2       -1.0160   -2.9080   24.8830 C.ar   79  TRP79       0.0152
     54  NE1       -1.9870   -4.4180   26.2280 N.ar   79  TRP79      -0.2442
     55  CE2       -2.2530   -3.4500   25.2950 C.ar   79  TRP79       0.0810
     56  CE3       -1.0130   -1.8890   23.9250 C.ar   79  TRP79       0.0012
     57  CZ2       -3.4730   -3.0060   24.7800 C.ar   79  TRP79       0.0191
     58  CZ3       -2.2260   -1.4480   23.4170 C.ar   79  TRP79       0.0001
     59  CH2       -3.4380   -2.0070   23.8450 C.ar   79  TRP79       0.0015
     60  N          0.1840   -0.8230   26.9690 N.am   80  LEU80      -0.1980
     61  CA        -0.5690    0.4170   26.8000 C.3    80  LEU80       0.1596
     62  C          0.0970    1.5700   27.5410 C.2    80  LEU80       0.2287
     63  O          0.1280    2.6990   27.0380 O.2    80  LEU80      -0.2864
     64  CB        -2.0130    0.2340   27.2650 C.3    80  LEU80       0.0297
     65  CG        -2.9590    1.4140   27.0180 C.3    80  LEU80       0.0022
     66  CD1       -2.8810    1.8730   25.5700 C.3    80  LEU80       0.0001
     67  CD2       -4.3880    1.0360   27.3810 C.3    80  LEU80       0.0001
     68  N          2.9010    2.6770   25.2220 N.3    83  LEU83      -0.1231
     69  CA         2.3430    3.4940   24.1480 C.3    83  LEU83       0.1693
     70  C          1.9760    4.8870   24.6480 C.2    83  LEU83       0.2591
     71  O          2.2550    5.8880   23.9780 O.2    83  LEU83      -0.2718
     72  CB         1.1150    2.8140   23.5410 C.3    83  LEU83       0.0284
     73  CG         1.2850    1.5820   22.6500 C.3    83  LEU83       0.0019
     74  CD1       -0.0710    1.1280   22.1350 C.3    83  LEU83       0.0001
     75  CD2        2.2330    1.8590   21.4860 C.3    83  LEU83       0.0001
     76  N          1.3580    4.9720   25.8300 N.am   84  MET84      -0.1979
     77  CA         0.8700    6.2590   26.3140 C.3    84  MET84       0.1605
     78  C          2.0150    7.1950   26.6870 C.2    84  MET84       0.2287
     79  O          1.9360    8.4020   26.4330 O.2    84  MET84      -0.2864
     80  CB        -0.0640    6.0570   27.5080 C.3    84  MET84       0.0413
     81  CG        -1.4510    5.5380   27.1460 C.3    84  MET84       0.0598
     82  SD        -2.5090    5.4020   28.6080 S.3    84  MET84      -0.1393
     83  CE        -4.0990    5.1060   27.8360 C.3    84  MET84       0.0692
     84  N          3.4600    8.5150   23.5030 N.3    87  LEU87      -0.1245
     85  CA         2.5930    9.5610   22.9700 C.3    87  LEU87       0.1561
     86  C          2.7750   10.8680   23.7290 C.2    87  LEU87       0.2260
     87  O          2.8490   11.9430   23.1210 O.2    87  LEU87      -0.2867
     88  CB         1.1310    9.1160   23.0340 C.3    87  LEU87       0.0270
     89  CG         0.0810   10.2040   22.7800 C.3    87  LEU87       0.0019
     90  CD1        0.2090   10.7500   21.3630 C.3    87  LEU87       0.0001
     91  CD2       -1.3250    9.6710   23.0290 C.3    87  LEU87       0.0001
     92  N          6.1990   12.5260   22.7750 N.3    90  ARG90      -0.1245
     93  CA         6.1870   13.1710   21.4620 C.3    90  ARG90       0.1563
     94  C          5.3950   14.4690   21.4620 C.2    90  ARG90       0.2260
     95  O          5.6020   15.3080   20.5770 O.2    90  ARG90      -0.2867
     96  CB         5.5930   12.2470   20.3880 C.3    90  ARG90       0.0307
     97  CG         6.2580   10.8890   20.2420 C.3    90  ARG90       0.0489
     98  CD         5.8550   10.2050   18.9300 C.3    90  ARG90       0.2205
     99  NE         4.4230    9.9160   18.8180 N.pl3  90  ARG90      -0.0865
    100  CZ         3.8490    8.7960   19.2530 C.cat  90  ARG90       0.5346
    101  NH1        4.5790    7.8600   19.8460 N.pl3  90  ARG90       0.1354
    102  NH2        2.5450    8.6090   19.1000 N.pl3  90  ARG90       0.1354
    103  N         -0.1960   11.9250   17.8430 N.3   100  PHE100     -0.1241
    104  CA        -0.2280   10.4870   17.6010 C.3   100  PHE100      0.1605
    105  C          0.7560   10.0970   16.5050 C.2   100  PHE100      0.2264
    106  O          1.4070    9.0490   16.5880 O.2   100  PHE100     -0.2867
    107  CB        -1.6450   10.0480   17.2320 C.3   100  PHE100      0.0534
    108  CG        -2.6220   10.1250   18.3690 C.ar  100  PHE100     -0.0203
    109  CD1       -2.7620    9.0640   19.2500 C.ar  100  PHE100     -0.0042
    110  CD2       -3.4050   11.2520   18.5540 C.ar  100  PHE100     -0.0042
    111  CE1       -3.6660    9.1270   20.2990 C.ar  100  PHE100     -0.0003
    112  CE2       -4.3110   11.3210   19.5980 C.ar  100  PHE100     -0.0003
    113  CZ        -4.4390   10.2570   20.4740 C.ar  100  PHE100     -0.0000
    114  N        -13.7800    9.0310   25.3040 N.3   117  MET117     -0.1245
    115  CA       -12.3630    9.2580   25.0510 C.3   117  MET117      0.1570
    116  C        -11.8810   10.5950   25.6050 C.2   117  MET117      0.2261
    117  O        -10.6780   10.7530   25.8450 O.2   117  MET117     -0.2867
    118  CB       -12.0990    9.1780   23.5450 C.3   117  MET117      0.0387
    119  CG       -10.6490    9.3420   23.1270 C.3   117  MET117      0.0595
    120  SD        -9.7220    7.8000   23.1670 S.3   117  MET117     -0.1393
    121  CE       -10.4630    6.9500   21.7800 C.3   117  MET117      0.0692
    122  N         -9.8080   10.4630   28.8790 N.3   120  ILE120     -0.1231
    123  CA        -8.4680    9.9230   28.6800 C.3   120  ILE120      0.1692
    124  C         -7.5930   10.9250   27.9380 C.2   120  ILE120      0.2592
    125  O         -6.4000   11.0640   28.2330 O.2   120  ILE120     -0.2718
    126  CB        -8.5490    8.5700   27.9510 C.3   120  ILE120      0.0266
    127  CG1       -9.3080    7.5620   28.8220 C.3   120  ILE120      0.0019
    128  CG2       -7.1610    8.0540   27.6140 C.3   120  ILE120      0.0020
    129  CD1       -9.6010    6.2480   28.1430 C.3   120  ILE120      0.0001
    130  N         -8.1750   11.6570   26.9820 N.am  121  PHE121     -0.1976
    131  CA        -7.4220   12.6830   26.2660 C.3   121  PHE121      0.1639
    132  C         -6.9130   13.7620   27.2150 C.2   121  PHE121      0.2290
    133  O         -5.7520   14.1780   27.1260 O.2   121  PHE121     -0.2864
    134  CB        -8.2940   13.3070   25.1750 C.3   121  PHE121      0.0560
    135  CG        -7.9430   12.8650   23.7840 C.ar  121  PHE121     -0.0200
    136  CD1       -8.0390   11.5320   23.4200 C.ar  121  PHE121     -0.0042
    137  CD2       -7.5310   13.7850   22.8340 C.ar  121  PHE121     -0.0042
    138  CE1       -7.7230   11.1210   22.1390 C.ar  121  PHE121     -0.0003
    139  CE2       -7.2130   13.3820   21.5500 C.ar  121  PHE121     -0.0003
    140  CZ        -7.3100   12.0480   21.2020 C.ar  121  PHE121     -0.0000
    141  N         -3.9620   12.5750   29.2980 N.3   124  LEU124     -0.1245
    142  CA        -2.7360   12.5450   28.5070 C.3   124  LEU124      0.1561
    143  C         -2.1810   13.9510   28.3040 C.2   124  LEU124      0.2260
    144  O         -0.9680   14.1690   28.4150 O.2   124  LEU124     -0.2867
    145  CB        -2.9960   11.8570   27.1650 C.3   124  LEU124      0.0270
    146  CG        -3.3630   10.3690   27.2270 C.3   124  LEU124      0.0019
    147  CD1       -3.9950    9.9000   25.9220 C.3   124  LEU124      0.0001
    148  CD2       -2.1430    9.5250   27.5560 C.3   124  LEU124      0.0001
    149  N         -7.9360    3.4010   30.1320 N.3   212  GLY212     -0.1225
    150  CA        -7.9120    3.1530   28.7010 C.3   212  GLY212      0.1811
    151  C         -8.2250    1.7100   28.3630 C.2   212  GLY212      0.2280
    152  O         -8.9490    1.4290   27.4040 O.2   212  GLY212     -0.2866
    153  N        -11.8730    1.1600   28.3320 N.3   215  HIS215     -0.1226
    154  CA       -12.5120    1.7530   27.1620 C.3   215  HIS215      0.1752
    155  C        -12.2850    0.8890   25.9270 C.2   215  HIS215      0.2595
    156  O        -13.1750    0.7630   25.0780 O.2   215  HIS215     -0.2718
    157  CB       -11.9930    3.1750   26.9320 C.3   215  HIS215      0.0759
    158  CG       -12.7040    3.9090   25.8350 C.ar  215  HIS215      0.0818
    159  ND1      -12.0930    4.2460   24.6460 N.ar  215  HIS215     -0.2268
    160  CD2      -13.9750    4.3680   25.7470 C.ar  215  HIS215      0.1154
    161  CE1      -12.9560    4.8820   23.8740 C.ar  215  HIS215      0.1986
    162  NE2      -14.1060    4.9690   24.5170 N.ar  215  HIS215     -0.2212
    163  N        -11.1030    0.2770   25.8150 N.am  216  LEU216     -0.1980
    164  CA       -10.8460   -0.6340   24.7050 C.3   216  LEU216      0.1596
    165  C        -11.6520   -1.9190   24.8300 C.2   216  LEU216      0.2287
    166  O        -12.0480   -2.4980   23.8120 O.2   216  LEU216     -0.2864
    167  CB        -9.3550   -0.9620   24.6170 C.3   216  LEU216      0.0297
    168  CG        -8.4370    0.1550   24.1180 C.3   216  LEU216      0.0022
    169  CD1       -6.9890   -0.3130   24.0470 C.3   216  LEU216      0.0001
    170  CD2       -8.9080    0.6620   22.7590 C.3   216  LEU216      0.0001
    171  N        -10.2290   -4.2780   15.1970 N.3   227  LEU227     -0.1245
    172  CA        -9.2050   -4.6330   16.1700 C.3   227  LEU227      0.1561
    173  C         -8.3180   -5.7200   15.5830 C.2   227  LEU227      0.2260
    174  O         -8.8140   -6.7670   15.1550 O.2   227  LEU227     -0.2867
    175  CB        -9.8300   -5.1080   17.4870 C.3   227  LEU227      0.0270
    176  CG       -10.5180   -4.0400   18.3370 C.3   227  LEU227      0.0019
    177  CD1      -11.1920   -4.7160   19.5080 C.3   227  LEU227      0.0001
    178  CD2       -9.5440   -3.0130   18.8520 C.3   227  LEU227      0.0001
    179  N         -3.6430   -6.9580   18.9920 N.3   231  LEU231     -0.1245
    180  CA        -4.2510   -6.1020   20.0050 C.3   231  LEU231      0.1561
    181  C         -5.3580   -6.8240   20.7600 C.2   231  LEU231      0.2260
    182  O         -5.5420   -6.5900   21.9600 O.2   231  LEU231     -0.2867
    183  CB        -4.7870   -4.8240   19.3640 C.3   231  LEU231      0.0270
    184  CG        -3.7440   -3.7310   19.1290 C.3   231  LEU231      0.0019
    185  CD1       -4.3180   -2.6060   18.2850 C.3   231  LEU231      0.0001
    186  CD2       -3.2450   -3.1990   20.4600 C.3   231  LEU231      0.0001
@<TRIPOS>BOND
     1    24    25    1
     2    30    29    1
     3    25    28    1
     4    25    26    1
     5    28    29    1
     6     9    10    1
     7     3     4    2
     8     3     2    1
     9   174   173    2
    10    19    20    2
    11    19    18    1
    12    29    31    1
    13   171   172    1
    14     1     2    1
    15    26    27    2
    16    26    32   am
    17   173   172    1
    18    23    21    1
    19    21    18    1
    20    21    22    1
    21    17    18    1
    22    17    11   am
    23     2     5    1
    24    37    38    1
    25    10    11    1
    26    10    13    1
    27   172   175    1
    28    11    12    2
    29   105   106    2
    30   105   104    1
    31    32    33    1
    32     5     6    1
    33    16    14    1
    34    38    41    1
    35    38    39    1
    36   107   104    1
    37   107   108    1
    38    42    41    1
    39    42    43    1
    40    13    14    1
    41    14    15    1
    42    34    33    1
    43    34    35    2
    44   175   176    1
    45   104   103    1
    46    33    36    1
    47    39    40    2
    48     6     7    1
    49    43    44   ar
    50    43    45   ar
    51   185   184    1
    52   176   178    1
    53   176   177    1
    54   108   110   ar
    55   108   109   ar
    56   110   112   ar
    57    99    98    1
    58    99   100    2
    59    98    97    1
    60   179   180    1
    61   102   100    1
    62   184   183    1
    63   184   186    1
    64     7     8    1
    65   109   111   ar
    66   100   101    1
    67   183   180    1
    68   112   113   ar
    69   180   181    1
    70    97    96    1
    71   111   113   ar
    72    96    93    1
    73    95    94    2
    74   181   182    2
    75   140   139   ar
    76   140   138   ar
    77    90    89    1
    78    93    94    1
    79    93    92    1
    80    75    73    1
    81   139   137   ar
    82   121   120    1
    83    74    73    1
    84   138   136   ar
    85    73    72    1
    86   170   168    1
    87    89    91    1
    88    89    88    1
    89   137   135   ar
    90    85    88    1
    91    85    84    1
    92    85    86    1
    93    87    86    2
    94   119   120    1
    95   119   118    1
    96    58    59   ar
    97    58    56   ar
    98   136   135   ar
    99    72    69    1
   100   118   115    1
   101   135   134    1
   102   166   165    2
   103    59    57   ar
   104   161   162   ar
   105   161   159   ar
   106    56    53   ar
   107    71    70    2
   108   169   168    1
   109   168   167    1
   110    69    70    1
   111    69    68    1
   112   162   160   ar
   113   167   164    1
   114   159   158   ar
   115    70    76   am
   116   164   165    1
   117   164   163    1
   118    57    55   ar
   119    53    55   ar
   120    53    51   ar
   121   115   114    1
   122   115   116    1
   123   156   155    2
   124   134   131    1
   125    55    54   ar
   126    50    51    1
   127    50    47    1
   128    66    65    1
   129    49    48    2
   130   116   117    2
   131    51    52   ar
   132   160   158   ar
   133   163   155   am
   134    76    77    1
   135   158   157    1
   136   147   146    1
   137   155   154    1
   138    54    52   ar
   139   131   130    1
   140   131   132    1
   141    48    47    1
   142    48    60   am
   143    77    78    1
   144    77    80    1
   145    79    78    2
   146    47    46    1
   147    61    60    1
   148    61    64    1
   149    61    62    1
   150   157   154    1
   151   130   124   am
   152    65    64    1
   153    65    67    1
   154    63    62    2
   155   133   132    2
   156    81    80    1
   157    81    82    1
   158   154   153    1
   159   145   146    1
   160   145   142    1
   161   146   148    1
   162   152   151    2
   163   128   126    1
   164    83    82    1
   165   124   125    2
   166   124   123    1
   167   126   123    1
   168   126   127    1
   169   129   127    1
   170   143   144    2
   171   143   142    1
   172   151   150    1
   173   142   141    1
   174   123   122    1
   175   150   149    1
