@<TRIPOS>MOLECULE
tmp/5tm9A01.pdb
 177 167 0 0 0
SMALL
GASTEIGER

@<TRIPOS>ATOM
      1  N         14.5990   -4.6910   -3.6290 N.3    39  MET39      -0.1245
      2  CA        15.1390   -3.5240   -2.9420 C.3    39  MET39       0.1570
      3  C         14.0430   -2.5330   -2.5740 C.2    39  MET39       0.2261
      4  O         14.1920   -1.7830   -1.6040 O.2    39  MET39      -0.2867
      5  CB        16.2020   -2.8460   -3.8060 C.3    39  MET39       0.0387
      6  CG        17.4930   -3.6370   -3.9210 C.3    39  MET39       0.0595
      7  SD        18.2220   -3.9980   -2.3110 S.3    39  MET39      -0.1393
      8  CE        18.4530   -2.3440   -1.6620 C.3    39  MET39       0.0692
      9  N         12.4600   -4.1370    0.7140 N.3    42  LEU42      -0.1231
     10  CA        13.2850   -3.9280    1.8990 C.3    42  LEU42       0.1693
     11  C         13.3600   -2.4530    2.2730 C.2    42  LEU42       0.2592
     12  O         13.3890   -2.1100    3.4600 O.2    42  LEU42      -0.2718
     13  CB        14.6870   -4.4910    1.6670 C.3    42  LEU42       0.0284
     14  CG        14.7520   -5.9750    1.3120 C.3    42  LEU42       0.0019
     15  CD1       16.1830   -6.3980    1.0200 C.3    42  LEU42       0.0001
     16  CD2       14.1590   -6.8100    2.4330 C.3    42  LEU42       0.0001
     17  N         13.4070   -1.5650    1.2770 N.am   43  THR43      -0.1953
     18  CA        13.4190   -0.1340    1.5660 C.3    43  THR43       0.1897
     19  C         12.1200    0.2940    2.2340 C.2    43  THR43       0.2313
     20  O         12.1300    1.0250    3.2310 O.2    43  THR43      -0.2863
     21  CB        13.6510    0.6630    0.2810 C.3    43  THR43       0.1794
     22  OG1       14.9650    0.3920   -0.2230 O.3    43  THR43      -0.2208
     23  CG2       13.5080    2.1560    0.5410 C.3    43  THR43       0.0378
     24  N         10.0850   -1.5610    3.9570 N.3    45  LEU45      -0.1231
     25  CA        10.0230   -2.1310    5.2990 C.3    45  LEU45       0.1693
     26  C         10.9170   -1.3670    6.2700 C.2    45  LEU45       0.2591
     27  O         10.5110   -1.0780    7.4010 O.2    45  LEU45      -0.2718
     28  CB        10.4160   -3.6080    5.2590 C.3    45  LEU45       0.0284
     29  CG        10.4950   -4.3210    6.6100 C.3    45  LEU45       0.0019
     30  CD1        9.1250   -4.3700    7.2770 C.3    45  LEU45       0.0001
     31  CD2       11.0720   -5.7190    6.4410 C.3    45  LEU45       0.0001
     32  N         12.1340   -1.0240    5.8450 N.am   46  ALA46      -0.1980
     33  CA        13.0680   -0.3410    6.7350 C.3    46  ALA46       0.1597
     34  C         12.5910    1.0650    7.0750 C.2    46  ALA46       0.2287
     35  O         12.8020    1.5490    8.1930 O.2    46  ALA46      -0.2864
     36  CB        14.4610   -0.3040    6.1010 C.3    46  ALA46       0.0319
     37  N         10.0750    0.7630    9.8310 N.3    49  GLU49      -0.1245
     38  CA        10.7880    0.4510   11.0540 C.3    49  GLU49       0.1567
     39  C         11.4810    1.6340   11.6770 C.2    49  GLU49       0.2260
     40  O         11.6050    1.6990   12.8670 O.2    49  GLU49      -0.2867
     41  CB        11.7550   -0.6910   10.8780 C.3    49  GLU49       0.0388
     42  CG        11.1110   -2.0190   10.6610 C.3    49  GLU49       0.1160
     43  CD        12.1130   -3.1260   10.6580 C.2    49  GLU49       0.3649
     44  OE1       12.7850   -3.3160    9.6620 O.co2  49  GLU49      -0.2457
     45  OE2       12.2400   -3.8020   11.6640 O.co2  49  GLU49      -0.2457
     46  N         21.4550    3.4400   13.0680 N.3    79  TRP79      -0.1227
     47  CA        20.1320    2.9970   12.6330 C.3    79  TRP79       0.1737
     48  C         20.1970    1.6810   11.8650 C.2    79  TRP79       0.2595
     49  O         19.3220    0.8230   12.0210 O.2    79  TRP79      -0.2718
     50  CB        19.4490    4.0820   11.7960 C.3    79  TRP79       0.0564
     51  CG        20.0580    4.3440   10.4480 C.ar   79  TRP79       0.0003
     52  CD1       20.9780    5.3020   10.1350 C.ar   79  TRP79       0.0946
     53  CD2       19.7690    3.6530    9.2250 C.ar   79  TRP79       0.0152
     54  NE1       21.2870    5.2450    8.7980 N.ar   79  TRP79      -0.2442
     55  CE2       20.5590    4.2400    8.2170 C.ar   79  TRP79       0.0810
     56  CE3       18.9250    2.5900    8.8870 C.ar   79  TRP79       0.0012
     57  CZ2       20.5290    3.8020    6.8940 C.ar   79  TRP79       0.0191
     58  CZ3       18.8980    2.1560    7.5750 C.ar   79  TRP79       0.0001
     59  CH2       19.6950    2.7620    6.5940 C.ar   79  TRP79       0.0015
     60  N         21.2240    1.4950   11.0350 N.am   80  LEU80      -0.1980
     61  CA        21.3390    0.2330   10.3110 C.3    80  LEU80       0.1596
     62  C         21.8050   -0.8930   11.2250 C.2    80  LEU80       0.2287
     63  O         21.3710   -2.0410   11.0700 O.2    80  LEU80      -0.2864
     64  CB        22.2850    0.3850    9.1200 C.3    80  LEU80       0.0297
     65  CG        22.3160   -0.8100    8.1640 C.3    80  LEU80       0.0022
     66  CD1       20.9090   -1.1600    7.6960 C.3    80  LEU80       0.0001
     67  CD2       23.2260   -0.5340    6.9780 C.3    80  LEU80       0.0001
     68  N         18.6590   -1.9630   13.0360 N.3    83  LEU83      -0.1231
     69  CA        17.8470   -2.7700   12.1310 C.3    83  LEU83       0.1693
     70  C         18.4390   -4.1590   11.9550 C.2    83  LEU83       0.2591
     71  O         17.7070   -5.1540   11.8940 O.2    83  LEU83      -0.2718
     72  CB        17.7250   -2.0770   10.7750 C.3    83  LEU83       0.0284
     73  CG        16.8160   -0.8560   10.6810 C.3    83  LEU83       0.0019
     74  CD1       16.8000   -0.3340    9.2530 C.3    83  LEU83       0.0001
     75  CD2       15.4130   -1.2050   11.1500 C.3    83  LEU83       0.0001
     76  N         19.7680   -4.2450   11.8700 N.am   84  MET84      -0.1979
     77  CA        20.4160   -5.5250   11.6080 C.3    84  MET84       0.1605
     78  C         20.3400   -6.4480   12.8170 C.2    84  MET84       0.2287
     79  O         20.0570   -7.6430   12.6690 O.2    84  MET84      -0.2864
     80  CB        21.8680   -5.3010   11.1880 C.3    84  MET84       0.0413
     81  CG        22.0210   -4.8800    9.7340 C.3    84  MET84       0.0598
     82  SD        23.7330   -4.5820    9.2580 S.3    84  MET84      -0.1393
     83  CE        23.5510   -4.3130    7.4960 C.3    84  MET84       0.0692
     84  N         16.8140   -7.7920   12.9630 N.3    87  LEU87      -0.1245
     85  CA        16.6350   -8.8610   11.9850 C.3    87  LEU87       0.1561
     86  C         17.3300  -10.1410   12.4330 C.2    87  LEU87       0.2260
     87  O         16.7540  -11.2330   12.3680 O.2    87  LEU87      -0.2867
     88  CB        17.1700   -8.4150   10.6230 C.3    87  LEU87       0.0270
     89  CG        17.3760   -9.5350    9.6010 C.3    87  LEU87       0.0019
     90  CD1       16.0370  -10.0740    9.1150 C.3    87  LEU87       0.0001
     91  CD2       18.2380   -9.0690    8.4350 C.3    87  LEU87       0.0001
     92  N         15.3100  -11.7630   15.1960 N.3    90  ARG90      -0.1245
     93  CA        14.0900  -12.4090   14.7240 C.3    90  ARG90       0.1563
     94  C         14.3890  -13.7190   14.0070 C.2    90  ARG90       0.2260
     95  O         13.5560  -14.6330   14.0120 O.2    90  ARG90      -0.2867
     96  CB        13.3150  -11.4700   13.7960 C.3    90  ARG90       0.0307
     97  CG        12.8880  -10.1580   14.4350 C.3    90  ARG90       0.0489
     98  CD        11.8750   -9.4220   13.5650 C.3    90  ARG90       0.2205
     99  NE        12.4060   -9.0700   12.2500 N.pl3  90  ARG90      -0.0865
    100  CZ        12.9730   -7.9030   11.9610 C.cat  90  ARG90       0.5346
    101  NH1       13.0900   -6.9710   12.8980 N.pl3  90  ARG90       0.1354
    102  NH2       13.4240   -7.6660   10.7370 N.pl3  90  ARG90       0.1354
    103  N         13.0290  -11.2040    7.6870 N.3   100  PHE100     -0.1241
    104  CA        12.7840   -9.7740    7.5300 C.3   100  PHE100      0.1605
    105  C         11.3960   -9.3960    8.0270 C.2   100  PHE100      0.2264
    106  O         11.1970   -8.2930    8.5480 O.2   100  PHE100     -0.2867
    107  CB        12.9580   -9.3670    6.0660 C.3   100  PHE100      0.0534
    108  CG        14.3790   -9.4380    5.5830 C.ar  100  PHE100     -0.0203
    109  CD1       15.2200   -8.3460    5.7090 C.ar  100  PHE100     -0.0042
    110  CD2       14.8760  -10.5970    5.0080 C.ar  100  PHE100     -0.0042
    111  CE1       16.5290   -8.4050    5.2700 C.ar  100  PHE100     -0.0003
    112  CE2       16.1860  -10.6610    4.5660 C.ar  100  PHE100     -0.0003
    113  CZ        17.0130   -9.5640    4.6980 C.ar  100  PHE100     -0.0000
    114  N         19.8280   -9.4500   -5.4840 N.3   114  VAL114     -0.1245
    115  CA        20.4630   -8.1380   -5.4810 C.3   114  VAL114      0.1561
    116  C         21.9710   -8.3410   -5.4940 C.2   114  VAL114      0.2260
    117  O         22.5010   -9.1570   -4.7290 O.2   114  VAL114     -0.2867
    118  CB        20.0280   -7.2990   -4.2670 C.3   114  VAL114      0.0252
    119  CG1       20.6360   -5.9070   -4.3410 C.3   114  VAL114      0.0019
    120  CG2       18.5120   -7.2280   -4.1890 C.3   114  VAL114      0.0019
    121  N         24.5100   -8.3260   -2.1980 N.3   117  MET117     -0.1245
    122  CA        23.8010   -8.5430   -0.9440 C.3   117  MET117      0.1570
    123  C         24.0490   -9.9310   -0.3640 C.2   117  MET117      0.2261
    124  O         23.7800  -10.1510    0.8230 O.2   117  MET117     -0.2867
    125  CB        22.2970   -8.3130   -1.1500 C.3   117  MET117      0.0387
    126  CG        21.5060   -8.1340    0.1370 C.3   117  MET117      0.0595
    127  SD        19.8040   -7.6080   -0.1290 S.3   117  MET117     -0.1393
    128  CE        19.1510   -9.0140   -1.0240 C.3   117  MET117      0.0692
    129  N         26.5960   -9.8840    2.5340 N.3   120  ILE120     -0.1231
    130  CA        26.0080   -9.3570    3.7600 C.3   120  ILE120      0.1692
    131  C         24.9370  -10.3050    4.2790 C.2   120  ILE120      0.2592
    132  O         24.7410  -10.4400    5.4930 O.2   120  ILE120     -0.2718
    133  CB        25.4630   -7.9400    3.5120 C.3   120  ILE120      0.0266
    134  CG1       26.5970   -7.0460    2.9990 C.3   120  ILE120      0.0019
    135  CG2       24.8430   -7.3700    4.7760 C.3   120  ILE120      0.0020
    136  CD1       26.2970   -5.5710    3.0360 C.3   120  ILE120      0.0001
    137  N         24.2650  -10.9920    3.3960 N.am  121  PHE121     -0.1976
    138  CA        23.3450  -12.0030    3.8410 C.3   121  PHE121      0.1639
    139  C         24.0390  -13.0910    4.5920 C.2   121  PHE121      0.2290
    140  O         23.5500  -13.4810    5.6170 O.2   121  PHE121     -0.2864
    141  CB        22.6590  -12.6510    2.6550 C.3   121  PHE121      0.0560
    142  CG        21.2660  -12.2110    2.4390 C.ar  121  PHE121     -0.0200
    143  CD1       20.9710  -10.8890    2.2220 C.ar  121  PHE121     -0.0042
    144  CD2       20.2490  -13.1260    2.4270 C.ar  121  PHE121     -0.0042
    145  CE1       19.6780  -10.4780    2.0010 C.ar  121  PHE121     -0.0003
    146  CE2       18.9490  -12.7320    2.1970 C.ar  121  PHE121     -0.0003
    147  CZ        18.6650  -11.4050    1.9880 C.ar  121  PHE121     -0.0000
    148  N         24.9680  -11.8280    8.0570 N.3   124  LEU124     -0.1245
    149  CA        23.8100  -11.7800    8.9440 C.3   124  LEU124      0.1561
    150  C         23.4030  -13.1760    9.4000 C.2   124  LEU124      0.2260
    151  O         23.0110  -13.3680   10.5570 O.2   124  LEU124     -0.2867
    152  CB        22.6440  -11.0850    8.2410 C.3   124  LEU124      0.0270
    153  CG        22.8100   -9.5950    7.9430 C.3   124  LEU124      0.0019
    154  CD1       21.8910   -9.1670    6.8090 C.3   124  LEU124      0.0001
    155  CD2       22.5410   -8.7700    9.1940 C.3   124  LEU124      0.0001
    156  N         27.0350   -2.2620    4.4880 N.3   209  GLY209     -0.1225
    157  CA        25.7260   -1.9610    3.9340 C.3   209  GLY209      0.1811
    158  C         25.5840   -0.5100    3.5220 C.2   209  GLY209      0.2280
    159  O         24.9350   -0.2000    2.5190 O.2   209  GLY209     -0.2866
    160  N         26.8630    0.1150   -0.1440 N.3   212  HIS212     -0.1226
    161  CA        25.9590   -0.2140   -1.2390 C.3   212  HIS212      0.1752
    162  C         24.7790    0.7460   -1.3090 C.2   212  HIS212      0.2595
    163  O         24.2850    1.0370   -2.4040 O.2   212  HIS212     -0.2718
    164  CB        25.4640   -1.6520   -1.0950 C.3   212  HIS212      0.0759
    165  CG        26.5260   -2.6610   -1.3830 C.ar  212  HIS212      0.0818
    166  ND1       26.5130   -3.9370   -0.8930 N.ar  212  HIS212     -0.2268
    167  CD2       27.6640   -2.5870   -2.1370 C.ar  212  HIS212      0.1154
    168  CE1       27.5640   -4.6150   -1.3040 C.ar  212  HIS212      0.1986
    169  NE2       28.2860   -3.8030   -2.0720 N.ar  212  HIS212     -0.2212
    170  N         24.3130    1.2430   -0.1610 N.am  213  LEU213     -0.1980
    171  CA        23.2040    2.1910   -0.1710 C.3   213  LEU213      0.1596
    172  C         23.6290    3.5310   -0.7560 C.2   213  LEU213      0.2287
    173  O         22.8600    4.1680   -1.4860 O.2   213  LEU213     -0.2864
    174  CB        22.6490    2.3680    1.2420 C.3   213  LEU213      0.0297
    175  CG        21.8010    1.2080    1.7690 C.3   213  LEU213      0.0022
    176  CD1       21.3260    1.4830    3.1880 C.3   213  LEU213      0.0001
    177  CD2       20.6210    0.9550    0.8430 C.3   213  LEU213      0.0001
@<TRIPOS>BOND
     1   116   115    1
     2   116   117    2
     3   114   115    1
     4   115   118    1
     5   119   118    1
     6   118   120    1
     7     6     5    1
     8     6     7    1
     9     5     2    1
    10     1     2    1
    11     2     3    1
    12     3     4    2
    13   163   162    2
    14     7     8    1
    15   121   122    1
    16   167   169   ar
    17   167   165   ar
    18   169   168   ar
    19   173   172    2
    20   165   164    1
    21   165   166   ar
    22   162   161    1
    23   162   170   am
    24   168   166   ar
    25   161   164    1
    26   161   160    1
    27   125   122    1
    28   125   126    1
    29   128   127    1
    30   122   123    1
    31   172   171    1
    32   123   124    2
    33    22    21    1
    34   171   170    1
    35   171   174    1
    36   127   126    1
    37    21    23    1
    38    21    18    1
    39     9    10    1
    40   177   175    1
    41    15    14    1
    42   174   175    1
    43    17    18    1
    44    17    11   am
    45    14    13    1
    46    14    16    1
    47    18    19    1
    48    13    10    1
    49   175   176    1
    50    10    11    1
    51   147   145   ar
    52   147   146   ar
    53   145   143   ar
    54   146   144   ar
    55   143   142   ar
    56    19    20    2
    57    11    12    2
    58   144   142   ar
    59   142   141    1
    60   159   158    2
    61   129   130    1
    62   141   138    1
    63   134   136    1
    64   134   133    1
    65   137   138    1
    66   137   131   am
    67   133   130    1
    68   133   135    1
    69   158   157    1
    70   130   131    1
    71   138   139    1
    72   157   156    1
    73    24    25    1
    74   131   132    2
    75   112   113   ar
    76   112   110   ar
    77   139   140    2
    78   113   111   ar
    79   110   108   ar
    80    28    25    1
    81    28    29    1
    82   111   109   ar
    83    25    26    1
    84   108   109   ar
    85   108   107    1
    86    32    26   am
    87    32    33    1
    88   107   104    1
    89    36    33    1
    90    26    27    2
    91    31    29    1
    92    59    57   ar
    93    59    58   ar
    94    29    30    1
    95    33    34    1
    96   154   153    1
    97    57    55   ar
    98    67    65    1
    99    34    35    2
   100    83    82    1
   101   104   103    1
   102   104   105    1
   103    58    56   ar
   104    66    65    1
   105   153   152    1
   106   153   155    1
   107   105   106    2
   108   148   149    1
   109    65    64    1
   110    55    54   ar
   111    55    53   ar
   112   152   149    1
   113    91    89    1
   114    54    52   ar
   115    56    53   ar
   116   149   150    1
   117    90    89    1
   118    64    61    1
   119    53    51   ar
   120    74    73    1
   121    82    81    1
   122   150   151    2
   123    89    88    1
   124    44    43   ar
   125    81    80    1
   126    37    38    1
   127    52    51   ar
   128    61    60    1
   129    61    62    1
   130    51    50    1
   131    88    85    1
   132    43    42    1
   133    43    45   ar
   134    42    41    1
   135    73    72    1
   136    73    75    1
   137   102   100    1
   138    72    69    1
   139    41    38    1
   140    60    48   am
   141    38    39    1
   142    63    62    2
   143    80    77    1
   144    77    76    1
   145    77    78    1
   146    39    40    2
   147    50    47    1
   148    48    49    2
   149    48    47    1
   150    76    70   am
   151    71    70    2
   152    70    69    1
   153   100    99    2
   154   100   101    1
   155    85    86    1
   156    85    84    1
   157    69    68    1
   158    99    98    1
   159    87    86    2
   160    47    46    1
   161    79    78    2
   162    98    97    1
   163    96    97    1
   164    96    93    1
   165    94    95    2
   166    94    93    1
   167    93    92    1
