@<TRIPOS>MOLECULE
tmp/5tm9A02.pdb
 146 143 0 0 0
SMALL
GASTEIGER

@<TRIPOS>ATOM
      1  N          5.9060   -6.9290    5.6410 N.3    25  SER25      -0.1202
      2  CA         6.2950   -6.3720    4.3570 C.3    25  SER25       0.2020
      3  C          5.1120   -6.3990    3.3980 C.2    25  SER25       0.2619
      4  O          4.1190   -7.0990    3.6140 O.2    25  SER25      -0.2717
      5  CB         7.4720   -7.1440    3.7600 C.3    25  SER25       0.2103
      6  OG         7.0380   -8.3640    3.1830 O.3    25  SER25      -0.2182
      7  N          5.2270   -5.6150    2.3320 N.am   26  GLU26      -0.1965
      8  CA         4.2000   -5.6100    1.3020 C.3    26  GLU26       0.1733
      9  C          4.1600   -6.9560    0.5900 C.2    26  GLU26       0.2616
     10  O          5.1950   -7.5770    0.3390 O.2    26  GLU26      -0.2715
     11  CB         4.4590   -4.4890    0.2990 C.3    26  GLU26       0.0429
     12  CG         4.2500   -3.0950    0.8640 C.3    26  GLU26       0.1163
     13  CD         4.7870   -2.0120   -0.0500 C.2    26  GLU26       0.3649
     14  OE1        5.9450   -2.1350   -0.5030 O.co2  26  GLU26      -0.2457
     15  OE2        4.0500   -1.0410   -0.3210 O.co2  26  GLU26      -0.2457
     16  N          2.9530   -7.4100    0.2760 N.am   27  TYR27      -0.1960
     17  CA         2.7370   -8.6550   -0.4540 C.3    27  TYR27       0.1771
     18  C          1.9340   -8.3320   -1.7100 C.2    27  TYR27       0.2620
     19  O          0.7330   -8.6040   -1.7870 O.2    27  TYR27      -0.2715
     20  CB         2.0290   -9.6920    0.4280 C.3    27  TYR27       0.0574
     21  CG         2.0170  -11.0870   -0.1550 C.ar   27  TYR27      -0.0198
     22  CD1        3.1530  -11.8840   -0.1180 C.ar   27  TYR27      -0.0009
     23  CD2        0.8690  -11.6100   -0.7360 C.ar   27  TYR27      -0.0009
     24  CE1        3.1490  -13.1600   -0.6480 C.ar   27  TYR27       0.0417
     25  CE2        0.8550  -12.8860   -1.2680 C.ar   27  TYR27       0.0417
     26  CZ         1.9980  -13.6560   -1.2210 C.ar   27  TYR27       0.1957
     27  OH         1.9910  -14.9270   -1.7490 O.3    27  TYR27      -0.2866
     28  N          2.6080   -7.7370   -2.6960 N.am   28  ASP28      -0.1958
     29  CA         1.9730   -7.3030   -3.9310 C.3    28  ASP28       0.1825
     30  C          2.2570   -8.3190   -5.0290 C.2    28  ASP28       0.2464
     31  O          3.3700   -8.3370   -5.5770 O.2    28  ASP28      -0.2730
     32  CB         2.4810   -5.9160   -4.3330 C.3    28  ASP28       0.1450
     33  CG         1.7470   -5.3480   -5.5310 C.2    28  ASP28       0.3671
     34  OD1        0.6880   -5.8970   -5.9030 O.co2  28  ASP28      -0.2456
     35  OD2        2.2240   -4.3420   -6.0960 O.co2  28  ASP28      -0.2456
     36  N          1.3010   -9.1840   -5.3860 N.am   29  PRO29      -0.2727
     37  CA         1.5420  -10.1500   -6.4700 C.3    29  PRO29       0.1402
     38  C          1.6720   -9.5120   -7.8380 C.2    29  PRO29       0.2269
     39  O          2.1020  -10.1950   -8.7770 O.2    29  PRO29      -0.2865
     40  CB         0.3100  -11.0660   -6.4120 C.3    29  PRO29       0.0296
     41  CG        -0.2970  -10.8250   -5.0690 C.3    29  PRO29       0.0237
     42  CD        -0.0060   -9.3940   -4.7480 C.3    29  PRO29       0.0939
     43  N          3.7340   -7.0750   -8.4390 N.3    31  ARG31      -0.1231
     44  CA         5.1450   -6.7690   -8.5990 C.3    31  ARG31       0.1679
     45  C          5.9030   -8.0180   -9.0490 C.2    31  ARG31       0.2434
     46  O          5.6210   -9.1240   -8.5740 O.2    31  ARG31      -0.2733
     47  CB         5.7250   -6.2360   -7.2890 C.3    31  ARG31       0.0321
     48  CG         5.3500   -4.8040   -7.0350 C.3    31  ARG31       0.0489
     49  CD         5.8070   -4.4790   -5.6230 C.3    31  ARG31       0.2205
     50  NE         6.6340   -3.2850   -5.5770 N.pl3  31  ARG31      -0.0865
     51  CZ         6.7800   -2.5420   -4.4910 C.cat  31  ARG31       0.5346
     52  NH1        6.1540   -2.8810   -3.3730 N.pl3  31  ARG31       0.1354
     53  NH2        7.5440   -1.4690   -4.5330 N.pl3  31  ARG31       0.1354
     54  N          6.8480   -7.8830   -9.9740 N.am   32  PRO32      -0.2718
     55  CA         7.6160   -9.0390  -10.4420 C.3    32  PRO32       0.1535
     56  C          8.7670   -9.3780   -9.5060 C.2    32  PRO32       0.2599
     57  O          9.1140   -8.6190   -8.6010 O.2    32  PRO32      -0.2715
     58  CB         8.1330   -8.5790  -11.8090 C.3    32  PRO32       0.0310
     59  CG         8.3220   -7.1050  -11.6230 C.3    32  PRO32       0.0237
     60  CD         7.2310   -6.6510  -10.6820 C.3    32  PRO32       0.0939
     61  N          9.3600  -10.5450   -9.7630 N.am   33  PHE33      -0.1960
     62  CA        10.5040  -11.0320   -9.0020 C.3    33  PHE33       0.1771
     63  C         11.7720  -10.4790   -9.6400 C.2    33  PHE33       0.2620
     64  O         12.3950  -11.1140  -10.4910 O.2    33  PHE33      -0.2715
     65  CB        10.5000  -12.5530   -8.9760 C.3    33  PHE33       0.0574
     66  CG         9.5870  -13.1440   -7.9390 C.ar   33  PHE33      -0.0200
     67  CD1       10.0350  -13.3110   -6.6440 C.ar   33  PHE33      -0.0042
     68  CD2        8.2940  -13.5380   -8.2530 C.ar   33  PHE33      -0.0042
     69  CE1        9.2160  -13.8530   -5.6750 C.ar   33  PHE33      -0.0003
     70  CE2        7.4730  -14.0800   -7.2850 C.ar   33  PHE33      -0.0003
     71  CZ         7.9340  -14.2370   -5.9970 C.ar   33  PHE33      -0.0000
     72  N         12.1620   -9.2760   -9.2250 N.am   34  SER34      -0.1950
     73  CA        13.3320   -8.5960   -9.7590 C.3    34  SER34       0.1924
     74  C         14.1280   -7.9940   -8.6120 C.2    34  SER34       0.2314
     75  O         13.6920   -7.9900   -7.4580 O.2    34  SER34      -0.2863
     76  CB        12.9350   -7.5060  -10.7640 C.3    34  SER34       0.2116
     77  OG        12.1220   -6.5200  -10.1510 O.3    34  SER34      -0.2180
     78  N         12.4720   -4.7090   -7.3880 N.3    37  SER37      -0.1202
     79  CA        11.2970   -5.0120   -6.5810 C.3    37  SER37       0.2020
     80  C         11.6980   -5.4670   -5.1830 C.2    37  SER37       0.2618
     81  O         11.0560   -5.0950   -4.1930 O.2    37  SER37      -0.2717
     82  CB        10.4460   -6.0730   -7.2760 C.3    37  SER37       0.2103
     83  OG        10.0050   -5.6240   -8.5460 O.3    37  SER37      -0.2182
     84  N         12.7630   -6.2670   -5.0830 N.am   38  MET38      -0.1979
     85  CA        13.2360   -6.7140   -3.7770 C.3    38  MET38       0.1605
     86  C         13.8160   -5.5550   -2.9760 C.2    38  MET38       0.2287
     87  O         13.5630   -5.4360   -1.7720 O.2    38  MET38      -0.2864
     88  CB        14.2750   -7.8200   -3.9510 C.3    38  MET38       0.0413
     89  CG        14.4880   -8.6770   -2.7190 C.3    38  MET38       0.0598
     90  SD        15.7860   -9.9010   -2.9670 S.3    38  MET38      -0.1393
     91  CE        15.2560  -11.1810   -1.8360 C.3    38  MET38       0.0692
     92  N         11.0090   -3.5890   -1.6540 N.3    41  LEU41      -0.1245
     93  CA        10.3530   -4.2270   -0.5170 C.3    41  LEU41       0.1561
     94  C         11.1340   -3.9830    0.7690 C.2    41  LEU41       0.2260
     95  O         10.5530   -3.6480    1.8070 O.2    41  LEU41      -0.2867
     96  CB        10.1990   -5.7260   -0.7830 C.3    41  LEU41       0.0270
     97  CG         8.9830   -6.4320   -0.1850 C.3    41  LEU41       0.0019
     98  CD1        7.7120   -5.9520   -0.8660 C.3    41  LEU41       0.0001
     99  CD2        9.1260   -7.9410   -0.3080 C.3    41  LEU41       0.0001
    100  N          5.9470  -12.4260    6.9700 N.3   103  ASN103     -0.1225
    101  CA         5.5750  -12.7470    5.5990 C.3   103  ASN103      0.1785
    102  C          6.7190  -12.5020    4.6210 C.2   103  ASN103      0.2597
    103  O          6.4760  -12.2900    3.4300 O.2   103  ASN103     -0.2718
    104  CB         4.3440  -11.9430    5.1800 C.3   103  ASN103      0.1169
    105  CG         4.6280  -10.4570    5.0730 C.2   103  ASN103      0.2627
    106  OD1        5.5090   -9.9330    5.7550 O.2   103  ASN103     -0.2716
    107  ND2        3.8820   -9.7700    4.2150 N.am  103  ASN103     -0.0877
    108  N          7.9650  -12.5170    5.1020 N.am  104  LEU104     -0.1966
    109  CA         9.1290  -12.3180    4.2340 C.3   104  LEU104      0.1728
    110  C         10.3140  -13.0390    4.8820 C.2   104  LEU104      0.2616
    111  O         11.1020  -12.4340    5.6110 O.2   104  LEU104     -0.2715
    112  CB         9.4210  -10.8410    4.0130 C.3   104  LEU104      0.0311
    113  CG        10.5200  -10.5180    2.9970 C.3   104  LEU104      0.0022
    114  CD1       10.1710  -11.0740    1.6220 C.3   104  LEU104      0.0001
    115  CD2       10.7690   -9.0180    2.9270 C.3   104  LEU104      0.0001
    116  N         10.4250  -14.3340    4.6020 N.am  105  LEU105     -0.1963
    117  CA        11.5010  -15.1750    5.1100 C.3   105  LEU105      0.1728
    118  C         12.3690  -15.6020    3.9330 C.2   105  LEU105      0.2616
    119  O         11.8900  -16.2800    3.0180 O.2   105  LEU105     -0.2715
    120  CB        10.9360  -16.3910    5.8460 C.3   105  LEU105      0.0311
    121  CG        11.9100  -17.3440    6.5390 C.3   105  LEU105      0.0022
    122  CD1       12.7050  -16.6220    7.6100 C.3   105  LEU105      0.0001
    123  CD2       11.1560  -18.5210    7.1370 C.3   105  LEU105      0.0001
    124  N         13.6390  -15.2060    3.9570 N.am  106  LEU106     -0.1977
    125  CA        14.5390  -15.3800    2.8250 C.3   106  LEU106      0.1596
    126  C         15.7770  -16.1660    3.2310 C.2   106  LEU106      0.2287
    127  O         16.3430  -15.9400    4.3040 O.2   106  LEU106     -0.2864
    128  CB        14.9620  -14.0260    2.2550 C.3   106  LEU106      0.0297
    129  CG        13.8290  -13.0730    1.8840 C.3   106  LEU106      0.0022
    130  CD1       14.3770  -11.6840    1.6090 C.3   106  LEU106      0.0001
    131  CD2       13.0620  -13.6010    0.6830 C.3   106  LEU106      0.0001
    132  N         17.8740  -16.7740   -2.2520 N.3   110  GLN110     -0.1245
    133  CA        17.0280  -15.6440   -2.6110 C.3   110  GLN110      0.1566
    134  C         17.7370  -14.3110   -2.4160 C.2   110  GLN110      0.2260
    135  O         17.3620  -13.3250   -3.0580 O.2   110  GLN110     -0.2867
    136  CB        15.7400  -15.6760   -1.7900 C.3   110  GLN110      0.0367
    137  CG        14.9490  -16.9620   -1.9470 C.3   110  GLN110      0.0905
    138  CD        13.8260  -17.0810   -0.9370 C.2   110  GLN110      0.2608
    139  OE1       14.0620  -17.3500    0.2400 O.2   110  GLN110     -0.2717
    140  NE2       12.5950  -16.8780   -1.3920 N.am  110  GLN110     -0.0878
    141  N         19.4010  -12.1660   -5.4650 N.3   113  CYS113     -0.1235
    142  CA        18.6510  -11.3700   -6.4310 C.3   113  CYS113      0.1677
    143  C         19.2080   -9.9570   -6.5470 C.2   113  CYS113      0.2270
    144  O         19.0860   -9.3250   -7.6040 O.2   113  CYS113     -0.2867
    145  CB        17.1710  -11.3330   -6.0440 C.3   113  CYS113      0.0956
    146  SG        16.0540  -10.8880   -7.3970 S.3   113  CYS113     -0.0801
@<TRIPOS>BOND
     1    58    59    1
     2    58    55    1
     3    59    60    1
     4    76    77    1
     5    76    73    1
     6    60    54    1
     7    64    63    2
     8    55    54    1
     9    55    56    1
    10    54    45   am
    11    61    56   am
    12    61    62    1
    13    73    72    1
    14    73    74    1
    15    63    72   am
    16    63    62    1
    17    56    57    2
    18    45    44    1
    19    45    46    2
    20    62    65    1
    21    65    66    1
    22    39    38    2
    23    74    75    2
    24    44    43    1
    25    44    47    1
    26    83    82    1
    27    68    66   ar
    28    68    70   ar
    29    66    67   ar
    30    38    37    1
    31   144   143    2
    32   146   145    1
    33    78    79    1
    34    47    48    1
    35    70    71   ar
    36    82    79    1
    37    48    49    1
    38    67    69   ar
    39    79    80    1
    40   143   142    1
    41    37    40    1
    42    37    36    1
    43   142   145    1
    44   142   141    1
    45    40    41    1
    46    35    33   ar
    47    71    69   ar
    48    34    33   ar
    49    49    50    1
    50    31    30    2
    51    50    51    2
    52    33    32    1
    53    36    30   am
    54    36    42    1
    55    80    84   am
    56    80    81    2
    57    84    85    1
    58    41    42    1
    59    30    29    1
    60    53    51    1
    61    51    52    1
    62    32    29    1
    63    88    85    1
    64    88    89    1
    65    29    28    1
    66    85    86    1
    67   135   134    2
    68    86    87    2
    69    90    89    1
    70    90    91    1
    71    28    18   am
    72   133   134    1
    73   133   132    1
    74   133   136    1
    75   137   136    1
    76   137   138    1
    77    19    18    2
    78    27    26    1
    79    18    17    1
    80    92    93    1
    81   140   138   am
    82    25    26   ar
    83    25    23   ar
    84    26    24   ar
    85   138   139    2
    86    98    97    1
    87    96    93    1
    88    96    97    1
    89    23    21   ar
    90    24    22   ar
    91    93    94    1
    92    14    13   ar
    93    17    16    1
    94    17    20    1
    95    15    13   ar
    96    99    97    1
    97    21    22   ar
    98    21    20    1
    99    13    12    1
   100    16     9   am
   101    11    12    1
   102    11     8    1
   103    10     9    2
   104     9     8    1
   105   131   129    1
   106    94    95    2
   107     8     7    1
   108   130   129    1
   109   114   113    1
   110   129   128    1
   111   128   125    1
   112     7     3   am
   113   125   126    1
   114   125   124    1
   115   115   113    1
   116   113   112    1
   117   119   118    2
   118     6     5    1
   119   126   127    2
   120     3     4    2
   121     3     2    1
   122   103   102    2
   123     5     2    1
   124   118   124   am
   125   118   117    1
   126   112   109    1
   127   107   105   am
   128   109   110    1
   129   109   108    1
   130     2     1    1
   131   116   110   am
   132   116   117    1
   133   102   108   am
   134   102   101    1
   135   110   111    2
   136   105   104    1
   137   105   106    2
   138   117   120    1
   139   104   101    1
   140   101   100    1
   141   120   121    1
   142   121   123    1
   143   121   122    1
