@<TRIPOS>MOLECULE
tmp/5tmaA00.pdb
 153 147 0 0 0
SMALL
GASTEIGER

@<TRIPOS>ATOM
      1  N         30.8690   36.6640    0.6140 N.3    82  ASP82      -0.1239
      2  CA        31.0390   37.3050    1.9250 C.3    82  ASP82       0.1674
      3  C         30.2900   38.6770    1.9380 C.2    82  ASP82       0.2266
      4  O         29.4510   38.9960    2.8410 O.2    82  ASP82      -0.2867
      5  CB        32.4780   37.3220    2.3010 C.3    82  ASP82       0.1410
      6  CG        32.7340   37.5870    3.7760 C.2    82  ASP82       0.3668
      7  OD1       31.8910   38.1840    4.4720 O.co2  82  ASP82      -0.2456
      8  OD2       33.8160   37.1440    4.2510 O.co2  82  ASP82      -0.2456
      9  N         24.3440   42.2620   20.0710 N.3   290  TYR290     -0.1241
     10  CA        25.0890   43.5160   20.1130 C.3   290  TYR290      0.1605
     11  C         24.1610   44.6380   20.4550 C.2   290  TYR290      0.2264
     12  O         24.4960   45.4900   21.2890 O.2   290  TYR290     -0.2867
     13  CB        25.9280   43.8020   18.7880 C.3   290  TYR290      0.0534
     14  CG        27.2880   43.1220   18.6870 C.ar  290  TYR290     -0.0201
     15  CD1       27.6780   42.0810   19.5380 C.ar  290  TYR290     -0.0009
     16  CD2       28.1850   43.4660   17.6360 C.ar  290  TYR290     -0.0009
     17  CE1       28.9300   41.4700   19.4220 C.ar  290  TYR290      0.0417
     18  CE2       29.4570   42.8870   17.5110 C.ar  290  TYR290      0.0417
     19  CZ        29.8460   41.9100   18.3950 C.ar  290  TYR290      0.1957
     20  OH        31.1390   41.3160   18.2840 O.3   290  TYR290     -0.2866
     21  N         33.2220   49.1740   11.9000 N.3   388  THR388     -0.1203
     22  CA        33.2820   48.3200   13.1120 C.3   388  THR388      0.1994
     23  C         34.5740   48.5230   13.8230 C.2   388  THR388      0.2618
     24  O         35.6190   48.4480   13.2160 O.2   388  THR388     -0.2717
     25  CB        33.1100   46.8320   12.7420 C.3   388  THR388      0.1784
     26  OG1       31.7760   46.6640   12.2010 O.3   388  THR388     -0.2211
     27  CG2       33.2740   46.0180   13.9170 C.3   388  THR388      0.0376
     28  N         34.4830   48.8400   15.0890 N.am  389  GLY389     -0.1942
     29  CA        35.6670   49.2710   15.8450 C.3   389  GLY389      0.2014
     30  C         35.2170   50.3300   16.8100 C.2   389  GLY389      0.2639
     31  O         34.0040   50.5980   16.9460 O.2   389  GLY389     -0.2714
     32  N         36.1590   50.9900   17.4800 N.am  390  ASP390     -0.1957
     33  CA        35.7330   52.1630   18.2970 C.3   390  ASP390      0.1840
     34  C         34.9800   53.2540   17.5030 C.2   390  ASP390      0.2622
     35  O         34.1970   53.9780   18.1150 O.2   390  ASP390     -0.2715
     36  CB        36.9020   52.8060   19.0760 C.3   390  ASP390      0.1450
     37  CG        36.4390   53.4720   20.3870 C.2   390  ASP390      0.3671
     38  OD1       35.3490   53.1040   20.9150 O.co2 390  ASP390     -0.2456
     39  OD2       37.1480   54.3920   20.8750 O.co2 390  ASP390     -0.2456
     40  N         35.1850   53.3490   16.1540 N.am  391  SER391     -0.1950
     41  CA        34.4840   54.2750   15.3410 C.3   391  SER391      0.1924
     42  C         32.9730   54.1100   15.4650 C.2   391  SER391      0.2314
     43  O         32.2720   55.0750   15.2700 O.2   391  SER391     -0.2863
     44  CB        34.9020   54.1510   13.8480 C.3   391  SER391      0.2116
     45  OG        36.2580   54.6210   13.6240 O.3   391  SER391     -0.2180
     46  N         29.0110   43.2770   10.3340 N.3   413  GLY413     -0.1210
     47  CA        30.2460   43.5880   11.1240 C.3   413  GLY413      0.1956
     48  C         31.5490   43.0740   10.5540 C.2   413  GLY413      0.2612
     49  O         32.3570   42.5530   11.2840 O.2   413  GLY413     -0.2717
     50  N         31.7430   43.1810    9.2280 N.am  414  HIS414     -0.1961
     51  CA        32.9530   42.6870    8.5710 C.3   414  HIS414      0.1787
     52  C         33.9590   43.8060    8.5860 C.2   414  HIS414      0.2620
     53  O         33.7710   44.7790    7.8550 O.2   414  HIS414     -0.2715
     54  CB        32.6060   42.2900    7.1370 C.3   414  HIS414      0.0785
     55  CG        33.7160   41.6640    6.4120 C.ar  414  HIS414      0.0821
     56  ND1       34.9090   42.3120    6.1690 N.ar  414  HIS414     -0.2267
     57  CD2       33.8080   40.4780    5.7620 C.ar  414  HIS414      0.1154
     58  CE1       35.7110   41.5070    5.4830 C.ar  414  HIS414      0.1986
     59  NE2       35.0600   40.4070    5.2140 N.ar  414  HIS414     -0.2212
     60  N         35.0280   43.6800    9.3830 N.am  415  ILE415     -0.1977
     61  CA        35.9740   44.7840    9.4240 C.3   415  ILE415      0.1596
     62  C         36.5790   44.9220    8.0460 C.2   415  ILE415      0.2287
     63  O         36.7970   43.9510    7.3250 O.2   415  ILE415     -0.2864
     64  CB        37.0000   44.6450   10.5280 C.3   415  ILE415      0.0276
     65  CG1       37.8150   43.3720   10.4410 C.3   415  ILE415      0.0022
     66  CG2       36.2900   44.8550   11.8690 C.3   415  ILE415      0.0022
     67  CD1       39.1690   43.4760   11.1790 C.3   415  ILE415      0.0001
     68  N         39.3480   52.3940   11.4400 N.3   439  GLY439     -0.1210
     69  CA        40.5110   51.9870   12.2210 C.3   439  GLY439      0.1956
     70  C         41.5900   51.3350   11.3760 C.2   439  GLY439      0.2612
     71  O         41.3440   50.7920   10.2870 O.2   439  GLY439     -0.2717
     72  N         42.7950   51.3680   11.9160 N.am  440  ASP440     -0.1959
     73  CA        43.9810   50.7850   11.2460 C.3   440  ASP440      0.1840
     74  C         43.7860   49.3290   10.9110 C.2   440  ASP440      0.2623
     75  O         44.0830   48.9100    9.7840 O.2   440  ASP440     -0.2715
     76  CB        45.2520   51.0510   12.0440 C.3   440  ASP440      0.1450
     77  CG        45.1910   50.4850   13.5180 C.2   440  ASP440      0.3671
     78  OD1       44.0890   50.3910   14.1540 O.co2 440  ASP440     -0.2456
     79  OD2       46.2370   50.0800   14.0500 O.co2 440  ASP440     -0.2456
     80  N         43.3280   48.5220   11.8550 N.am  441  GLY441     -0.1940
     81  CA        43.0760   47.0920   11.6450 C.3   441  GLY441      0.2014
     82  C         42.1420   46.7320   10.5500 C.2   441  GLY441      0.2639
     83  O         42.4460   45.8990    9.6880 O.2   441  GLY441     -0.2714
     84  N         41.0170   47.3930   10.5540 N.am  442  SER442     -0.1949
     85  CA        40.0290   47.2830    9.4810 C.3   442  SER442      0.1924
     86  C         40.5630   47.7070    8.1550 C.2   442  SER442      0.2314
     87  O         40.3360   47.0070    7.1460 O.2   442  SER442     -0.2863
     88  CB        38.8060   48.1320    9.8130 C.3   442  SER442      0.2116
     89  OG        38.1820   47.6080   11.0040 O.3   442  SER442     -0.2180
     90  N         42.3810   45.2630    5.7030 N.3   445  LEU445     -0.1245
     91  CA        41.7010   44.1850    4.9670 C.3   445  LEU445      0.1561
     92  C         41.3350   44.5150    3.5270 C.2   445  LEU445      0.2260
     93  O         41.2490   43.6210    2.6710 O.2   445  LEU445     -0.2867
     94  CB        40.4430   43.7200    5.7080 C.3   445  LEU445      0.0270
     95  CG        40.6630   42.7850    6.8880 C.3   445  LEU445      0.0019
     96  CD1       40.7720   43.6070    8.1460 C.3   445  LEU445      0.0001
     97  CD2       39.4850   41.8150    7.0020 C.3   445  LEU445      0.0001
     98  N         42.2230   55.9330   12.0050 N.3   465  ILE465     -0.1245
     99  CA        42.5440   56.0070   13.4500 C.3   465  ILE465      0.1561
    100  C         43.6140   55.0060   13.7480 C.2   465  ILE465      0.2260
    101  O         43.3520   53.7680   13.8030 O.2   465  ILE465     -0.2867
    102  CB        41.2920   55.7580   14.3070 C.3   465  ILE465      0.0252
    103  CG1       40.1320   56.6020   13.8000 C.3   465  ILE465      0.0019
    104  CG2       41.6260   55.9790   15.7850 C.3   465  ILE465      0.0019
    105  CD1       40.3380   58.0520   13.7250 C.3   465  ILE465      0.0001
    106  N         45.5870   53.4540   16.1830 N.3   467  ASN467     -0.1240
    107  CA        45.7860   53.0280   17.5860 C.3   467  ASN467      0.1653
    108  C         46.5200   51.6460   17.6890 C.2   467  ASN467      0.2266
    109  O         46.3860   50.9270   18.6800 O.2   467  ASN467     -0.2867
    110  CB        44.4310   53.0280   18.3460 C.3   467  ASN467      0.1155
    111  CG        43.4580   52.0240   17.8160 C.2   467  ASN467      0.2627
    112  OD1       43.8450   51.1800   16.9880 O.2   467  ASN467     -0.2716
    113  ND2       42.2160   52.0260   18.3310 N.am  467  ASN467     -0.0877
    114  N         46.4500   48.4850   16.4230 N.3   469  GLY469     -0.1210
    115  CA        45.8100   47.1460   16.5040 C.3   469  GLY469      0.1956
    116  C         44.2890   47.1360   16.6870 C.2   469  GLY469      0.2612
    117  O         43.6140   48.1560   16.4450 O.2   469  GLY469     -0.2717
    118  N         43.7660   45.9910   17.1710 N.am  470  TYR470     -0.1962
    119  CA        42.3060   45.7770   17.1920 C.3   470  TYR470      0.1771
    120  C         41.7640   46.1260   18.5990 C.2   470  TYR470      0.2620
    121  O         41.5820   45.2330   19.4690 O.2   470  TYR470     -0.2715
    122  CB        41.9710   44.3020   16.9500 C.3   470  TYR470      0.0574
    123  CG        42.4290   43.7080   15.6350 C.ar  470  TYR470     -0.0198
    124  CD1       42.3880   44.4120   14.4320 C.ar  470  TYR470     -0.0009
    125  CD2       42.7090   42.3340   15.5810 C.ar  470  TYR470     -0.0009
    126  CE1       42.7240   43.7940   13.2140 C.ar  470  TYR470      0.0417
    127  CE2       43.1020   41.7110   14.4020 C.ar  470  TYR470      0.0417
    128  CZ        43.1110   42.4280   13.2140 C.ar  470  TYR470      0.1957
    129  OH        43.4750   41.7760   11.9810 O.3   470  TYR470     -0.2866
    130  N         41.5610   47.4130   18.8290 N.am  471  THR471     -0.1937
    131  CA        41.2520   47.8710   20.1940 C.3   471  THR471      0.2028
    132  C         39.9020   47.3490   20.6720 C.2   471  THR471      0.2642
    133  O         39.7590   46.9560   21.8230 O.2   471  THR471     -0.2714
    134  CB        41.4550   49.4040   20.2820 C.3   471  THR471      0.1808
    135  OG1       42.8870   49.6580   20.2590 O.3   471  THR471     -0.2208
    136  CG2       40.8160   50.0180   21.5820 C.3   471  THR471      0.0379
    137  N         38.8900   47.3470   19.8160 N.am  472  ILE472     -0.1963
    138  CA        37.6140   46.6780   20.2300 C.3   472  ILE472      0.1727
    139  C         37.8010   45.1900   20.7370 C.2   472  ILE472      0.2616
    140  O         37.2360   44.8100   21.7720 O.2   472  ILE472     -0.2715
    141  CB        36.5920   46.8000   19.0760 C.3   472  ILE472      0.0290
    142  CG1       35.2040   46.2970   19.4390 C.3   472  ILE472      0.0022
    143  CG2       37.0990   46.0640   17.8630 C.3   472  ILE472      0.0023
    144  CD1       34.1530   46.7650   18.4160 C.3   472  ILE472      0.0001
    145  N         38.6460   44.3900   20.0460 N.am  473  GLU473     -0.1977
    146  CA        38.9190   43.0040   20.4970 C.3   473  GLU473      0.1602
    147  C         39.6810   43.0530   21.8240 C.2   473  GLU473      0.2287
    148  O         39.4690   42.1720   22.7010 O.2   473  GLU473     -0.2864
    149  CB        39.7370   42.1630   19.4870 C.3   473  GLU473      0.0415
    150  CG        39.1920   42.0810   18.0890 C.3   473  GLU473      0.1163
    151  CD        37.8810   41.3500   18.0380 C.2   473  GLU473      0.3649
    152  OE1       37.9350   40.1910   17.6780 O.co2 473  GLU473     -0.2457
    153  OE2       36.8160   41.9240   18.3680 O.co2 473  GLU473     -0.2457
@<TRIPOS>BOND
     1     1     2    1
     2     2     3    1
     3     2     5    1
     4     3     4    2
     5     5     6    1
     6    93    92    2
     7    92    91    1
     8     6     8   ar
     9     6     7   ar
    10    91    90    1
    11    91    94    1
    12    59    58   ar
    13    59    57   ar
    14    58    56   ar
    15    94    95    1
    16    57    55   ar
    17    56    55   ar
    18    55    54    1
    19    95    97    1
    20    95    96    1
    21    54    51    1
    22    87    86    2
    23    63    62    2
    24    53    52    2
    25    62    61    1
    26    86    85    1
    27    51    52    1
    28    51    50    1
    29    52    60   am
    30    50    48   am
    31    60    61    1
    32    61    64    1
    33    85    88    1
    34    85    84    1
    35    83    82    2
    36    75    74    2
    37    88    89    1
    38    71    70    2
    39    46    47    1
    40    65    64    1
    41    65    67    1
    42    64    66    1
    43    82    84   am
    44    82    81    1
    45    48    47    1
    46    48    49    2
    47    74    73    1
    48    74    80   am
    49    73    72    1
    50    73    76    1
    51    70    72   am
    52    70    69    1
    53    68    69    1
    54    81    80    1
    55    21    22    1
    56   129   128    1
    57    98    99    1
    58    76    77    1
    59    26    25    1
    60    25    22    1
    61    25    27    1
    62    22    23    1
    63   126   128   ar
    64   126   124   ar
    65   128   127   ar
    66    24    23    2
    67    99   100    1
    68    99   102    1
    69    77    79   ar
    70    77    78   ar
    71    45    44    1
    72   105   103    1
    73   100   101    2
    74   103   102    1
    75    23    28   am
    76    44    41    1
    77   102   104    1
    78   127   125   ar
    79   124   123   ar
    80    28    29    1
    81    43    42    2
    82    41    42    1
    83    41    40    1
    84   125   123   ar
    85   123   122    1
    86    29    30    1
    87    40    34   am
    88   106   107    1
    89   114   115    1
    90   117   116    2
    91   115   116    1
    92   116   118   am
    93    30    31    2
    94    30    32   am
    95   122   119    1
    96   112   111    2
    97   118   119    1
    98   119   120    1
    99    32    33    1
   100    34    35    2
   101    34    33    1
   102    18    16   ar
   103    18    19   ar
   104   107   108    1
   105   107   110    1
   106    16    14   ar
   107   152   151   ar
   108   108   109    2
   109   111   113   am
   110   111   110    1
   111   143   141    1
   112   151   150    1
   113   151   153   ar
   114   150   149    1
   115    20    19    1
   116    33    36    1
   117    19    17   ar
   118   144   142    1
   119   120   130   am
   120   120   121    2
   121    14    13    1
   122    14    15   ar
   123    13    10    1
   124   130   131    1
   125    36    37    1
   126   141   142    1
   127   141   138    1
   128    17    15   ar
   129   149   146    1
   130   137   138    1
   131   137   132   am
   132   145   146    1
   133   145   139   am
   134     9    10    1
   135    10    11    1
   136   131   134    1
   137   131   132    1
   138   138   139    1
   139   135   134    1
   140   134   136    1
   141    37    39   ar
   142    37    38   ar
   143    11    12    2
   144   146   147    1
   145   132   133    2
   146   139   140    2
   147   147   148    2
