@<TRIPOS>MOLECULE
tmp/5tmbA00.pdb
 201 198 0 0 0
SMALL
GASTEIGER

@<TRIPOS>ATOM
      1  N         19.3240  -35.9750    4.3380 N.3    11  GLN11      -0.1231
      2  CA        18.5370  -35.9590    5.5690 C.3    11  GLN11       0.1698
      3  C         18.7930  -37.1980    6.4190 C.2    11  GLN11       0.2593
      4  O         18.8750  -37.1220    7.6420 O.2    11  GLN11      -0.2718
      5  CB        17.0520  -35.8640    5.2580 C.3    11  GLN11       0.0381
      6  CG        16.2000  -35.5330    6.4820 C.3    11  GLN11       0.0905
      7  CD        16.2830  -34.0600    6.8450 C.2    11  GLN11       0.2608
      8  OE1       15.5410  -33.2310    6.3000 O.2    11  GLN11      -0.2717
      9  NE2       17.1930  -33.7210    7.7650 N.am   11  GLN11      -0.0878
     10  N         18.9360  -38.3390    5.7610 N.am   12  GLY12      -0.1942
     11  CA        19.1290  -39.5850    6.4690 C.3    12  GLY12       0.2014
     12  C         20.4980  -39.7140    7.1140 C.2    12  GLY12       0.2638
     13  O         20.7640  -40.6480    7.8740 O.2    12  GLY12      -0.2714
     14  N         21.3910  -38.7910    6.7900 N.am   13  HIS13      -0.1973
     15  CA        22.7180  -38.8450    7.3620 C.3    13  HIS13       0.1656
     16  C         22.8700  -37.6840    8.3420 C.2    13  HIS13       0.2291
     17  O         23.5170  -37.8250    9.3890 O.2    13  HIS13      -0.2864
     18  CB        23.7920  -38.8160    6.2550 C.3    13  HIS13       0.0771
     19  CG        23.8320  -40.0600    5.4100 C.ar   13  HIS13       0.0820
     20  ND1       24.9490  -40.4440    4.6960 N.ar   13  HIS13      -0.2267
     21  CD2       22.8940  -41.0080    5.1690 C.ar   13  HIS13       0.1154
     22  CE1       24.6980  -41.5690    4.0500 C.ar   13  HIS13       0.1986
     23  NE2       23.4590  -41.9360    4.3240 N.ar   13  HIS13      -0.2212
     24  N         20.3650  -36.1110   10.1540 N.3    15  ASN15      -0.1240
     25  CA        19.5720  -36.2740   11.3720 C.3    15  ASN15       0.1653
     26  C         20.2860  -37.0780   12.4750 C.2    15  ASN15       0.2266
     27  O         20.4160  -36.5900   13.5930 O.2    15  ASN15      -0.2867
     28  CB        18.2080  -36.9070   11.0430 C.3    15  ASN15       0.1155
     29  CG        17.1990  -35.8860   10.5510 C.2    15  ASN15       0.2627
     30  OD1       17.4580  -34.6810   10.5970 O.2    15  ASN15      -0.2716
     31  ND2       16.0370  -36.3580   10.0940 N.am   15  ASN15      -0.0877
     32  N         14.0160  -33.4330   15.3100 N.3   247  TYR247     -0.1241
     33  CA        15.2040  -33.1570   14.5080 C.3   247  TYR247      0.1605
     34  C         15.1940  -31.6720   14.1920 C.2   247  TYR247      0.2264
     35  O         14.1280  -31.1070   13.9140 O.2   247  TYR247     -0.2867
     36  CB        15.2140  -33.9640   13.2220 C.3   247  TYR247      0.0534
     37  CG        15.3250  -35.4520   13.3920 C.ar  247  TYR247     -0.0201
     38  CD1       14.2960  -36.2820   12.9670 C.ar  247  TYR247     -0.0009
     39  CD2       16.4700  -36.0320   13.9270 C.ar  247  TYR247     -0.0009
     40  CE1       14.3800  -37.6410   13.0910 C.ar  247  TYR247      0.0417
     41  CE2       16.5780  -37.4030   14.0570 C.ar  247  TYR247      0.0417
     42  CZ        15.5130  -38.2060   13.6360 C.ar  247  TYR247      0.1957
     43  OH        15.5750  -39.5810   13.7280 O.3   247  TYR247     -0.2866
     44  N         15.6280  -29.9330    9.2610 N.3   250  ASN250     -0.1240
     45  CA        14.8450  -30.4450    8.1410 C.3   250  ASN250      0.1653
     46  C         15.2560  -29.7820    6.8290 C.2   250  ASN250      0.2266
     47  O         15.3050  -28.5600    6.7310 O.2   250  ASN250     -0.2867
     48  CB        13.3460  -30.2380    8.3880 C.3   250  ASN250      0.1155
     49  CG        12.7980  -31.1510    9.4760 C.2   250  ASN250      0.2627
     50  OD1       13.3250  -32.2380    9.7170 O.2   250  ASN250     -0.2716
     51  ND2       11.7390  -30.7080   10.1410 N.am  250  ASN250     -0.0877
     52  N          5.4410  -43.5210    3.0750 N.3   274  SER274     -0.1202
     53  CA         6.5870  -42.6940    2.6930 C.3   274  SER274      0.2020
     54  C          7.6780  -43.5440    2.0690 C.2   274  SER274      0.2619
     55  O          7.9870  -44.6200    2.5630 O.2   274  SER274     -0.2717
     56  CB         7.1490  -41.9510    3.9050 C.3   274  SER274      0.2103
     57  OG         8.2480  -41.1380    3.5320 O.3   274  SER274     -0.2182
     58  N          8.2780  -43.0730    0.9880 N.am  275  TYR275     -0.1961
     59  CA         9.4670  -43.7550    0.5150 C.3   275  TYR275      0.1771
     60  C         10.6970  -42.8400    0.7030 C.2   275  TYR275      0.2620
     61  O         11.7020  -42.9640    0.0100 O.2   275  TYR275     -0.2715
     62  CB         9.2990  -44.2300   -0.9310 C.3   275  TYR275      0.0574
     63  CG         8.7740  -43.2080   -1.8850 C.ar  275  TYR275     -0.0198
     64  CD1        9.6330  -42.3160   -2.5100 C.ar  275  TYR275     -0.0009
     65  CD2        7.4150  -43.1320   -2.1800 C.ar  275  TYR275     -0.0009
     66  CE1        9.1600  -41.3550   -3.4040 C.ar  275  TYR275      0.0417
     67  CE2        6.9280  -42.1750   -3.0720 C.ar  275  TYR275      0.0417
     68  CZ         7.8150  -41.2910   -3.6820 C.ar  275  TYR275      0.1957
     69  OH         7.3660  -40.3380   -4.5600 O.3   275  TYR275     -0.2866
     70  N         10.6060  -41.9400    1.6740 N.am  276  GLY276     -0.1940
     71  CA        11.7560  -41.1810    2.1360 C.3   276  GLY276      0.2014
     72  C         12.0080  -39.9060    1.3650 C.2   276  GLY276      0.2640
     73  O         11.1190  -39.3710    0.6900 O.2   276  GLY276     -0.2714
     74  N         13.2450  -39.4290    1.4480 N.am  277  THR277     -0.1936
     75  CA        13.5990  -38.1130    0.9200 C.3   277  THR277      0.2028
     76  C         14.5510  -38.1790   -0.2800 C.2   277  THR277      0.2642
     77  O         14.9710  -37.1480   -0.7860 O.2   277  THR277     -0.2714
     78  CB        14.2610  -37.2420    2.0190 C.3   277  THR277      0.1808
     79  OG1       15.5480  -37.7890    2.3650 O.3   277  THR277     -0.2208
     80  CG2       13.3800  -37.1810    3.2660 C.3   277  THR277      0.0379
     81  N         14.8900  -39.3780   -0.7370 N.am  278  VAL278     -0.1963
     82  CA        15.8810  -39.5250   -1.8100 C.3   278  VAL278      0.1727
     83  C         15.2860  -40.2260   -3.0270 C.2   278  VAL278      0.2616
     84  O         15.4030  -39.7510   -4.1640 O.2   278  VAL278     -0.2715
     85  CB        17.1040  -40.3230   -1.3230 C.3   278  VAL278      0.0290
     86  CG1       18.1840  -40.4140   -2.4170 C.3   278  VAL278      0.0023
     87  CG2       17.6580  -39.7000   -0.0320 C.3   278  VAL278      0.0023
     88  N         14.6440  -41.3640   -2.7770 N.am  279  SER279     -0.1950
     89  CA        14.0190  -42.1350   -3.8500 C.3   279  SER279      0.1924
     90  C         12.9570  -41.3540   -4.6220 C.2   279  SER279      0.2314
     91  O         12.3380  -40.4260   -4.0910 O.2   279  SER279     -0.2863
     92  CB        13.4010  -43.4200   -3.2940 C.3   279  SER279      0.2116
     93  OG        14.3720  -44.3930   -2.9280 O.3   279  SER279     -0.2180
     94  N          2.8210  -39.3330    2.3900 N.3   303  VAL303     -0.1245
     95  CA         3.8390  -38.3420    2.0760 C.3   303  VAL303      0.1561
     96  C          4.2670  -38.4200    0.6140 C.2   303  VAL303      0.2260
     97  O          4.9930  -39.3430    0.2130 O.2   303  VAL303     -0.2867
     98  CB         5.1010  -38.5070    2.9500 C.3   303  VAL303      0.0252
     99  CG1        6.0710  -37.3490    2.6940 C.3   303  VAL303      0.0019
    100  CG2        4.7170  -38.5650    4.4150 C.3   303  VAL303      0.0019
    101  N          5.5360  -33.1740    3.3520 N.3   329  PHE329     -0.1227
    102  CA         6.4760  -33.5850    4.3980 C.3   329  PHE329      0.1736
    103  C          5.6540  -33.7270    5.6620 C.2   329  PHE329      0.2596
    104  O          4.6300  -33.0660    5.8020 O.2   329  PHE329     -0.2718
    105  CB         7.6070  -32.5540    4.5760 C.3   329  PHE329      0.0547
    106  CG         8.9250  -33.1350    5.0780 C.ar  329  PHE329     -0.0202
    107  CD1        9.6190  -34.0930    4.3360 C.ar  329  PHE329     -0.0042
    108  CD2        9.4860  -32.6870    6.2640 C.ar  329  PHE329     -0.0042
    109  CE1       10.8320  -34.6120    4.7810 C.ar  329  PHE329     -0.0003
    110  CE2       10.7000  -33.2000    6.7210 C.ar  329  PHE329     -0.0003
    111  CZ        11.3760  -34.1620    5.9740 C.ar  329  PHE329     -0.0000
    112  N          6.0620  -34.5890    6.5800 N.am  330  CYS330     -0.1957
    113  CA         5.3590  -34.6380    7.8450 C.3   330  CYS330      0.1828
    114  C          6.3680  -34.7370    8.9800 C.2   330  CYS330      0.2467
    115  O          7.5080  -35.1500    8.7640 O.2   330  CYS330     -0.2730
    116  CB         4.3820  -35.8140    7.8700 C.3   330  CYS330      0.0996
    117  SG         5.1770  -37.4110    8.0840 S.3   330  CYS330     -0.0797
    118  N          5.9630  -34.3340   10.1950 N.am  331  PRO331     -0.2715
    119  CA         6.8040  -34.6150   11.3680 C.3   331  PRO331      0.1536
    120  C          6.7180  -36.1150   11.6670 C.2   331  PRO331      0.2598
    121  O          5.8970  -36.5470   12.4970 O.2   331  PRO331     -0.2715
    122  CB         6.1720  -33.7570   12.4660 C.3   331  PRO331      0.0310
    123  CG         4.7060  -33.6950   12.0630 C.3   331  PRO331      0.0237
    124  CD         4.6920  -33.6800   10.5600 C.3   331  PRO331      0.0939
    125  N          7.5530  -36.8920   10.9740 N.am  332  GLN332     -0.1964
    126  CA         7.3810  -38.3340   10.8670 C.3   332  GLN332      0.1733
    127  C          7.4530  -39.0370   12.2160 C.2   332  GLN332      0.2616
    128  O          6.6750  -39.9470   12.4770 O.2   332  GLN332     -0.2715
    129  CB         8.4100  -38.9180    9.8760 C.3   332  GLN332      0.0408
    130  CG         8.6780  -40.4260   10.0030 C.3   332  GLN332      0.0908
    131  CD         9.2720  -41.0160    8.7390 C.2   332  GLN332      0.2608
    132  OE1        8.9310  -40.6000    7.6340 O.2   332  GLN332     -0.2717
    133  NE2       10.1630  -41.9850    8.8910 N.am  332  GLN332     -0.0878
    134  N          8.3530  -38.6000   13.0870 N.am  333  LEU333     -0.1977
    135  CA         8.4390  -39.1960   14.4080 C.3   333  LEU333      0.1596
    136  C          7.2010  -38.8830   15.2310 C.2   333  LEU333      0.2287
    137  O          6.6800  -39.7510   15.9510 O.2   333  LEU333     -0.2864
    138  CB         9.6960  -38.7110   15.1440 C.3   333  LEU333      0.0297
    139  CG        10.8570  -39.7070   15.1180 C.3   333  LEU333      0.0022
    140  CD1       12.1590  -39.0580   15.5710 C.3   333  LEU333      0.0001
    141  CD2       10.5440  -40.9540   15.9490 C.3   333  LEU333      0.0001
    142  N          9.7800  -47.3690    2.7400 N.3   347  HIS347     -0.1241
    143  CA        10.8320  -47.9240    1.8850 C.3   347  HIS347      0.1621
    144  C         11.9150  -48.5730    2.7390 C.2   347  HIS347      0.2264
    145  O         12.8090  -49.2530    2.2300 O.2   347  HIS347     -0.2867
    146  CB        11.4170  -46.8410    0.9880 C.3   347  HIS347      0.0745
    147  CG        12.2600  -45.8460    1.7180 C.ar  347  HIS347      0.0817
    148  ND1       11.8440  -45.2320    2.8830 N.ar  347  HIS347     -0.2268
    149  CD2       13.5040  -45.3730    1.4640 C.ar  347  HIS347      0.1154
    150  CE1       12.7930  -44.4150    3.3100 C.ar  347  HIS347      0.1986
    151  NE2       13.8110  -44.4820    2.4680 N.ar  347  HIS347     -0.2212
    152  N         14.3120  -47.1160    4.6060 N.3   349  GLY349     -0.1210
    153  CA        15.5290  -46.4100    4.9530 C.3   349  GLY349      0.1956
    154  C         15.7710  -46.6110    6.4430 C.2   349  GLY349      0.2612
    155  O         14.8390  -46.8270    7.2340 O.2   349  GLY349     -0.2717
    156  N         17.0290  -46.5410    6.8470 N.am  350  TRP350     -0.1962
    157  CA        17.3680  -46.9570    8.1890 C.3   350  TRP350      0.1771
    158  C         16.7700  -46.0180    9.2570 C.2   350  TRP350      0.2620
    159  O         16.3170  -46.4860   10.2970 O.2   350  TRP350     -0.2715
    160  CB        18.8920  -47.0660    8.3030 C.3   350  TRP350      0.0590
    161  CG        19.4110  -47.6400    9.5650 C.ar  350  TRP350      0.0006
    162  CD1       20.4070  -47.1130   10.3450 C.ar  350  TRP350      0.0946
    163  CD2       19.0010  -48.8600   10.2110 C.ar  350  TRP350      0.0152
    164  NE1       20.6470  -47.9360   11.4310 N.ar  350  TRP350     -0.2442
    165  CE2       19.7940  -49.0060   11.3760 C.ar  350  TRP350      0.0810
    166  CE3       18.0500  -49.8390    9.9220 C.ar  350  TRP350      0.0012
    167  CZ2       19.6610  -50.0820   12.2400 C.ar  350  TRP350      0.0191
    168  CZ3       17.9140  -50.9100   10.7840 C.ar  350  TRP350      0.0001
    169  CH2       18.7180  -51.0290   11.9270 C.ar  350  TRP350      0.0015
    170  N         16.7460  -44.7100    9.0130 N.am  351  ASN351     -0.1958
    171  CA        16.1690  -43.8250   10.0340 C.3   351  ASN351      0.1819
    172  C         14.6630  -44.1070   10.2000 C.2   351  ASN351      0.2622
    173  O         14.1880  -44.2680   11.3180 O.2   351  ASN351     -0.2715
    174  CB        16.4190  -42.3600    9.7070 C.3   351  ASN351      0.1195
    175  CG        17.8980  -42.0400    9.5630 C.2   351  ASN351      0.2630
    176  OD1       18.6580  -42.0670   10.5300 O.2   351  ASN351     -0.2716
    177  ND2       18.3120  -41.7540    8.3440 N.am  351  ASN351     -0.0877
    178  N         13.9470  -44.2430    9.0890 N.am  352  SER352     -0.1950
    179  CA        12.5220  -44.5730    9.1290 C.3   352  SER352      0.1924
    180  C         12.2830  -45.8570    9.9060 C.2   352  SER352      0.2314
    181  O         11.3710  -45.9300   10.7270 O.2   352  SER352     -0.2863
    182  CB        11.9590  -44.6930    7.7140 C.3   352  SER352      0.2116
    183  OG        11.9420  -43.4230    7.0920 O.3   352  SER352     -0.2180
    184  N         12.8810  -45.3120   13.5610 N.3   355  GLU355     -0.1245
    185  CA        11.8360  -44.4540   14.0850 C.3   355  GLU355      0.1567
    186  C         10.5370  -45.2580   14.3330 C.2   355  GLU355      0.2260
    187  O          9.8160  -45.0010   15.2940 O.2   355  GLU355     -0.2867
    188  CB        11.6100  -43.2770   13.1380 C.3   355  GLU355      0.0388
    189  CG        12.7320  -42.2460   13.1990 C.3   355  GLU355      0.1160
    190  CD        12.7400  -41.2660   12.0300 C.2   355  GLU355      0.3649
    191  OE1       11.8170  -41.2840   11.1790 O.co2 355  GLU355     -0.2457
    192  OE2       13.6990  -40.4800   11.9550 O.co2 355  GLU355     -0.2457
    193  N         18.0790  -50.8620    2.1430 N.3   372  GLN372     -0.1245
    194  CA        16.6440  -51.1210    2.3190 C.3   372  GLN372      0.1566
    195  C         16.2520  -52.5980    2.1220 C.2   372  GLN372      0.2260
    196  O         15.5290  -53.1420    2.9640 O.2   372  GLN372     -0.2867
    197  CB        15.8400  -50.2060    1.3940 C.3   372  GLN372      0.0367
    198  CG        16.1300  -48.7120    1.6340 C.3   372  GLN372      0.0905
    199  CD        15.9490  -47.8850    0.3810 C.2   372  GLN372      0.2608
    200  OE1       15.3490  -48.3470   -0.5880 O.2   372  GLN372     -0.2717
    201  NE2       16.4740  -46.6560    0.3870 N.am  372  GLN372     -0.0878
@<TRIPOS>BOND
     1    90    91    2
     2    90    89    1
     3    69    68    1
     4    84    83    2
     5    89    92    1
     6    89    88    1
     7    68    66   ar
     8    68    67   ar
     9    66    64   ar
    10    92    93    1
    11    67    65   ar
    12    83    88   am
    13    83    82    1
    14    64    63   ar
    15    86    85    1
    16    65    63   ar
    17    63    62    1
    18    82    85    1
    19    82    81    1
    20    85    87    1
    21    62    59    1
    22    77    76    2
    23    81    76   am
    24   200   199    2
    25    76    75    1
    26    61    60    2
    27    97    96    2
    28   199   201   am
    29   199   198    1
    30    59    60    1
    31    59    58    1
    32    96    95    1
    33    73    72    2
    34    60    70   am
    35    75    74    1
    36    75    78    1
    37    58    54   am
    38   146   147    1
    39   146   143    1
    40    72    74   am
    41    72    71    1
    42   197   198    1
    43   197   194    1
    44   149   147   ar
    45   149   151   ar
    46    70    71    1
    47   147   148   ar
    48   143   144    1
    49   143   142    1
    50    78    79    1
    51    78    80    1
    52    54    55    2
    53    54    53    1
    54    95    94    1
    55    95    98    1
    56   195   194    1
    57   195   196    2
    58   193   194    1
    59   145   144    2
    60   151   150   ar
    61    53    52    1
    62    53    56    1
    63    99    98    1
    64   148   150   ar
    65    98   100    1
    66   101   102    1
    67    57    56    1
    68    22    23   ar
    69    22    20   ar
    70    23    21   ar
    71   107   109   ar
    72   107   106   ar
    73     1     2    1
    74   102   105    1
    75   102   103    1
    76   105   106    1
    77   152   153    1
    78    20    19   ar
    79   109   111   ar
    80   153   154    1
    81   106   108   ar
    82    21    19   ar
    83     5     2    1
    84     5     6    1
    85    19    18    1
    86     2     3    1
    87   103   104    2
    88   103   112   am
    89    10     3   am
    90    10    11    1
    91   111   110   ar
    92    18    15    1
    93   108   110   ar
    94     8     7    2
    95     3     4    2
    96   154   156   am
    97   154   155    2
    98    11    12    1
    99     6     7    1
   100   112   113    1
   101    47    46    2
   102    14    12   am
   103    14    15    1
   104    46    45    1
   105     7     9   am
   106   156   157    1
   107   183   182    1
   108    12    13    2
   109    15    16    1
   110   132   131    2
   111   182   179    1
   112   113   116    1
   113   113   114    1
   114   116   117    1
   115    45    48    1
   116    45    44    1
   117   157   160    1
   118   157   158    1
   119   160   161    1
   120    16    17    2
   121   177   175   am
   122    48    49    1
   123   131   133   am
   124   131   130    1
   125   115   114    2
   126   114   118   am
   127   170   158   am
   128   170   171    1
   129   178   179    1
   130   178   172   am
   131   179   180    1
   132   158   159    2
   133    49    50    2
   134    49    51   am
   135   175   174    1
   136   175   176    2
   137   161   163   ar
   138   161   162   ar
   139   174   171    1
   140   129   130    1
   141   129   126    1
   142   180   181    2
   143   166   163   ar
   144   166   168   ar
   145   171   172    1
   146    31    29   am
   147    24    25    1
   148   118   124    1
   149   118   119    1
   150   172   173    2
   151   163   165   ar
   152   162   164   ar
   153    29    30    2
   154    29    28    1
   155   124   123    1
   156   168   169   ar
   157   126   125    1
   158   126   127    1
   159   125   120   am
   160    28    25    1
   161   191   190   ar
   162   119   120    1
   163   119   122    1
   164    25    26    1
   165   165   164   ar
   166   165   167   ar
   167   120   121    2
   168   169   167   ar
   169   192   190   ar
   170   190   189    1
   171   123   122    1
   172   127   128    2
   173   127   134   am
   174    26    27    2
   175    38    40   ar
   176    38    37   ar
   177   134   135    1
   178    40    42   ar
   179   188   189    1
   180   188   185    1
   181    36    37    1
   182    36    33    1
   183    37    39   ar
   184   184   185    1
   185    42    43    1
   186    42    41   ar
   187    35    34    2
   188    39    41   ar
   189   185   186    1
   190    34    33    1
   191   186   187    2
   192   135   138    1
   193   135   136    1
   194    33    32    1
   195   139   138    1
   196   139   140    1
   197   139   141    1
   198   136   137    2
