@<TRIPOS>MOLECULE
tmp/5tmdA01.pdb
 160 156 0 0 0
SMALL
GASTEIGER

@<TRIPOS>ATOM
      1  N         17.4640    9.6270  -13.0130 N.3     7  PHE7       -0.1241
      2  CA        16.2730    9.9100  -13.7780 C.3     7  PHE7        0.1605
      3  C         15.3110   10.6360  -12.8600 C.2     7  PHE7        0.2264
      4  O         15.0550   10.1910  -11.7170 O.2     7  PHE7       -0.2867
      5  CB        15.6200    8.6610  -14.3310 C.3     7  PHE7        0.0534
      6  CG        14.7520    8.9580  -15.4960 C.ar    7  PHE7       -0.0203
      7  CD1       15.3050    9.0480  -16.7710 C.ar    7  PHE7       -0.0042
      8  CD2       13.4030    9.2900  -15.3100 C.ar    7  PHE7       -0.0042
      9  CE1       14.5120    9.3780  -17.8590 C.ar    7  PHE7       -0.0003
     10  CE2       12.6060    9.6170  -16.4010 C.ar    7  PHE7       -0.0003
     11  CZ        13.1590    9.6640  -17.6770 C.ar    7  PHE7       -0.0000
     12  N         11.7930    9.6860  -10.7660 N.3    10  ALA10      -0.1245
     13  CA        11.7450    8.2410  -10.6160 C.3    10  ALA10       0.1562
     14  C         12.3750    7.6780   -9.3310 C.2    10  ALA10       0.2260
     15  O         13.4940    7.2270   -9.3220 O.2    10  ALA10      -0.2867
     16  CB        12.3290    7.5750  -11.8390 C.3    10  ALA10       0.0290
     17  N         15.1910    5.4240   -9.0220 N.3    13  HIS13      -0.1297
     18  CA        16.5090    5.8140   -9.4820 C.3    13  HIS13       0.1306
     19  C         17.1870    6.6380   -8.3910 C.3    13  HIS13       0.2013
     20  O         18.4780    6.5240   -8.2070 O.3    13  HIS13      -0.2188
     21  CB        16.3900    6.5320  -10.8410 C.3    13  HIS13       0.0691
     22  CG        15.8510    5.6470  -11.9280 C.ar   13  HIS13       0.0814
     23  ND1       16.5570    5.3610  -13.0780 N.ar   13  HIS13      -0.2268
     24  CD2       14.6970    4.9420  -12.0160 C.ar   13  HIS13       0.1154
     25  CE1       15.8570    4.5410  -13.8390 C.ar   13  HIS13       0.1986
     26  NE2       14.7210    4.2710  -13.2180 N.ar   13  HIS13      -0.2212
     27  N          5.8780   14.8140  -17.3760 N.3    65  MET65      -0.1245
     28  CA         5.4660   13.4400  -17.6540 C.3    65  MET65       0.1570
     29  C          3.9570   13.3840  -17.8220 C.2    65  MET65       0.2261
     30  O          3.4500   12.7990  -18.7890 O.2    65  MET65      -0.2867
     31  CB         5.8870   12.5120  -16.5240 C.3    65  MET65       0.0387
     32  CG         7.3790   12.5330  -16.2360 C.3    65  MET65       0.0595
     33  SD         7.9270   11.0890  -15.3130 S.3    65  MET65      -0.1393
     34  CE         7.7920    9.8240  -16.5800 C.3    65  MET65       0.0692
     35  N          5.8890    8.5820  -24.1280 N.3    71  PRO71      -0.2116
     36  CA         7.2250    8.5310  -23.5020 C.3    71  PRO71       0.1372
     37  C          8.3640    9.0330  -24.3940 C.2    71  PRO71       0.2244
     38  O          9.2400    9.7560  -23.9250 O.2    71  PRO71      -0.2868
     39  CB         7.4020    7.0400  -23.1650 C.3    71  PRO71       0.0268
     40  CG         6.0170    6.4590  -23.1710 C.3    71  PRO71       0.0207
     41  CD         5.2810    7.2380  -24.2240 C.3    71  PRO71       0.0892
     42  N          8.2100   12.9250  -24.1480 N.3    74  TYR74      -0.1227
     43  CA         8.8430   13.3850  -22.9460 C.3    74  TYR74       0.1736
     44  C         10.4080   13.3130  -23.0020 C.2    74  TYR74       0.2595
     45  O         11.1120   14.3190  -22.7680 O.2    74  TYR74      -0.2718
     46  CB         8.3000   12.6310  -21.7440 C.3    74  TYR74       0.0548
     47  CG         8.9200   13.2080  -20.5180 C.ar   74  TYR74      -0.0200
     48  CD1        8.5860   14.4960  -20.0790 C.ar   74  TYR74      -0.0009
     49  CD2        9.9280   12.5360  -19.8670 C.ar   74  TYR74      -0.0009
     50  CE1        9.2400   15.0630  -18.9930 C.ar   74  TYR74       0.0417
     51  CE2       10.5750   13.0980  -18.7810 C.ar   74  TYR74       0.0417
     52  CZ        10.2430   14.3470  -18.3620 C.ar   74  TYR74       0.1957
     53  OH        10.8970   14.8220  -17.2820 O.3    74  TYR74      -0.2866
     54  N         10.9360   12.1540  -23.3830 N.am   75  LEU75      -0.1980
     55  CA        12.3750   11.9330  -23.3660 C.3    75  LEU75       0.1596
     56  C         13.0350   12.9490  -24.2810 C.2    75  LEU75       0.2287
     57  O         14.0350   13.5320  -23.9140 O.2    75  LEU75      -0.2864
     58  CB        12.7550   10.4790  -23.7440 C.3    75  LEU75       0.0297
     59  CG        12.1520    9.3820  -22.8370 C.3    75  LEU75       0.0022
     60  CD1       12.4970    7.9960  -23.3680 C.3    75  LEU75       0.0001
     61  CD2       12.5800    9.5250  -21.3860 C.3    75  LEU75       0.0001
     62  N         20.0210    5.9900  -18.3830 N.3   108  HIS108     -0.1241
     63  CA        18.8000    6.3170  -19.0770 C.3   108  HIS108      0.1621
     64  C         18.7740    7.7570  -19.5150 C.2   108  HIS108      0.2264
     65  O         17.9020    8.0740  -20.2940 O.2   108  HIS108     -0.2867
     66  CB        17.5630    6.0210  -18.2740 C.3   108  HIS108      0.0745
     67  CG        17.3510    4.5680  -18.0180 C.ar  108  HIS108      0.0817
     68  ND1       16.7150    3.7400  -18.9180 N.ar  108  HIS108     -0.2268
     69  CD2       17.6750    3.7900  -16.9700 C.ar  108  HIS108      0.1154
     70  CE1       16.6520    2.5180  -18.4360 C.ar  108  HIS108      0.1986
     71  NE2       17.2300    2.5180  -17.2540 N.ar  108  HIS108     -0.2212
     72  N         19.5710   -1.2410  -12.5120 N.3   129  GLN129     -0.1245
     73  CA        18.8710   -2.5250  -12.7790 C.3   129  GLN129      0.1566
     74  C         19.8370   -3.6850  -12.6160 C.2   129  GLN129      0.2260
     75  O         21.0700   -3.5240  -12.7080 O.2   129  GLN129     -0.2867
     76  CB        18.2360   -2.4990  -14.1770 C.3   129  GLN129      0.0367
     77  CG        17.2510   -1.3630  -14.3130 C.3   129  GLN129      0.0905
     78  CD        16.3290   -1.4090  -15.5390 C.2   129  GLN129      0.2608
     79  OE1       16.4730   -2.2300  -16.4500 O.2   129  GLN129     -0.2717
     80  NE2       15.3500   -0.4970  -15.5520 N.am  129  GLN129     -0.0878
     81  N         11.2410   -5.3380  -23.3770 N.3   175  PHE175     -0.1241
     82  CA        11.6560   -4.1690  -24.1370 C.3   175  PHE175      0.1605
     83  C         12.5370   -4.5440  -25.3400 C.2   175  PHE175      0.2264
     84  O         12.5820   -3.8050  -26.3080 O.2   175  PHE175     -0.2867
     85  CB        12.3920   -3.1240  -23.2810 C.3   175  PHE175      0.0534
     86  CG        11.5260   -2.4200  -22.2520 C.ar  175  PHE175     -0.0203
     87  CD1       10.1410   -2.5790  -22.2280 C.ar  175  PHE175     -0.0042
     88  CD2       12.1160   -1.5730  -21.3310 C.ar  175  PHE175     -0.0042
     89  CE1        9.3800   -1.9070  -21.3090 C.ar  175  PHE175     -0.0003
     90  CE2       11.3740   -0.9190  -20.3840 C.ar  175  PHE175     -0.0003
     91  CZ         9.9970   -1.0810  -20.3670 C.ar  175  PHE175     -0.0000
     92  N         11.1360    2.8270  -25.1360 N.3   185  PHE185     -0.1241
     93  CA        11.7780    2.1620  -23.9770 C.3   185  PHE185      0.1605
     94  C         12.8180    1.1390  -24.4340 C.2   185  PHE185      0.2264
     95  O         13.8160    0.9390  -23.7560 O.2   185  PHE185     -0.2867
     96  CB        10.7650    1.4720  -23.0450 C.3   185  PHE185      0.0534
     97  CG         9.8040    2.3930  -22.3750 C.ar  185  PHE185     -0.0203
     98  CD1       10.1080    3.7190  -22.1480 C.ar  185  PHE185     -0.0042
     99  CD2        8.5670    1.9160  -21.9560 C.ar  185  PHE185     -0.0042
    100  CE1        9.1860    4.5470  -21.5180 C.ar  185  PHE185     -0.0003
    101  CE2        7.6350    2.7460  -21.3280 C.ar  185  PHE185     -0.0003
    102  CZ         7.9380    4.0620  -21.1210 C.ar  185  PHE185     -0.0000
    103  N         15.7200    3.4920  -25.3570 N.3   188  GLN188     -0.1231
    104  CA        16.3190    4.0070  -24.1240 C.3   188  GLN188      0.1698
    105  C         17.1780    2.9040  -23.4170 C.2   188  GLN188      0.2592
    106  O         18.3190    3.1390  -23.0300 O.2   188  GLN188     -0.2718
    107  CB        15.2090    4.4570  -23.2090 C.3   188  GLN188      0.0381
    108  CG        15.6850    5.2200  -21.9680 C.3   188  GLN188      0.0905
    109  CD        14.5450    5.5520  -20.9790 C.2   188  GLN188      0.2608
    110  OE1       13.6760    4.7280  -20.7290 O.2   188  GLN188     -0.2717
    111  NE2       14.5560    6.7750  -20.4210 N.am  188  GLN188     -0.0878
    112  N         16.6030    1.7160  -23.2650 N.am  189  SER189     -0.1952
    113  CA        17.2580    0.5290  -22.6530 C.3   189  SER189      0.1924
    114  C         18.5900    0.2140  -23.3100 C.2   189  SER189      0.2314
    115  O         19.5830    0.0440  -22.6230 O.2   189  SER189     -0.2863
    116  CB        16.3600   -0.6810  -22.8040 C.3   189  SER189      0.2116
    117  OG        15.2010   -0.4260  -22.0680 O.3   189  SER189     -0.2180
    118  N          5.0780    3.3910  -10.8720 N.3   267  VAL267     -0.1245
    119  CA         4.8500    3.7240  -12.2700 C.3   267  VAL267      0.1561
    120  C          3.6220    3.0840  -12.8730 C.2   267  VAL267      0.2260
    121  O          2.7530    3.7830  -13.3960 O.2   267  VAL267     -0.2867
    122  CB         6.0700    3.3170  -13.1280 C.3   267  VAL267      0.0252
    123  CG1        5.8720    3.7050  -14.6060 C.3   267  VAL267      0.0019
    124  CG2        7.3500    3.9270  -12.5420 C.3   267  VAL267      0.0019
    125  N          6.7230   -5.2950  -16.5180 N.3   358  TRP358     -0.1227
    126  CA         7.6030   -5.0590  -17.6610 C.3   358  TRP358      0.1737
    127  C          9.0190   -4.6380  -17.2370 C.2   358  TRP358      0.2595
    128  O          9.4070   -4.8590  -16.0880 O.2   358  TRP358     -0.2718
    129  CB         6.9760   -4.0280  -18.5990 C.3   358  TRP358      0.0564
    130  CG         6.7800   -2.6830  -18.0740 C.ar  358  TRP358      0.0003
    131  CD1        7.1500   -2.1990  -16.8390 C.ar  358  TRP358      0.0946
    132  CD2        6.1740   -1.5720  -18.7670 C.ar  358  TRP358      0.0152
    133  NE1        6.7910   -0.8680  -16.7180 N.ar  358  TRP358     -0.2442
    134  CE2        6.1860   -0.4630  -17.8800 C.ar  358  TRP358      0.0810
    135  CE3        5.5870   -1.4160  -20.0440 C.ar  358  TRP358      0.0012
    136  CZ2        5.6470    0.7910  -18.2310 C.ar  358  TRP358      0.0191
    137  CZ3        5.0490   -0.1570  -20.4030 C.ar  358  TRP358      0.0001
    138  CH2        5.0790    0.9240  -19.4930 C.ar  358  TRP358      0.0015
    139  N          9.7770   -4.0300  -18.1560 N.am  359  ALA359     -0.1966
    140  CA        11.1370   -3.5820  -17.9150 C.3   359  ALA359      0.1728
    141  C         11.9800   -4.7790  -17.4390 C.2   359  ALA359      0.2616
    142  O         12.0490   -5.8350  -18.1190 O.2   359  ALA359     -0.2715
    143  CB        11.1430   -2.3790  -16.9360 C.3   359  ALA359      0.0334
    144  N         12.5390   -4.6830  -16.2500 N.am  360  ASP360     -0.1957
    145  CA        13.3950   -5.7540  -15.7350 C.3   360  ASP360      0.1840
    146  C         12.5960   -6.7520  -14.8780 C.2   360  ASP360      0.2621
    147  O         13.1430   -7.7690  -14.4200 O.2   360  ASP360     -0.2715
    148  CB        14.5880   -5.1500  -14.9240 C.3   360  ASP360      0.1450
    149  CG        14.1370   -4.1410  -13.8870 C.2   360  ASP360      0.3671
    150  OD1       12.8910   -3.8460  -13.8540 O.co2 360  ASP360     -0.2456
    151  OD2       15.0020   -3.5850  -13.1420 O.co2 360  ASP360     -0.2456
    152  N         11.3170   -6.5170  -14.6940 N.am  361  GLN361     -0.1977
    153  CA        10.5380   -7.3200  -13.7130 C.3   361  GLN361      0.1601
    154  C         10.3230   -8.7750  -14.1140 C.2   361  GLN361      0.2287
    155  O         10.4380   -9.6700  -13.2510 O.2   361  GLN361     -0.2864
    156  CB         9.2360   -6.6020  -13.3730 C.3   361  GLN361      0.0394
    157  CG         9.4870   -5.1620  -12.9890 C.3   361  GLN361      0.0908
    158  CD         8.3590   -4.2280  -13.3480 C.2   361  GLN361      0.2608
    159  OE1        7.2450   -4.6290  -13.6110 O.2   361  GLN361     -0.2717
    160  NE2        8.6720   -2.9240  -13.3420 N.am  361  GLN361     -0.0878
@<TRIPOS>BOND
     1    84    83    2
     2   103   104    1
     3    83    82    1
     4    92    93    1
     5    94    93    1
     6    94    95    2
     7    37    38    2
     8    37    36    1
     9    56    57    2
    10    56    55    1
    11    41    35    1
    12    41    40    1
    13    42    43    1
    14    82    81    1
    15    82    85    1
    16    35    36    1
    17   104   105    1
    18   104   107    1
    19    93    96    1
    20    58    55    1
    21    58    59    1
    22    36    39    1
    23   105   112   am
    24   105   106    2
    25    54    55    1
    26    54    44   am
    27    60    59    1
    28   114   113    1
    29   114   115    2
    30    85    86    1
    31   112   113    1
    32   107   108    1
    33    40    39    1
    34    96    97    1
    35    44    43    1
    36    44    45    2
    37    43    46    1
    38    59    61    1
    39   116   113    1
    40   116   117    1
    41    97    98   ar
    42    97    99   ar
    43    86    87   ar
    44    86    88   ar
    45    87    89   ar
    46    98   100   ar
    47   108   109    1
    48    99   101   ar
    49    46    47    1
    50   100   102   ar
    51    88    90   ar
    52   101   102   ar
    53    89    91   ar
    54   109   110    2
    55   109   111   am
    56    47    48   ar
    57    47    49   ar
    58   137   135   ar
    59   137   138   ar
    60    90    91   ar
    61    65    64    2
    62    48    50   ar
    63   135   132   ar
    64    49    51   ar
    65    64    63    1
    66   138   136   ar
    67    63    62    1
    68    63    66    1
    69    50    52   ar
    70    68    70   ar
    71    68    67   ar
    72    30    29    2
    73    51    52   ar
    74   132   130   ar
    75   132   134   ar
    76   129   130    1
    77   129   126    1
    78    70    71   ar
    79    52    53    1
    80    66    67    1
    81   136   134   ar
    82   139   140    1
    83   139   127   am
    84   142   141    2
    85   130   131   ar
    86    67    69   ar
    87   140   141    1
    88   140   143    1
    89   134   133   ar
    90     9    11   ar
    91     9     7   ar
    92    29    28    1
    93    11    10   ar
    94   126   127    1
    95   126   125    1
    96    28    27    1
    97    28    31    1
    98   141   144   am
    99    71    69   ar
   100   127   128    2
   101   131   133   ar
   102     7     6   ar
   103    34    33    1
   104    31    32    1
   105    79    78    2
   106    10     8   ar
   107   144   145    1
   108    32    33    1
   109   145   148    1
   110   145   146    1
   111    80    78   am
   112    78    77    1
   113     6     8   ar
   114     6     5    1
   115   148   149    1
   116   146   152   am
   117   146   147    2
   118   152   153    1
   119   123   122    1
   120     5     2    1
   121    77    76    1
   122    76    73    1
   123   154   153    1
   124   154   155    2
   125   149   150   ar
   126   149   151   ar
   127    25    26   ar
   128    25    23   ar
   129     2     1    1
   130     2     3    1
   131   153   156    1
   132   159   158    2
   133   121   120    2
   134   156   157    1
   135   158   160   am
   136   158   157    1
   137    26    24   ar
   138   122   124    1
   139   122   119    1
   140    23    22   ar
   141   120   119    1
   142     3     4    2
   143    73    74    1
   144    73    72    1
   145    75    74    2
   146   119   118    1
   147    24    22   ar
   148    22    21    1
   149    16    13    1
   150    21    18    1
   151    12    13    1
   152    13    14    1
   153    18    17    1
   154    18    19    1
   155    14    15    2
   156    19    20    1
