@<TRIPOS>MOLECULE
tmp/5tmdA00.pdb
 216 213 0 0 0
SMALL
GASTEIGER

@<TRIPOS>ATOM
      1  N         11.7930    9.6860  -10.7660 N.3    10  ALA10      -0.1231
      2  CA        11.7450    8.2410  -10.6160 C.3    10  ALA10       0.1694
      3  C         12.3750    7.6780   -9.3310 C.2    10  ALA10       0.2592
      4  O         13.4940    7.2270   -9.3220 O.2    10  ALA10      -0.2718
      5  CB        12.3290    7.5750  -11.8390 C.3    10  ALA10       0.0304
      6  N         11.6080    7.6850   -8.2520 N.am   11  GLN11      -0.1966
      7  CA        12.0940    7.2500   -6.9150 C.3    11  GLN11       0.1733
      8  C         12.9420    5.9680   -6.8820 C.2    11  GLN11       0.2617
      9  O         13.7690    5.7910   -5.9760 O.2    11  GLN11      -0.2715
     10  CB        10.9000    7.1390   -5.9240 C.3    11  GLN11       0.0408
     11  CG        11.2730    7.3560   -4.4680 C.3    11  GLN11       0.0908
     12  CD        12.1320    8.6090   -4.2430 C.2    11  GLN11       0.2608
     13  OE1       13.0670    8.5830   -3.4460 O.2    11  GLN11      -0.2717
     14  NE2       11.8290    9.7020   -4.9580 N.am   11  GLN11      -0.0878
     15  N         12.7160    5.0770   -7.8510 N.am   12  GLY12      -0.1940
     16  CA        13.5610    3.8930   -8.0600 C.3    12  GLY12       0.2014
     17  C         14.9540    4.1780   -8.6420 C.2    12  GLY12       0.2635
     18  O         15.8130    3.2840   -8.7800 O.2    12  GLY12      -0.2714
     19  N         15.1910    5.4240   -9.0220 N.am   13  HIS13      -0.2026
     20  CA        16.5090    5.8140   -9.4820 C.3    13  HIS13       0.1342
     21  C         17.1870    6.6380   -8.3910 C.3    13  HIS13       0.2040
     22  O         18.4780    6.5240   -8.2070 O.3    13  HIS13      -0.2185
     23  CB        16.3900    6.5320  -10.8410 C.3    13  HIS13       0.0718
     24  CG        15.8510    5.6470  -11.9280 C.ar   13  HIS13       0.0817
     25  ND1       16.5570    5.3610  -13.0780 N.ar   13  HIS13      -0.2268
     26  CD2       14.6970    4.9420  -12.0160 C.ar   13  HIS13       0.1154
     27  CE1       15.8570    4.5410  -13.8390 C.ar   13  HIS13       0.1986
     28  NE2       14.7210    4.2710  -13.2180 N.ar   13  HIS13      -0.2212
     29  N         16.7350    7.1350   -4.6940 N.3    15  ASN15      -0.1240
     30  CA        17.1630    6.5880   -3.3890 C.3    15  ASN15       0.1653
     31  C         18.5330    5.9070   -3.4590 C.2    15  ASN15       0.2266
     32  O         19.4240    6.2640   -2.7360 O.2    15  ASN15      -0.2867
     33  CB        16.1580    5.5760   -2.8070 C.3    15  ASN15       0.1155
     34  CG        14.8770    6.2060   -2.2660 C.2    15  ASN15       0.2627
     35  OD1       14.8930    7.2930   -1.6780 O.2    15  ASN15      -0.2716
     36  ND2       13.7400    5.4700   -2.4190 N.am   15  ASN15      -0.0877
     37  N         20.8340    1.1720  -12.3710 N.3   128  SER128     -0.1202
     38  CA        19.9860    0.8730  -11.2940 C.3   128  SER128      0.2020
     39  C         19.1600   -0.4020  -11.5710 C.2   128  SER128      0.2618
     40  O         18.2310   -0.6720  -10.8630 O.2   128  SER128     -0.2717
     41  CB        19.1340    2.0920  -10.9990 C.3   128  SER128      0.2103
     42  OG        18.3340    2.3560  -12.1310 O.3   128  SER128     -0.2182
     43  N         19.5710   -1.2410  -12.5120 N.am  129  GLN129     -0.1979
     44  CA        18.8710   -2.5250  -12.7790 C.3   129  GLN129      0.1601
     45  C         19.8370   -3.6850  -12.6160 C.2   129  GLN129      0.2287
     46  O         21.0700   -3.5240  -12.7080 O.2   129  GLN129     -0.2864
     47  CB        18.2360   -2.4990  -14.1770 C.3   129  GLN129      0.0394
     48  CG        17.2510   -1.3630  -14.3130 C.3   129  GLN129      0.0908
     49  CD        16.3290   -1.4090  -15.5390 C.2   129  GLN129      0.2608
     50  OE1       16.4730   -2.2300  -16.4500 O.2   129  GLN129     -0.2717
     51  NE2       15.3500   -0.4970  -15.5520 N.am  129  GLN129     -0.0878
     52  N          2.4510   -4.2410   -3.0260 N.3   263  SER263     -0.1217
     53  CA         2.7320   -3.0180   -3.7740 C.3   263  SER263      0.1889
     54  C          3.1140   -3.3290   -5.2310 C.2   263  SER263      0.2288
     55  O          3.8400   -4.2770   -5.4850 O.2   263  SER263     -0.2866
     56  CB         3.8830   -2.3060   -3.1090 C.3   263  SER263      0.2089
     57  OG         4.3560   -1.2910   -3.9320 O.3   263  SER263     -0.2183
     58  N          4.2550   -0.7010   -7.2100 N.3   265  GLY265     -0.1210
     59  CA         5.2580    0.2620   -7.5870 C.3   265  GLY265      0.1956
     60  C          4.6760    1.6410   -7.8120 C.2   265  GLY265      0.2613
     61  O          3.4920    1.8880   -7.5440 O.2   265  GLY265     -0.2717
     62  N          5.5280    2.5250   -8.3230 N.am  266  THR266     -0.1938
     63  CA         5.1850    3.9310   -8.4610 C.3   266  THR266      0.2028
     64  C          4.7230    4.2230   -9.9100 C.2   266  THR266      0.2642
     65  O          3.9950    5.1370  -10.1370 O.2   266  THR266     -0.2714
     66  CB         6.3660    4.8300   -7.9820 C.3   266  THR266      0.1808
     67  OG1        7.4590    4.7140   -8.8970 O.3   266  THR266     -0.2208
     68  CG2        6.8720    4.3950   -6.6040 C.3   266  THR266      0.0379
     69  N          5.0780    3.3910  -10.8720 N.am  267  VAL267     -0.1963
     70  CA         4.8500    3.7240  -12.2700 C.3   267  VAL267      0.1727
     71  C          3.6220    3.0840  -12.8730 C.2   267  VAL267      0.2616
     72  O          2.7530    3.7830  -13.3960 O.2   267  VAL267     -0.2715
     73  CB         6.0700    3.3170  -13.1280 C.3   267  VAL267      0.0290
     74  CG1        5.8720    3.7050  -14.6060 C.3   267  VAL267      0.0023
     75  CG2        7.3500    3.9270  -12.5420 C.3   267  VAL267      0.0023
     76  N          3.5640    1.7560  -12.8060 N.am  268  SER268     -0.1950
     77  CA         2.4960    0.9660  -13.4350 C.3   268  SER268      0.1924
     78  C          1.1250    1.3640  -12.9520 C.2   268  SER268      0.2314
     79  O          0.9330    1.7510  -11.8050 O.2   268  SER268     -0.2863
     80  CB         2.6770   -0.5390  -13.1360 C.3   268  SER268      0.2116
     81  OG         3.9780   -1.0230  -13.4700 O.3   268  SER268     -0.2180
     82  N         -0.6580   -1.1500   -0.6120 N.3   292  VAL292     -0.1245
     83  CA        -0.3210    0.1470   -1.0790 C.3   292  VAL292      0.1561
     84  C         -1.0400    0.4000   -2.3990 C.2   292  VAL292      0.2260
     85  O         -0.7780   -0.2470   -3.3780 O.2   292  VAL292     -0.2867
     86  CB         1.2250    0.3440   -1.2660 C.3   292  VAL292      0.0252
     87  CG1        1.5420    1.7630   -1.6840 C.3   292  VAL292      0.0019
     88  CG2        1.9710    0.0850    0.0310 C.3   292  VAL292      0.0019
     89  N          0.8900    5.2040    0.5260 N.3   318  PHE318     -0.1227
     90  CA         2.3380    5.1630    0.5270 C.3   318  PHE318      0.1736
     91  C          2.6780    4.5510    1.8780 C.2   318  PHE318      0.2596
     92  O          1.9700    4.7860    2.8250 O.2   318  PHE318     -0.2718
     93  CB         2.9260    6.5810    0.4660 C.3   318  PHE318      0.0547
     94  CG         4.3890    6.6510    0.0690 C.ar  318  PHE318     -0.0202
     95  CD1        4.7750    6.5780   -1.2740 C.ar  318  PHE318     -0.0042
     96  CD2        5.3790    6.8550    1.0310 C.ar  318  PHE318     -0.0042
     97  CE1        6.1110    6.6800   -1.6510 C.ar  318  PHE318     -0.0003
     98  CE2        6.7160    6.9550    0.6580 C.ar  318  PHE318     -0.0003
     99  CZ         7.0820    6.8730   -0.6820 C.ar  318  PHE318     -0.0000
    100  N          3.7320    3.7340    1.9490 N.am  319  CYS319     -0.1957
    101  CA         4.2830    3.3380    3.2450 C.3   319  CYS319      0.1828
    102  C          5.8130    3.4900    3.3030 C.2   319  CYS319      0.2467
    103  O          6.4630    3.7130    2.3140 O.2   319  CYS319     -0.2730
    104  CB         3.8670    1.8910    3.5320 C.3   319  CYS319      0.0996
    105  SG         4.7310    0.7040    2.4710 S.3   319  CYS319     -0.0797
    106  N          6.3910    3.4220    4.5060 N.am  320  PRO320     -0.2715
    107  CA         7.8400    3.4740    4.6140 C.3   320  PRO320      0.1536
    108  C          8.2990    2.0180    4.3990 C.2   320  PRO320      0.2598
    109  O          8.4200    1.2040    5.3500 O.2   320  PRO320     -0.2715
    110  CB         8.0470    4.0110    6.0180 C.3   320  PRO320      0.0310
    111  CG         6.7950    3.6110    6.8060 C.3   320  PRO320      0.0237
    112  CD         5.7050    3.4330    5.8250 C.3   320  PRO320      0.0939
    113  N          8.5590    1.6840    3.1370 N.am  321  GLN321     -0.1964
    114  CA         8.5440    0.2810    2.7570 C.3   321  GLN321      0.1733
    115  C          9.6990   -0.4730    3.4070 C.2   321  GLN321      0.2616
    116  O          9.5610   -1.6130    3.7430 O.2   321  GLN321     -0.2715
    117  CB         8.5620    0.1600    1.2450 C.3   321  GLN321      0.0408
    118  CG         8.8280   -1.2270    0.6770 C.3   321  GLN321      0.0908
    119  CD         8.6880   -1.2750   -0.8790 C.2   321  GLN321      0.2608
    120  OE1        7.6380   -0.9200   -1.4420 O.2   321  GLN321     -0.2717
    121  NE2        9.7370   -1.7570   -1.5660 N.am  321  GLN321     -0.0878
    122  N         10.8500    0.1690    3.5500 N.am  322  LEU322     -0.1977
    123  CA        11.9710   -0.4730    4.2510 C.3   322  LEU322      0.1596
    124  C         11.6420   -0.8310    5.7020 C.2   322  LEU322      0.2287
    125  O         11.8820   -1.9580    6.1600 O.2   322  LEU322     -0.2864
    126  CB        13.2190    0.4080    4.2220 C.3   322  LEU322      0.0297
    127  CG        14.1050    0.1750    2.9820 C.3   322  LEU322      0.0022
    128  CD1       15.2810    1.1440    3.0080 C.3   322  LEU322      0.0001
    129  CD2       14.6650   -1.2060    2.8970 C.3   322  LEU322      0.0001
    130  N          5.5950   -6.2080   -7.5990 N.3   336  HIS336     -0.1241
    131  CA         5.9230   -6.2220   -9.0430 C.3   336  HIS336      0.1621
    132  C          7.3910   -6.5920   -9.3660 C.2   336  HIS336      0.2264
    133  O          7.7580   -6.8460  -10.5460 O.2   336  HIS336     -0.2867
    134  CB         5.5350   -4.8870   -9.7110 C.3   336  HIS336      0.0745
    135  CG         6.4370   -3.7510   -9.3610 C.ar  336  HIS336      0.0817
    136  ND1        6.7580   -3.4270   -8.0570 N.ar  336  HIS336     -0.2268
    137  CD2        7.0660   -2.8450  -10.1380 C.ar  336  HIS336      0.1154
    138  CE1        7.5960   -2.4080   -8.0480 C.ar  336  HIS336      0.1986
    139  NE2        7.7750   -2.0160   -9.3000 N.ar  336  HIS336     -0.2212
    140  N         10.1040   -4.7640   -9.1580 N.3   338  GLY338     -0.1210
    141  CA        11.0520   -3.7360   -9.4550 C.3   338  GLY338      0.1956
    142  C         12.3240   -4.0530   -8.6880 C.2   338  GLY338      0.2612
    143  O         12.3050   -4.7340   -7.6330 O.2   338  GLY338     -0.2717
    144  N         13.4350   -3.5470   -9.1870 N.am  339  TRP339     -0.1962
    145  CA        14.7300   -3.9260   -8.6170 C.3   339  TRP339      0.1771
    146  C         14.9150   -3.4000   -7.2360 C.2   339  TRP339      0.2620
    147  O         15.4720   -4.1070   -6.3780 O.2   339  TRP339     -0.2715
    148  CB        15.8910   -3.4430   -9.5060 C.3   339  TRP339      0.0590
    149  CG        17.2300   -4.0220   -9.1430 C.ar  339  TRP339      0.0006
    150  CD1       18.4090   -3.3410   -9.0640 C.ar  339  TRP339      0.0946
    151  CD2       17.5520   -5.4150   -8.8850 C.ar  339  TRP339      0.0152
    152  NE1       19.4490   -4.2150   -8.7660 N.ar  339  TRP339     -0.2442
    153  CE2       18.9610   -5.4880   -8.6580 C.ar  339  TRP339      0.0810
    154  CE3       16.8060   -6.5940   -8.8200 C.ar  339  TRP339      0.0012
    155  CZ2       19.5970   -6.6380   -8.3680 C.ar  339  TRP339      0.0191
    156  CZ3       17.4840   -7.7920   -8.5220 C.ar  339  TRP339      0.0001
    157  CH2       18.8600   -7.7850   -8.2840 C.ar  339  TRP339      0.0015
    158  N         14.5280   -2.1500   -7.0170 N.am  340  ASN340     -0.1958
    159  CA        14.6390   -1.5470   -5.6630 C.3   340  ASN340      0.1819
    160  C         13.8570   -2.2910   -4.6280 C.2   340  ASN340      0.2622
    161  O         14.4150   -2.6320   -3.5990 O.2   340  ASN340     -0.2715
    162  CB        14.2980   -0.0620   -5.6360 C.3   340  ASN340      0.1195
    163  CG        15.1790    0.7210   -6.5600 C.2   340  ASN340      0.2630
    164  OD1       16.3790    0.8280   -6.3580 O.2   340  ASN340     -0.2716
    165  ND2       14.6080    1.1960   -7.6450 N.am  340  ASN340     -0.0877
    166  N         12.6390   -2.6930   -4.9780 N.am  341  SER341     -0.1950
    167  CA        11.7900   -3.5060   -4.1160 C.3   341  SER341      0.1924
    168  C         12.3440   -4.8690   -3.8130 C.2   341  SER341      0.2314
    169  O         12.2460   -5.3570   -2.6750 O.2   341  SER341     -0.2863
    170  CB        10.3680   -3.6720   -4.7130 C.3   341  SER341      0.2116
    171  OG         9.6080   -2.4990   -4.4570 O.3   341  SER341     -0.2180
    172  N         15.3070   -4.5440   -1.4330 N.3   344  GLU344     -0.1245
    173  CA        14.7900   -4.3120   -0.0930 C.3   344  GLU344      0.1567
    174  C         14.2420   -5.5300    0.5770 C.2   344  GLU344      0.2260
    175  O         14.4180   -5.7340    1.8030 O.2   344  GLU344     -0.2867
    176  CB        13.7860   -3.1780   -0.1250 C.3   344  GLU344      0.0388
    177  CG        14.4730   -1.8780   -0.5740 C.3   344  GLU344      0.1160
    178  CD        13.5020   -0.7630   -0.9910 C.2   344  GLU344      0.3649
    179  OE1       12.2380   -0.8630   -0.8630 O.co2 344  GLU344     -0.2457
    180  OE2       14.0330    0.2430   -1.4920 O.co2 344  GLU344     -0.2457
    181  N          6.7230   -5.2950  -16.5180 N.3   358  TRP358     -0.1227
    182  CA         7.6030   -5.0590  -17.6610 C.3   358  TRP358      0.1737
    183  C          9.0190   -4.6380  -17.2370 C.2   358  TRP358      0.2595
    184  O          9.4070   -4.8590  -16.0880 O.2   358  TRP358     -0.2718
    185  CB         6.9760   -4.0280  -18.5990 C.3   358  TRP358      0.0564
    186  CG         6.7800   -2.6830  -18.0740 C.ar  358  TRP358      0.0003
    187  CD1        7.1500   -2.1990  -16.8390 C.ar  358  TRP358      0.0946
    188  CD2        6.1740   -1.5720  -18.7670 C.ar  358  TRP358      0.0152
    189  NE1        6.7910   -0.8680  -16.7180 N.ar  358  TRP358     -0.2442
    190  CE2        6.1860   -0.4630  -17.8800 C.ar  358  TRP358      0.0810
    191  CE3        5.5870   -1.4160  -20.0440 C.ar  358  TRP358      0.0012
    192  CZ2        5.6470    0.7910  -18.2310 C.ar  358  TRP358      0.0191
    193  CZ3        5.0490   -0.1570  -20.4030 C.ar  358  TRP358      0.0001
    194  CH2        5.0790    0.9240  -19.4930 C.ar  358  TRP358      0.0015
    195  N          9.7770   -4.0300  -18.1560 N.am  359  ALA359     -0.1966
    196  CA        11.1370   -3.5820  -17.9150 C.3   359  ALA359      0.1728
    197  C         11.9800   -4.7790  -17.4390 C.2   359  ALA359      0.2616
    198  O         12.0490   -5.8350  -18.1190 O.2   359  ALA359     -0.2715
    199  CB        11.1430   -2.3790  -16.9360 C.3   359  ALA359      0.0334
    200  N         12.5390   -4.6830  -16.2500 N.am  360  ASP360     -0.1957
    201  CA        13.3950   -5.7540  -15.7350 C.3   360  ASP360      0.1840
    202  C         12.5960   -6.7520  -14.8780 C.2   360  ASP360      0.2621
    203  O         13.1430   -7.7690  -14.4200 O.2   360  ASP360     -0.2715
    204  CB        14.5880   -5.1500  -14.9240 C.3   360  ASP360      0.1450
    205  CG        14.1370   -4.1410  -13.8870 C.2   360  ASP360      0.3671
    206  OD1       12.8910   -3.8460  -13.8540 O.co2 360  ASP360     -0.2456
    207  OD2       15.0020   -3.5850  -13.1420 O.co2 360  ASP360     -0.2456
    208  N         11.3170   -6.5170  -14.6940 N.am  361  GLN361     -0.1977
    209  CA        10.5380   -7.3200  -13.7130 C.3   361  GLN361      0.1601
    210  C         10.3230   -8.7750  -14.1140 C.2   361  GLN361      0.2287
    211  O         10.4380   -9.6700  -13.2510 O.2   361  GLN361     -0.2864
    212  CB         9.2360   -6.6020  -13.3730 C.3   361  GLN361      0.0394
    213  CG         9.4870   -5.1620  -12.9890 C.3   361  GLN361      0.0908
    214  CD         8.3590   -4.2280  -13.3480 C.2   361  GLN361      0.2608
    215  OE1        7.2450   -4.6290  -13.6110 O.2   361  GLN361     -0.2717
    216  NE2        8.6720   -2.9240  -13.3420 N.am  361  GLN361     -0.0878
@<TRIPOS>BOND
     1   193   191   ar
     2   193   194   ar
     3   191   188   ar
     4   194   192   ar
     5   188   186   ar
     6   188   190   ar
     7   185   186    1
     8   185   182    1
     9   192   190   ar
    10   195   196    1
    11   195   183   am
    12   198   197    2
    13   186   187   ar
    14   196   197    1
    15   196   199    1
    16   190   189   ar
    17   182   183    1
    18   182   181    1
    19   197   200   am
    20   183   184    2
    21   187   189   ar
    22    50    49    2
    23   200   201    1
    24   201   204    1
    25   201   202    1
    26    51    49   am
    27    49    48    1
    28   204   205    1
    29   202   208   am
    30   202   203    2
    31   208   209    1
    32    74    73    1
    33    48    47    1
    34    47    44    1
    35   210   209    1
    36   210   211    2
    37   205   206   ar
    38   205   207   ar
    39    27    28   ar
    40    27    25   ar
    41   209   212    1
    42   215   214    2
    43    81    80    1
    44    77    80    1
    45    77    78    1
    46    77    76    1
    47    72    71    2
    48   212   213    1
    49   214   216   am
    50   214   213    1
    51    28    26   ar
    52    73    75    1
    53    73    70    1
    54    25    24   ar
    55    78    79    2
    56    71    76   am
    57    71    70    1
    58    44    45    1
    59    44    43    1
    60    46    45    2
    61    43    39   am
    62    37    38    1
    63    70    69    1
    64    42    41    1
    65    26    24   ar
    66    24    23    1
    67     5     2    1
    68    39    38    1
    69    39    40    2
    70    38    41    1
    71    69    64   am
    72    23    20    1
    73     1     2    1
    74     2     3    1
    75   133   132    2
    76   137   135   ar
    77   137   139   ar
    78    65    64    2
    79    64    63    1
    80   134   135    1
    81   134   131    1
    82   148   149    1
    83   148   145    1
    84    20    19    1
    85    20    21    1
    86   141   140    1
    87   141   142    1
    88   132   131    1
    89   135   136   ar
    90     3     4    2
    91     3     6   am
    92   139   138   ar
    93   144   142   am
    94   144   145    1
    95   149   150   ar
    96   149   151   ar
    97   150   152   ar
    98   131   130    1
    99    19    17   am
   100    67    66    1
   101   151   154   ar
   102   151   153   ar
   103   154   156   ar
   104    18    17    2
   105   152   153   ar
   106   142   143    2
   107   153   155   ar
   108    17    16    1
   109   145   146    1
   110   156   157   ar
   111    63    62    1
   112    63    66    1
   113    21    22    1
   114   155   157   ar
   115    62    60   am
   116     6     7    1
   117    16    15    1
   118   136   138   ar
   119    66    68    1
   120    15     8   am
   121    60    59    1
   122    60    61    2
   123   165   163   am
   124    59    58    1
   125   146   158   am
   126   146   147    2
   127   158   159    1
   128     7     8    1
   129     7    10    1
   130     8     9    2
   131   163   164    2
   132   163   162    1
   133    10    11    1
   134   159   162    1
   135   159   160    1
   136    55    54    2
   137    54    53    1
   138   166   160   am
   139   166   167    1
   140    14    12   am
   141   170   171    1
   142   170   167    1
   143    29    30    1
   144   160   161    2
   145    11    12    1
   146    12    13    2
   147   167   168    1
   148    57    56    1
   149   168   169    2
   150    53    56    1
   151    53    52    1
   152    31    30    1
   153    31    32    2
   154    30    33    1
   155    85    84    2
   156    33    34    1
   157    36    34   am
   158    84    83    1
   159    34    35    2
   160    87    86    1
   161    97    95   ar
   162    97    99   ar
   163   121   119   am
   164   180   178   ar
   165   120   119    2
   166   172   173    1
   167    95    94   ar
   168    86    83    1
   169    86    88    1
   170    83    82    1
   171   178   179   ar
   172   178   177    1
   173   119   118    1
   174    99    98   ar
   175   177   176    1
   176   176   173    1
   177   173   174    1
   178    94    93    1
   179    94    96   ar
   180    93    90    1
   181    89    90    1
   182    90    91    1
   183   174   175    2
   184    98    96   ar
   185   118   117    1
   186   117   114    1
   187    91   100   am
   188    91    92    2
   189   100   101    1
   190   103   102    2
   191   105   104    1
   192   114   113    1
   193   114   115    1
   194   129   127    1
   195   127   128    1
   196   127   126    1
   197   113   108   am
   198   101   102    1
   199   101   104    1
   200   102   106   am
   201   115   122   am
   202   115   116    2
   203   122   123    1
   204   126   123    1
   205   123   124    1
   206   108   107    1
   207   108   109    2
   208   106   107    1
   209   106   112    1
   210   107   110    1
   211   124   125    2
   212   112   111    1
   213   110   111    1
