@<TRIPOS>MOLECULE
tmp/5tmgA01.pdb
 226 216 0 0 0
SMALL
GASTEIGER

@<TRIPOS>ATOM
      1  N         18.8350  -42.0200   -4.4090 N.3    15  THR15      -0.1203
      2  CA        17.5190  -42.6240   -4.3720 C.3    15  THR15       0.1994
      3  C         17.2100  -43.3820   -3.0770 C.2    15  THR15       0.2618
      4  O         16.0410  -43.5910   -2.7570 O.2    15  THR15      -0.2717
      5  CB        17.3290  -43.5880   -5.5560 C.3    15  THR15       0.1784
      6  OG1       18.3560  -44.5800   -5.5490 O.3    15  THR15      -0.2211
      7  CG2       17.3900  -42.8390   -6.8400 C.3    15  THR15       0.0376
      8  N         18.2360  -43.8190   -2.3500 N.am   16  GLN16      -0.1965
      9  CA        18.0390  -44.5150   -1.0890 C.3    16  GLN16       0.1733
     10  C         18.9720  -43.9480   -0.0510 C.2    16  GLN16       0.2616
     11  O         20.1880  -43.8650   -0.2730 O.2    16  GLN16      -0.2715
     12  CB        18.2940  -46.0080   -1.2430 C.3    16  GLN16       0.0408
     13  CG        17.5090  -46.6890   -2.3470 C.3    16  GLN16       0.0908
     14  CD        17.7970  -48.1680   -2.4190 C.2    16  GLN16       0.2608
     15  OE1       17.9350  -48.8310   -1.3940 O.2    16  GLN16      -0.2717
     16  NE2       17.8890  -48.7010   -3.6220 N.am   16  GLN16      -0.0878
     17  N         18.3920  -43.5580    1.0800 N.am   17  TYR17      -0.1974
     18  CA        19.1430  -43.0540    2.2060 C.3    17  TYR17       0.1639
     19  C         18.7980  -43.9140    3.3770 C.2    17  TYR17       0.2290
     20  O         17.6280  -44.0700    3.6950 O.2    17  TYR17      -0.2864
     21  CB        18.7870  -41.6100    2.5160 C.3    17  TYR17       0.0560
     22  CG        19.2420  -40.6340    1.4710 C.ar   17  TYR17      -0.0198
     23  CD1       18.5000  -40.4330    0.3090 C.ar   17  TYR17      -0.0009
     24  CD2       20.3950  -39.8840    1.6520 C.ar   17  TYR17      -0.0009
     25  CE1       18.9080  -39.5180   -0.6400 C.ar   17  TYR17       0.0417
     26  CE2       20.8000  -38.9650    0.7100 C.ar   17  TYR17       0.0417
     27  CZ        20.0600  -38.7830   -0.4290 C.ar   17  TYR17       0.1957
     28  OH        20.4730  -37.8600   -1.3570 O.3    17  TYR17      -0.2866
     29  N         15.7810  -47.4750    6.3130 N.3    33  VAL33      -0.1245
     30  CA        15.3040  -46.1730    5.9120 C.3    33  VAL33       0.1561
     31  C         14.5500  -45.5880    7.0820 C.2    33  VAL33       0.2260
     32  O         13.7120  -46.2640    7.6750 O.2    33  VAL33      -0.2867
     33  CB        14.3380  -46.2820    4.7170 C.3    33  VAL33       0.0252
     34  CG1       13.5990  -44.9630    4.4720 C.3    33  VAL33       0.0019
     35  CG2       15.1080  -46.7100    3.4820 C.3    33  VAL33       0.0019
     36  N         11.7830  -43.1390    7.9620 N.3    35  ASP35      -0.1239
     37  CA        10.6300  -42.7880    7.1400 C.3    35  ASP35       0.1674
     38  C          9.5800  -42.0010    7.9360 C.2    35  ASP35       0.2266
     39  O          8.8180  -42.5890    8.7000 O.2    35  ASP35      -0.2867
     40  CB        10.0150  -44.0950    6.6080 C.3    35  ASP35       0.1410
     41  CG         8.7450  -43.8850    5.8190 C.2    35  ASP35       0.3668
     42  OD1        8.4940  -42.7490    5.3640 O.co2  35  ASP35      -0.2456
     43  OD2        7.9770  -44.8660    5.6570 O.co2  35  ASP35      -0.2456
     44  N          6.9500  -40.7720    6.6530 N.3    37  GLY37      -0.1225
     45  CA         5.6500  -41.1080    6.0870 C.3    37  GLY37       0.1811
     46  C          5.0420  -42.4070    6.5920 C.2    37  GLY37       0.2280
     47  O          3.9830  -42.8030    6.1130 O.2    37  GLY37      -0.2866
     48  N          1.0640  -51.8060    4.3820 N.3    79  ARG79      -0.1231
     49  CA         0.7670  -51.5070    2.9940 C.3    79  ARG79       0.1694
     50  C          1.2720  -50.1210    2.6620 C.2    79  ARG79       0.2592
     51  O          0.6340  -49.1210    2.9990 O.2    79  ARG79      -0.2718
     52  CB        -0.7320  -51.6010    2.7330 C.3    79  ARG79       0.0321
     53  CG        -1.2230  -53.0340    2.6880 C.3    79  ARG79       0.0489
     54  CD        -2.7310  -53.1360    2.7340 C.3    79  ARG79       0.2205
     55  NE        -3.3510  -52.3210    1.6960 N.pl3  79  ARG79      -0.0865
     56  CZ        -4.6630  -52.2280    1.4990 C.cat  79  ARG79       0.5346
     57  NH1       -5.5140  -52.9230    2.2500 N.pl3  79  ARG79       0.1354
     58  NH2       -5.1210  -51.4500    0.5210 N.pl3  79  ARG79       0.1354
     59  N          2.4190  -50.0710    2.0040 N.am   80  TYR80      -0.1962
     60  CA         2.9450  -48.8290    1.4910 C.3    80  TYR80       0.1771
     61  C          2.3880  -48.5710    0.1140 C.2    80  TYR80       0.2620
     62  O          1.8210  -49.4550   -0.5150 O.2    80  TYR80      -0.2715
     63  CB         4.4620  -48.8650    1.4150 C.3    80  TYR80       0.0574
     64  CG         5.1380  -49.1300    2.7210 C.ar   80  TYR80      -0.0198
     65  CD1        5.2870  -48.1150    3.6600 C.ar   80  TYR80      -0.0009
     66  CD2        5.6730  -50.3780    3.0080 C.ar   80  TYR80      -0.0009
     67  CE1        5.9310  -48.3410    4.8600 C.ar   80  TYR80       0.0417
     68  CE2        6.3250  -50.6170    4.2010 C.ar   80  TYR80       0.0417
     69  CZ         6.4370  -49.6010    5.1290 C.ar   80  TYR80       0.1957
     70  OH         7.0850  -49.8310    6.3080 O.3    80  TYR80      -0.2866
     71  N          2.5760  -47.3510   -0.3670 N.am   81  SER81      -0.1936
     72  CA         2.1310  -46.9870   -1.7150 C.3    81  SER81       0.2055
     73  C          2.9180  -47.7260   -2.8150 C.2    81  SER81       0.2643
     74  O          2.4400  -47.8450   -3.9280 O.2    81  SER81      -0.2714
     75  CB         2.2510  -45.4830   -1.8970 C.3    81  SER81       0.2130
     76  OG         3.5570  -45.0690   -1.5530 O.3    81  SER81      -0.2179
     77  N          4.1100  -48.2280   -2.4860 N.am   82  THR82      -0.1950
     78  CA         4.9920  -48.8830   -3.4400 C.3    82  THR82       0.1897
     79  C          5.0430  -50.3940   -3.2780 C.2    82  THR82       0.2313
     80  O          5.7200  -51.0830   -4.0450 O.2    82  THR82      -0.2863
     81  CB         6.4110  -48.3620   -3.2540 C.3    82  THR82       0.1794
     82  OG1        6.7640  -48.4810   -1.8740 O.3    82  THR82      -0.2208
     83  CG2        6.5050  -46.9010   -3.6610 C.3    82  THR82       0.0378
     84  N          9.1330  -53.7730   -4.3290 N.3   115  PRO115     -0.2102
     85  CA        10.4030  -53.1300   -4.6620 C.3   115  PRO115      0.1504
     86  C         11.6550  -53.6660   -3.9140 C.2   115  PRO115      0.2575
     87  O         12.7510  -53.1380   -4.1120 O.2   115  PRO115     -0.2718
     88  CB        10.1490  -51.7070   -4.2000 C.3   115  PRO115      0.0282
     89  CG         9.3230  -51.8980   -2.9680 C.3   115  PRO115      0.0208
     90  CD         8.4810  -53.1120   -3.1900 C.3   115  PRO115      0.0893
     91  N         11.5180  -54.6720   -3.0630 N.am  116  PHE116     -0.1977
     92  CA        12.5660  -54.9090   -2.0700 C.3   116  PHE116      0.1639
     93  C         13.8320  -55.5710   -2.5720 C.2   116  PHE116      0.2290
     94  O         14.8630  -55.3760   -1.9730 O.2   116  PHE116     -0.2864
     95  CB        12.0090  -55.5790   -0.8210 C.3   116  PHE116      0.0560
     96  CG        10.9720  -54.7450   -0.1510 C.ar  116  PHE116     -0.0200
     97  CD1       11.3450  -53.6210    0.5670 C.ar  116  PHE116     -0.0042
     98  CD2        9.6200  -55.0480   -0.2740 C.ar  116  PHE116     -0.0042
     99  CE1       10.3910  -52.8160    1.1720 C.ar  116  PHE116     -0.0003
    100  CE2        8.6690  -54.2440    0.3230 C.ar  116  PHE116     -0.0003
    101  CZ         9.0550  -53.1300    1.0370 C.ar  116  PHE116     -0.0000
    102  N         15.2500  -54.3230   -4.9890 N.3   118  LEU118     -0.1231
    103  CA        15.9600  -53.1300   -5.4090 C.3   118  LEU118      0.1693
    104  C         16.4810  -52.3110   -4.2260 C.2   118  LEU118      0.2591
    105  O         17.1910  -51.3210   -4.4310 O.2   118  LEU118     -0.2718
    106  CB        15.0600  -52.2880   -6.3140 C.3   118  LEU118      0.0284
    107  CG        14.6030  -53.0320   -7.5760 C.3   118  LEU118      0.0019
    108  CD1       13.5150  -52.2500   -8.2900 C.3   118  LEU118      0.0001
    109  CD2       15.7810  -53.2580   -8.5190 C.3   118  LEU118      0.0001
    110  N         16.1580  -52.7310   -3.0010 N.am  119  ALA119     -0.1980
    111  CA        16.5250  -51.9810   -1.8100 C.3   119  ALA119      0.1597
    112  C         17.9060  -52.4010   -1.3360 C.2   119  ALA119      0.2287
    113  O         18.1760  -53.5960   -1.1830 O.2   119  ALA119     -0.2864
    114  CB        15.5050  -52.1890   -0.6900 C.3   119  ALA119      0.0319
    115  N         18.6480  -51.1480    1.5770 N.3   121  PHE121     -0.1241
    116  CA        18.2250  -51.2530    2.9680 C.3   121  PHE121      0.1605
    117  C         17.4600  -52.5650    3.1900 C.2   121  PHE121      0.2264
    118  O         16.8970  -53.1520    2.2490 O.2   121  PHE121     -0.2867
    119  CB        17.3670  -50.0480    3.3750 C.3   121  PHE121      0.0534
    120  CG        16.1050  -49.8890    2.5670 C.ar  121  PHE121     -0.0203
    121  CD1       16.1030  -49.1460    1.3840 C.ar  121  PHE121     -0.0042
    122  CD2       14.9170  -50.4680    2.9890 C.ar  121  PHE121     -0.0042
    123  CE1       14.9550  -49.0170    0.6270 C.ar  121  PHE121     -0.0003
    124  CE2       13.7590  -50.3180    2.2440 C.ar  121  PHE121     -0.0003
    125  CZ        13.7830  -49.5950    1.0640 C.ar  121  PHE121     -0.0000
    126  N         12.7040  -50.7160    7.6640 N.3   124  VAL124     -0.1245
    127  CA        12.2490  -49.3460    7.8150 C.3   124  VAL124      0.1561
    128  C         12.0380  -49.0290    9.2750 C.2   124  VAL124      0.2260
    129  O         11.5340  -49.8670   10.0350 O.2   124  VAL124     -0.2867
    130  CB        10.9150  -49.1190    7.0580 C.3   124  VAL124      0.0252
    131  CG1       10.4140  -47.6930    7.2300 C.3   124  VAL124      0.0019
    132  CG2       11.0720  -49.4520    5.5790 C.3   124  VAL124      0.0019
    133  N         -0.7300  -43.2660   12.9420 N.3   132  GLN132     -0.1245
    134  CA        -0.5450  -43.9910   11.6750 C.3   132  GLN132      0.1566
    135  C          0.0350  -45.3940   11.8550 C.2   132  GLN132      0.2260
    136  O          0.2310  -46.0960   10.8650 O.2   132  GLN132     -0.2867
    137  CB         0.3770  -43.2090   10.7260 C.3   132  GLN132      0.0367
    138  CG        -0.2980  -42.1210    9.9020 C.3   132  GLN132      0.0905
    139  CD         0.5990  -41.6120    8.7720 C.2   132  GLN132      0.2608
    140  OE1        1.8150  -41.8930    8.7250 O.2   132  GLN132     -0.2717
    141  NE2        0.0030  -40.8700    7.8450 N.am  132  GLN132     -0.0878
    142  N         20.0680  -34.8540    4.0450 N.3   159  TYR159     -0.1241
    143  CA        20.3960  -35.7990    2.9780 C.3   159  TYR159      0.1605
    144  C         21.3810  -35.1370    2.0530 C.2   159  TYR159      0.2264
    145  O         21.0760  -34.1100    1.4630 O.2   159  TYR159     -0.2867
    146  CB        19.1420  -36.2030    2.1800 C.3   159  TYR159      0.0534
    147  CG        18.2130  -37.2170    2.8170 C.ar  159  TYR159     -0.0201
    148  CD1       18.5620  -37.9380    3.9630 C.ar  159  TYR159     -0.0009
    149  CD2       16.9650  -37.4740    2.2550 C.ar  159  TYR159     -0.0009
    150  CE1       17.6870  -38.8670    4.5250 C.ar  159  TYR159      0.0417
    151  CE2       16.0900  -38.4070    2.8190 C.ar  159  TYR159      0.0417
    152  CZ        16.4690  -39.1000    3.9540 C.ar  159  TYR159      0.1957
    153  OH        15.6450  -40.0310    4.5320 O.3   159  TYR159     -0.2866
    154  N          2.8730  -34.1030    2.2020 N.3   218  LEU218     -0.1245
    155  CA         3.5060  -34.9550    3.1860 C.3   218  LEU218      0.1561
    156  C          5.0300  -34.7720    3.0730 C.2   218  LEU218      0.2260
    157  O          5.5850  -34.7870    1.9760 O.2   218  LEU218     -0.2867
    158  CB         3.1120  -36.4080    2.9520 C.3   218  LEU218      0.0270
    159  CG         3.7070  -37.4200    3.9370 C.3   218  LEU218      0.0019
    160  CD1        2.9810  -37.4190    5.2750 C.3   218  LEU218      0.0001
    161  CD2        3.6600  -38.7990    3.3070 C.3   218  LEU218      0.0001
    162  N          8.1470  -36.5170    3.5400 N.3   220  ASP220     -0.1225
    163  CA         8.3630  -37.9620    3.6100 C.3   220  ASP220      0.1805
    164  C          9.8220  -38.3250    3.4000 C.2   220  ASP220      0.2598
    165  O         10.2670  -38.4840    2.2800 O.2   220  ASP220     -0.2718
    166  CB         7.5040  -38.6860    2.5820 C.3   220  ASP220      0.1424
    167  CG         7.5570  -40.2050    2.7490 C.2   220  ASP220      0.3668
    168  OD1        8.3650  -40.6870    3.5770 O.co2 220  ASP220     -0.2456
    169  OD2        6.7780  -40.9210    2.0770 O.co2 220  ASP220     -0.2456
    170  N         10.5330  -38.5380    4.4970 N.am  221  THR221     -0.1939
    171  CA        11.9510  -38.8190    4.4450 C.3   221  THR221      0.2028
    172  C         12.2560  -40.2030    3.8820 C.2   221  THR221      0.2643
    173  O         13.3930  -40.4690    3.5200 O.2   221  THR221     -0.2714
    174  CB        12.5820  -38.7420    5.8360 C.3   221  THR221      0.1808
    175  OG1       11.9310  -39.6950    6.6870 O.3   221  THR221     -0.2208
    176  CG2       12.4670  -37.3050    6.4050 C.3   221  THR221      0.0379
    177  N         11.2530  -41.0770    3.8530 N.am  222  GLY222     -0.1939
    178  CA        11.4030  -42.4170    3.3310 C.3   222  GLY222      0.2014
    179  C         11.0640  -42.5680    1.8680 C.2   222  GLY222      0.2639
    180  O         11.0310  -43.6800    1.3790 O.2   222  GLY222     -0.2714
    181  N         10.7930  -41.4610    1.1780 N.am  223  ALA223     -0.1963
    182  CA        10.5090  -41.4570   -0.2550 C.3   223  ALA223      0.1728
    183  C         11.6920  -40.8810   -1.0300 C.2   223  ALA223      0.2616
    184  O         12.3650  -39.9720   -0.5500 O.2   223  ALA223     -0.2715
    185  CB         9.2580  -40.6530   -0.5330 C.3   223  ALA223      0.0334
    186  N         11.9400  -41.4240   -2.2160 N.am  224  SER224     -0.1950
    187  CA        13.0630  -40.9930   -3.0470 C.3   224  SER224      0.1924
    188  C         12.8090  -39.6480   -3.7070 C.2   224  SER224      0.2314
    189  O         13.7080  -38.8330   -3.8350 O.2   224  SER224     -0.2863
    190  CB        13.3630  -42.0230   -4.1480 C.3   224  SER224      0.2116
    191  OG        13.7150  -43.2790   -3.5870 O.3   224  SER224     -0.2180
    192  N          2.5020  -40.6020   -7.2010 N.3   297  MET297     -0.1245
    193  CA         2.1220  -41.5400   -6.1410 C.3   297  MET297      0.1570
    194  C          0.7040  -41.1740   -5.7180 C.2   297  MET297      0.2261
    195  O          0.4750  -40.1130   -5.1380 O.2   297  MET297     -0.2867
    196  CB         3.0780  -41.4910   -4.9400 C.3   297  MET297      0.0387
    197  CG         4.1100  -42.6190   -4.8830 C.3   297  MET297      0.0595
    198  SD         5.2550  -42.5200   -3.4830 S.3   297  MET297     -0.1393
    199  CE         4.1530  -42.1710   -2.1100 C.3   297  MET297      0.0692
    200  N         -2.0380  -41.5940   -3.3090 N.3   299  ILE299     -0.1231
    201  CA        -2.1700  -41.9970   -1.9200 C.3   299  ILE299      0.1678
    202  C         -3.6420  -41.8660   -1.5660 C.2   299  ILE299      0.2434
    203  O         -4.2290  -40.8060   -1.7910 O.2   299  ILE299     -0.2733
    204  CB        -1.2690  -41.1360   -1.0120 C.3   299  ILE299      0.0265
    205  CG1        0.2060  -41.3940   -1.3660 C.3   299  ILE299      0.0019
    206  CG2       -1.5230  -41.4500    0.4600 C.3   299  ILE299      0.0020
    207  CD1        1.1500  -40.3120   -0.8920 C.3   299  ILE299      0.0001
    208  N         -4.2600  -42.9480   -1.0440 N.am  300  PRO300     -0.2729
    209  CA        -5.6990  -42.8690   -0.7770 C.3   300  PRO300      0.1401
    210  C         -6.0110  -42.0890    0.4990 C.2   300  PRO300      0.2269
    211  O         -5.1080  -41.8530    1.3070 O.2   300  PRO300     -0.2865
    212  CB        -6.1140  -44.3330   -0.6260 C.3   300  PRO300      0.0296
    213  CG        -4.8690  -45.0840   -0.3180 C.3   300  PRO300      0.0237
    214  CD        -3.6800  -44.2070   -0.5420 C.3   300  PRO300      0.0939
    215  N         -5.0900  -39.9170    4.2400 N.3   303  THR303     -0.1218
    216  CA        -3.7970  -39.2390    4.0710 C.3   303  THR303      0.1862
    217  C         -3.7320  -38.4660    2.7590 C.2   303  THR303      0.2287
    218  O         -3.2130  -37.3510    2.7220 O.2   303  THR303     -0.2866
    219  CB        -2.6250  -40.2300    4.1270 C.3   303  THR303      0.1770
    220  OG1       -2.6870  -40.9620    5.3490 O.3   303  THR303     -0.2211
    221  CG2       -1.2760  -39.5090    4.0460 C.3   303  THR303      0.0375
    222  N         13.2930  -37.2210   -0.8260 N.3   311  ALA311     -0.1245
    223  CA        14.7200  -36.8860   -0.8370 C.3   311  ALA311      0.1562
    224  C         15.0770  -35.7690   -1.8100 C.2   311  ALA311      0.2260
    225  O         15.9170  -34.9380   -1.4950 O.2   311  ALA311     -0.2867
    226  CB        15.5590  -38.1170   -1.1300 C.3   311  ALA311      0.0290
@<TRIPOS>BOND
     1   109   107    1
     2   108   107    1
     3   107   106    1
     4   192   193    1
     5     7     5    1
     6   106   103    1
     7   193   194    1
     8   193   196    1
     9   194   195    2
    10     5     6    1
    11     5     2    1
    12   103   102    1
    13   103   104    1
    14   196   197    1
    15   197   198    1
    16    85    84    1
    17    85    88    1
    18    85    86    1
    19   105   104    2
    20     1     2    1
    21     2     3    1
    22    84    90    1
    23   104   110   am
    24    88    89    1
    25   190   191    1
    26   190   187    1
    27    87    86    2
    28    80    79    2
    29    74    73    2
    30    86    91   am
    31   189   188    2
    32   188   187    1
    33    83    81    1
    34    16    14   am
    35   198   199    1
    36    78    79    1
    37    78    81    1
    38    78    77    1
    39   200   201    1
    40    81    82    1
    41    90    89    1
    42     3     4    2
    43     3     8   am
    44    91    92    1
    45   187   186    1
    46   110   111    1
    47    73    77   am
    48    73    72    1
    49    93    92    1
    50    93    94    2
    51    14    13    1
    52    14    15    2
    53     8     9    1
    54    13    12    1
    55   186   183   am
    56    92    95    1
    57   201   202    1
    58   201   204    1
    59    75    72    1
    60    75    76    1
    61   224   225    2
    62   224   223    1
    63   111   112    1
    64   111   114    1
    65   203   202    2
    66    72    71    1
    67   202   208   am
    68   205   204    1
    69   205   207    1
    70    28    27    1
    71   112   113    2
    72    12     9    1
    73   226   223    1
    74     9    10    1
    75   208   209    1
    76   208   214    1
    77   183   184    2
    78   183   182    1
    79   204   206    1
    80   223   222    1
    81    95    96    1
    82   209   212    1
    83   209   210    1
    84    25    27   ar
    85    25    23   ar
    86   212   213    1
    87   214   213    1
    88   185   182    1
    89    62    61    2
    90    27    26   ar
    91    71    61   am
    92    98    96   ar
    93    98   100   ar
    94    11    10    2
    95   182   181    1
    96    96    97   ar
    97    10    17   am
    98    61    60    1
    99    23    22   ar
   100   100   101   ar
   101   210   211    2
   102    58    56    1
   103    97    99   ar
   104   123   125   ar
   105   123   121   ar
   106    26    24   ar
   107   101    99   ar
   108   125   124   ar
   109    17    18    1
   110   181   179   am
   111   180   179    2
   112   121   120   ar
   113    63    60    1
   114    63    64    1
   115   145   144    2
   116    22    24   ar
   117    22    21    1
   118    60    59    1
   119    56    55    2
   120    56    57    1
   121   115   116    1
   122    55    54    1
   123   179   178    1
   124   157   156    2
   125    59    50   am
   126   144   143    1
   127   169   167   ar
   128   146   147    1
   129   146   143    1
   130   154   155    1
   131    18    21    1
   132    18    19    1
   133   124   122   ar
   134   118   117    2
   135   149   147   ar
   136   149   151   ar
   137   165   164    2
   138   120   122   ar
   139   120   119    1
   140   166   167    1
   141   166   163    1
   142    50    49    1
   143    50    51    2
   144    53    52    1
   145    53    54    1
   146    64    66   ar
   147    64    65   ar
   148   218   217    2
   149    52    49    1
   150   167   168   ar
   151   217   216    1
   152   147   148   ar
   153   151   152   ar
   154   158   155    1
   155   158   159    1
   156   116   117    1
   157   116   119    1
   158   143   142    1
   159    49    48    1
   160    66    68   ar
   161   156   155    1
   162   161   159    1
   163   178   177    1
   164    19    20    2
   165   164   163    1
   166   164   170   am
   167    35    33    1
   168   173   172    2
   169   162   163    1
   170    65    67   ar
   171   177   172   am
   172   172   171    1
   173   159   160    1
   174   152   150   ar
   175   152   153    1
   176   148   150   ar
   177   221   219    1
   178   216   219    1
   179   216   215    1
   180   219   220    1
   181    68    69   ar
   182   171   170    1
   183   171   174    1
   184    34    33    1
   185    33    30    1
   186    67    69   ar
   187    69    70    1
   188    42    41   ar
   189   132   130    1
   190    43    41   ar
   191    41    40    1
   192   174   176    1
   193   174   175    1
   194    30    29    1
   195    30    31    1
   196    45    46    1
   197    45    44    1
   198    47    46    2
   199    40    37    1
   200   130   131    1
   201   130   127    1
   202    31    32    2
   203    37    38    1
   204    37    36    1
   205   126   127    1
   206   127   128    1
   207   141   139   am
   208    38    39    2
   209   140   139    2
   210   139   138    1
   211   128   129    2
   212   138   137    1
   213   137   134    1
   214   136   135    2
   215   134   135    1
   216   134   133    1
