@<TRIPOS>MOLECULE
tmp/5tmgA02.pdb
 92 88 0 0 0
SMALL
GASTEIGER

@<TRIPOS>ATOM
      1  N         18.8350  -42.0200   -4.4090 N.3    15  THR15      -0.1218
      2  CA        17.5190  -42.6240   -4.3720 C.3    15  THR15       0.1862
      3  C         17.2100  -43.3820   -3.0770 C.2    15  THR15       0.2287
      4  O         16.0410  -43.5910   -2.7570 O.2    15  THR15      -0.2866
      5  CB        17.3290  -43.5880   -5.5560 C.3    15  THR15       0.1770
      6  OG1       18.3560  -44.5800   -5.5490 O.3    15  THR15      -0.2211
      7  CG2       17.3900  -42.8390   -6.8400 C.3    15  THR15       0.0375
      8  N          4.1100  -48.2280   -2.4860 N.3    82  THR82      -0.1218
      9  CA         4.9920  -48.8830   -3.4400 C.3    82  THR82       0.1862
     10  C          5.0430  -50.3940   -3.2780 C.2    82  THR82       0.2287
     11  O          5.7200  -51.0830   -4.0450 O.2    82  THR82      -0.2866
     12  CB         6.4110  -48.3620   -3.2540 C.3    82  THR82       0.1770
     13  OG1        6.7640  -48.4810   -1.8740 O.3    82  THR82      -0.2211
     14  CG2        6.5050  -46.9010   -3.6610 C.3    82  THR82       0.0375
     15  N          9.4950  -56.9140   -5.7880 N.3   114  LEU114     -0.1231
     16  CA         9.3230  -55.4900   -6.0790 C.3   114  LEU114      0.1678
     17  C          8.5800  -54.8240   -4.9320 C.2   114  LEU114      0.2434
     18  O          7.4870  -55.2700   -4.5780 O.2   114  LEU114     -0.2733
     19  CB         8.5890  -55.3030   -7.3890 C.3   114  LEU114      0.0284
     20  CG         9.4510  -55.7030   -8.5880 C.3   114  LEU114      0.0019
     21  CD1        8.5860  -55.9670   -9.8080 C.3   114  LEU114      0.0001
     22  CD2       10.4840  -54.6280   -8.9050 C.3   114  LEU114      0.0001
     23  N          9.1330  -53.7730   -4.3290 N.am  115  PRO115     -0.2729
     24  CA        10.4030  -53.1300   -4.6620 C.3   115  PRO115      0.1401
     25  C         11.6550  -53.6660   -3.9140 C.2   115  PRO115      0.2269
     26  O         12.7510  -53.1380   -4.1120 O.2   115  PRO115     -0.2865
     27  CB        10.1490  -51.7070   -4.2000 C.3   115  PRO115      0.0296
     28  CG         9.3230  -51.8980   -2.9680 C.3   115  PRO115      0.0237
     29  CD         8.4810  -53.1120   -3.1900 C.3   115  PRO115      0.0939
     30  N         15.2500  -54.3230   -4.9890 N.3   118  LEU118     -0.1245
     31  CA        15.9600  -53.1300   -5.4090 C.3   118  LEU118      0.1561
     32  C         16.4810  -52.3110   -4.2260 C.2   118  LEU118      0.2260
     33  O         17.1910  -51.3210   -4.4310 O.2   118  LEU118     -0.2867
     34  CB        15.0600  -52.2880   -6.3140 C.3   118  LEU118      0.0270
     35  CG        14.6030  -53.0320   -7.5760 C.3   118  LEU118      0.0019
     36  CD1       13.5150  -52.2500   -8.2900 C.3   118  LEU118      0.0001
     37  CD2       15.7810  -53.2580   -8.5190 C.3   118  LEU118      0.0001
     38  N         11.9400  -41.4240   -2.2160 N.3   224  SER224     -0.1202
     39  CA        13.0630  -40.9930   -3.0470 C.3   224  SER224      0.2020
     40  C         12.8090  -39.6480   -3.7070 C.2   224  SER224      0.2618
     41  O         13.7080  -38.8330   -3.8350 O.2   224  SER224     -0.2717
     42  CB        13.3630  -42.0230   -4.1480 C.3   224  SER224      0.2103
     43  OG        13.7150  -43.2790   -3.5870 O.3   224  SER224     -0.2182
     44  N         11.5870  -39.4410   -4.1570 N.am  225  TYR225     -0.1975
     45  CA        11.2850  -38.3670   -5.0680 C.3   225  TYR225      0.1639
     46  C         10.2660  -37.4390   -4.4420 C.2   225  TYR225      0.2290
     47  O          9.7360  -37.7010   -3.3620 O.2   225  TYR225     -0.2864
     48  CB        10.7310  -38.9400   -6.3760 C.3   225  TYR225      0.0560
     49  CG        11.6980  -39.7040   -7.2800 C.ar  225  TYR225     -0.0198
     50  CD1       13.0740  -39.7770   -7.0280 C.ar  225  TYR225     -0.0009
     51  CD2       11.2270  -40.3120   -8.4440 C.ar  225  TYR225     -0.0009
     52  CE1       13.9270  -40.4600   -7.8770 C.ar  225  TYR225      0.0417
     53  CE2       12.0770  -41.0000   -9.2990 C.ar  225  TYR225      0.0417
     54  CZ        13.4260  -41.0710   -9.0090 C.ar  225  TYR225      0.1957
     55  OH        14.2730  -41.7500   -9.8590 O.3   225  TYR225     -0.2866
     56  N          7.7260  -46.3640  -14.8310 N.3   247  PHE247     -0.1227
     57  CA         7.9820  -45.9920  -13.4410 C.3   247  PHE247      0.1736
     58  C          8.5070  -44.5750  -13.2230 C.2   247  PHE247      0.2595
     59  O          8.6720  -44.1510  -12.0790 O.2   247  PHE247     -0.2718
     60  CB         8.9610  -47.0010  -12.8350 C.3   247  PHE247      0.0547
     61  CG         8.5350  -48.4270  -13.0310 C.ar  247  PHE247     -0.0202
     62  CD1        7.4490  -48.9380  -12.3260 C.ar  247  PHE247     -0.0042
     63  CD2        9.1830  -49.2460  -13.9460 C.ar  247  PHE247     -0.0042
     64  CE1        7.0280  -50.2490  -12.5160 C.ar  247  PHE247     -0.0003
     65  CE2        8.7720  -50.5570  -14.1390 C.ar  247  PHE247     -0.0003
     66  CZ         7.6930  -51.0580  -13.4230 C.ar  247  PHE247     -0.0000
     67  N          8.7650  -43.8390  -14.2970 N.am  248  ASP248     -0.1974
     68  CA         9.3810  -42.5220  -14.1820 C.3   248  ASP248      0.1709
     69  C          9.0260  -41.6680  -15.3740 C.2   248  ASP248      0.2293
     70  O          8.4010  -42.1330  -16.3300 O.2   248  ASP248     -0.2864
     71  CB        10.9090  -42.6550  -14.0450 C.3   248  ASP248      0.1436
     72  CG        11.5800  -43.1830  -15.3100 C.2   248  ASP248      0.3671
     73  OD1       10.8840  -43.7500  -16.1620 O.co2 248  ASP248     -0.2456
     74  OD2       12.8130  -43.0280  -15.4650 O.co2 248  ASP248     -0.2456
     75  N          7.6360  -38.0880   -9.5670 N.3   295  HIS295     -0.1241
     76  CA         6.7230  -39.0600  -10.1820 C.3   295  HIS295      0.1621
     77  C          5.3590  -39.1090   -9.4850 C.2   295  HIS295      0.2264
     78  O          5.1480  -38.4430   -8.4800 O.2   295  HIS295     -0.2867
     79  CB         7.3840  -40.4450  -10.2260 C.3   295  HIS295      0.0745
     80  CG         7.6240  -41.0540   -8.8850 C.ar  295  HIS295      0.0817
     81  ND1        8.0760  -42.3450   -8.7400 N.ar  295  HIS295     -0.2268
     82  CD2        7.4750  -40.5660   -7.6300 C.ar  295  HIS295      0.1154
     83  CE1        8.2040  -42.6250   -7.4550 C.ar  295  HIS295      0.1986
     84  NE2        7.8410  -41.5640   -6.7600 N.ar  295  HIS295     -0.2212
     85  N          2.5020  -40.6020   -7.2010 N.3   297  MET297     -0.1245
     86  CA         2.1220  -41.5400   -6.1410 C.3   297  MET297      0.1570
     87  C          0.7040  -41.1740   -5.7180 C.2   297  MET297      0.2261
     88  O          0.4750  -40.1130   -5.1380 O.2   297  MET297     -0.2867
     89  CB         3.0780  -41.4910   -4.9400 C.3   297  MET297      0.0387
     90  CG         4.1100  -42.6190   -4.8830 C.3   297  MET297      0.0595
     91  SD         5.2550  -42.5200   -3.4830 S.3   297  MET297     -0.1393
     92  CE         4.1530  -42.1710   -2.1100 C.3   297  MET297      0.0692
@<TRIPOS>BOND
     1    70    69    2
     2    73    72   ar
     3    74    72   ar
     4    69    68    1
     5    72    71    1
     6    56    57    1
     7    67    68    1
     8    67    58   am
     9    68    71    1
    10    65    63   ar
    11    65    66   ar
    12    63    61   ar
    13    57    58    1
    14    57    60    1
    15    66    64   ar
    16    58    59    2
    17    61    60    1
    18    61    62   ar
    19    64    62   ar
    20    79    76    1
    21    79    80    1
    22    76    75    1
    23    76    77    1
    24    55    54    1
    25    21    20    1
    26    77    78    2
    27    53    54   ar
    28    53    51   ar
    29    54    52   ar
    30    22    20    1
    31    80    81   ar
    32    80    82   ar
    33    81    83   ar
    34    20    19    1
    35    37    35    1
    36    51    49   ar
    37    36    35    1
    38    52    50   ar
    39    82    84   ar
    40    35    34    1
    41    83    84   ar
    42    19    16    1
    43    49    50   ar
    44    49    48    1
    45    85    86    1
    46     7     5    1
    47    48    45    1
    48    34    31    1
    49    86    87    1
    50    86    89    1
    51    16    15    1
    52    16    17    1
    53    87    88    2
    54     5     6    1
    55     5     2    1
    56    31    30    1
    57    31    32    1
    58    45    46    1
    59    45    44    1
    60    89    90    1
    61    17    18    2
    62    17    23   am
    63    90    91    1
    64    24    23    1
    65    24    27    1
    66    24    25    1
    67    46    47    2
    68    33    32    2
    69     1     2    1
    70     2     3    1
    71    23    29    1
    72    27    28    1
    73    44    40   am
    74    42    43    1
    75    42    39    1
    76    26    25    2
    77    11    10    2
    78    41    40    2
    79    40    39    1
    80    14    12    1
    81    91    92    1
    82     9    10    1
    83     9    12    1
    84     9     8    1
    85    12    13    1
    86    29    28    1
    87     3     4    2
    88    39    38    1
