@<TRIPOS>MOLECULE
tmp/5tmpA00.pdb
 186 176 0 0 0
SMALL
GASTEIGER

@<TRIPOS>ATOM
      1  N         23.5510  108.6360   20.9680 N.3    11  GLU11      -0.1245
      2  CA        22.1690  108.8760   20.5790 C.3    11  GLU11       0.1567
      3  C         21.8340  110.2380   21.1860 C.2    11  GLU11       0.2260
      4  O         22.1530  110.5200   22.3470 O.2    11  GLU11      -0.2867
      5  CB        21.2360  107.7800   21.1270 C.3    11  GLU11       0.0388
      6  CG        21.2220  106.4810   20.2980 C.3    11  GLU11       0.1160
      7  CD        20.0180  105.5740   20.6050 C.2    11  GLU11       0.3649
      8  OE1       19.0100  106.0730   21.1560 O.co2  11  GLU11      -0.2457
      9  OE2       20.0820  104.3640   20.2940 O.co2  11  GLU11      -0.2457
     10  N         22.7140  113.8190   14.8660 N.3    15  LYS15      -0.1245
     11  CA        23.0720  113.2390   13.5750 C.3    15  LYS15       0.1561
     12  C         22.2590  113.7080   12.3630 C.2    15  LYS15       0.2260
     13  O         22.8130  113.8780   11.2770 O.2    15  LYS15      -0.2867
     14  CB        23.0090  111.7150   13.6630 C.3    15  LYS15       0.0271
     15  CG        24.2660  111.1060   14.2270 C.3    15  LYS15       0.0035
     16  CD        24.1440  109.6090   14.2870 C.3    15  LYS15       0.0206
     17  CE        23.8720  109.1550   15.7060 C.3    15  LYS15       0.1093
     18  NZ        22.6340  108.3070   15.7200 N.3    15  LYS15      -0.1314
     19  N         21.4030  103.9030    6.6990 N.3    38  ARG38      -0.1231
     20  CA        21.4760  103.9460    8.1490 C.3    38  ARG38       0.1694
     21  C         21.8120  102.5510    8.6730 C.2    38  ARG38       0.2592
     22  O         21.4700  101.5580    8.0520 O.2    38  ARG38      -0.2718
     23  CB        20.1610  104.4430    8.7260 C.3    38  ARG38       0.0321
     24  CG        19.0600  103.4390    8.6540 C.3    38  ARG38       0.0489
     25  CD        18.8990  102.6850    9.9500 C.3    38  ARG38       0.2205
     26  NE        17.6750  101.8980    9.9050 N.pl3  38  ARG38      -0.0865
     27  CZ        16.5720  102.1890   10.5860 C.cat  38  ARG38       0.5346
     28  NH1       16.5410  103.2590   11.3740 N.pl3  38  ARG38       0.1354
     29  NH2       15.5000  101.4120   10.4750 N.pl3  38  ARG38       0.1354
     30  N         22.5160  102.4890    9.8000 N.am   39  GLU39      -0.1966
     31  CA        22.9240  101.2310   10.3970 C.3    39  GLU39       0.1718
     32  C         22.5510  101.1950   11.8620 C.2    39  GLU39       0.2458
     33  O         22.6430  102.2000   12.5510 O.2    39  GLU39      -0.2730
     34  CB        24.4380  101.0520   10.2900 C.3    39  GLU39       0.0428
     35  CG        24.9330  100.7530    8.8960 C.3    39  GLU39       0.1163
     36  CD        26.4080  100.3920    8.8760 C.2    39  GLU39       0.3649
     37  OE1       26.9060   99.9100    9.9190 O.co2  39  GLU39      -0.2457
     38  OE2       27.0580  100.5940    7.8180 O.co2  39  GLU39      -0.2457
     39  N         22.0950  100.0310   12.3540 N.am   40  PRO40      -0.2727
     40  CA        21.9320   98.8060   11.5580 C.3    40  PRO40       0.1402
     41  C         20.6790   98.9270   10.7040 C.2    40  PRO40       0.2269
     42  O         19.6630   99.4290   11.1750 O.2    40  PRO40      -0.2865
     43  CB        21.7670   97.7230   12.6080 C.3    40  PRO40       0.0296
     44  CG        21.1570   98.4250   13.7790 C.3    40  PRO40       0.0237
     45  CD        21.7180   99.8350   13.7670 C.3    40  PRO40       0.0939
     46  N         18.3740   94.4880   12.6060 N.3    50  ARG50      -0.1245
     47  CA        18.1850   95.6760   13.4380 C.3    50  ARG50       0.1563
     48  C         17.1500   95.3730   14.5410 C.2    50  ARG50       0.2260
     49  O         17.4120   95.5550   15.7420 O.2    50  ARG50      -0.2867
     50  CB        17.7040   96.8680   12.5820 C.3    50  ARG50       0.0307
     51  CG        17.3720   98.1140   13.4180 C.3    50  ARG50       0.0489
     52  CD        16.8180   99.3250   12.6210 C.3    50  ARG50       0.2205
     53  NE        16.5080  100.4340   13.5370 N.pl3  50  ARG50      -0.0865
     54  CZ        17.3110  101.4720   13.7780 C.cat  50  ARG50       0.5346
     55  NH1       18.4940  101.5710   13.1710 N.pl3  50  ARG50       0.1354
     56  NH2       16.9500  102.3950   14.6650 N.pl3  50  ARG50       0.1354
     57  N         17.8160   95.6930   18.5370 N.3    54  LEU54      -0.1245
     58  CA        17.3090   96.7790   19.4020 C.3    54  LEU54       0.1561
     59  C         15.9760   96.6210   20.1320 C.2    54  LEU54       0.2260
     60  O         15.7600   97.2560   21.1660 O.2    54  LEU54      -0.2867
     61  CB        17.2910   98.0860   18.6010 C.3    54  LEU54       0.0270
     62  CG        18.5110   98.2590   17.6750 C.3    54  LEU54       0.0019
     63  CD1       18.3030   99.4340   16.7540 C.3    54  LEU54       0.0001
     64  CD2       19.7780   98.4400   18.5150 C.3    54  LEU54       0.0001
     65  N         25.6420   93.0040   14.2450 N.3    73  PHE73      -0.1241
     66  CA        25.9360   94.3380   13.7500 C.3    73  PHE73       0.1605
     67  C         26.7760   94.1790   12.4950 C.2    73  PHE73       0.2264
     68  O         26.5760   94.8770   11.5010 O.2    73  PHE73      -0.2867
     69  CB        26.7160   95.1200   14.7970 C.3    73  PHE73       0.0534
     70  CG        25.8390   95.8480   15.7670 C.ar   73  PHE73      -0.0203
     71  CD1       24.8430   96.7090   15.3080 C.ar   73  PHE73      -0.0042
     72  CD2       25.9570   95.6280   17.1330 C.ar   73  PHE73      -0.0042
     73  CE1       23.9740   97.3290   16.2030 C.ar   73  PHE73      -0.0003
     74  CE2       25.0850   96.2500   18.0330 C.ar   73  PHE73      -0.0003
     75  CZ        24.0980   97.0910   17.5680 C.ar   73  PHE73      -0.0000
     76  N         26.0760   95.1860    8.6100 N.3    77  ARG77      -0.1245
     77  CA        26.9810   96.0800    7.9010 C.3    77  ARG77       0.1563
     78  C         27.4260   95.5250    6.5530 C.2    77  ARG77       0.2260
     79  O         27.2450   96.1870    5.5300 O.2    77  ARG77      -0.2867
     80  CB        28.2120   96.3750    8.7570 C.3    77  ARG77       0.0307
     81  CG        29.1890   97.4050    8.1780 C.3    77  ARG77       0.0489
     82  CD        30.0410   97.9730    9.3090 C.3    77  ARG77       0.2205
     83  NE        29.1730   98.4150   10.3940 N.pl3  77  ARG77      -0.0865
     84  CZ        29.3780   98.2030   11.6890 C.cat  77  ARG77       0.5346
     85  NH1       30.4450   97.5470   12.1220 N.pl3  77  ARG77       0.1354
     86  NH2       28.4770   98.6270   12.5630 N.pl3  77  ARG77       0.1354
     87  N         24.3820  106.9690    8.2110 N.3    98  ASP98      -0.1225
     88  CA        24.1340  107.3280    9.6010 C.3    98  ASP98       0.1805
     89  C         24.6720  106.1320   10.3630 C.2    98  ASP98       0.2597
     90  O         23.9920  105.1270   10.5150 O.2    98  ASP98      -0.2718
     91  CB        22.6330  107.4990    9.8910 C.3    98  ASP98       0.1424
     92  CG        22.3570  107.9500   11.3330 C.2    98  ASP98       0.3668
     93  OD1       23.1130  107.5770   12.2610 O.co2  98  ASP98      -0.2456
     94  OD2       21.3710  108.6840   11.5510 O.co2  98  ASP98      -0.2456
     95  N         25.9090  106.2540   10.8140 N.am   99  ARG99      -0.1979
     96  CA        26.6050  105.2100   11.5590 C.3    99  ARG99       0.1597
     97  C         27.2410  104.1870   10.6450 C.2    99  ARG99       0.2287
     98  O         26.7930  103.9530    9.5130 O.2    99  ARG99      -0.2864
     99  CB        25.6710  104.4970   12.5190 C.3    99  ARG99       0.0334
    100  CG        25.1520  105.3460   13.6220 C.3    99  ARG99       0.0492
    101  CD        24.6160  104.4270   14.6760 C.3    99  ARG99       0.2205
    102  NE        24.0200  105.1540   15.7820 N.pl3  99  ARG99      -0.0865
    103  CZ        24.7040  105.6950   16.7780 C.cat  99  ARG99       0.5346
    104  NH1       26.0300  105.5980   16.8160 N.pl3  99  ARG99       0.1354
    105  NH2       24.0500  106.3000   17.7570 N.pl3  99  ARG99       0.1354
    106  N         30.8800  102.8530   15.1930 N.3   103  SER103     -0.1202
    107  CA        29.8270  102.5800   16.1650 C.3   103  SER103      0.2020
    108  C         30.0690  101.2530   16.8760 C.2   103  SER103      0.2619
    109  O         29.8970  101.1450   18.0970 O.2   103  SER103     -0.2717
    110  CB        28.4780  102.5610   15.4590 C.3   103  SER103      0.2103
    111  OG        27.8840  103.8460   15.4780 O.3   103  SER103     -0.2182
    112  N         30.4720  100.2390   16.1080 N.am  104  THR104     -0.1952
    113  CA        30.7590   98.9340   16.6830 C.3   104  THR104      0.1897
    114  C         31.9670   99.1060   17.6090 C.2   104  THR104      0.2313
    115  O         31.9460   98.7030   18.7840 O.2   104  THR104     -0.2863
    116  CB        31.0930   97.8900   15.5860 C.3   104  THR104      0.1794
    117  OG1       29.9700   97.7330   14.7010 O.3   104  THR104     -0.2208
    118  CG2       31.4010   96.5480   16.2220 C.3   104  THR104      0.0378
    119  N         30.7170  101.4030   20.6810 N.3   107  TYR107     -0.1227
    120  CA        29.7070  100.7340   21.5120 C.3   107  TYR107      0.1736
    121  C         30.0610   99.3220   22.0060 C.2   107  TYR107      0.2595
    122  O         29.9600   99.0210   23.2020 O.2   107  TYR107     -0.2718
    123  CB        28.3660  100.6990   20.7600 C.3   107  TYR107      0.0548
    124  CG        27.5940  102.0110   20.8090 C.ar  107  TYR107     -0.0200
    125  CD1       26.7510  102.3010   21.8680 C.ar  107  TYR107     -0.0009
    126  CD2       27.7060  102.9570   19.7800 C.ar  107  TYR107     -0.0009
    127  CE1       26.0370  103.4960   21.9060 C.ar  107  TYR107      0.0417
    128  CE2       26.9970  104.1520   19.8100 C.ar  107  TYR107      0.0417
    129  CZ        26.1610  104.4120   20.8810 C.ar  107  TYR107      0.1957
    130  OH        25.4310  105.5750   20.9260 O.3   107  TYR107     -0.2866
    131  N         30.4710   98.4520   21.0910 N.am  108  GLN108     -0.1979
    132  CA        30.8240   97.0950   21.4790 C.3   108  GLN108      0.1601
    133  C         32.2140   97.0850   22.0810 C.2   108  GLN108      0.2287
    134  O         32.4980   96.3300   23.0030 O.2   108  GLN108     -0.2864
    135  CB        30.7560   96.1710   20.2700 C.3   108  GLN108      0.0394
    136  CG        29.3340   95.7810   19.9230 C.3   108  GLN108      0.0908
    137  CD        28.5120   96.9650   19.4460 C.2   108  GLN108      0.2608
    138  OE1       28.8900   97.6500   18.4980 O.2   108  GLN108     -0.2717
    139  NE2       27.3790   97.2130   20.1040 N.am  108  GLN108     -0.0878
    140  N         12.6000  111.7690   23.1680 N.3   152  ARG152     -0.1245
    141  CA        12.1250  111.2930   21.8750 C.3   152  ARG152      0.1563
    142  C         11.0210  110.2510   22.0040 C.2   152  ARG152      0.2260
    143  O         10.0320  110.2820   21.2750 O.2   152  ARG152     -0.2867
    144  CB        13.2800  110.7010   21.0640 C.3   152  ARG152      0.0307
    145  CG        12.8180  110.0270   19.7670 C.3   152  ARG152      0.0489
    146  CD        13.9860  109.7170   18.8470 C.3   152  ARG152      0.2205
    147  NE        15.1120  109.1920   19.6140 N.pl3 152  ARG152     -0.0865
    148  CZ        16.2270  108.6810   19.0960 C.cat 152  ARG152      0.5346
    149  NH1       16.3960  108.6120   17.7750 N.pl3 152  ARG152      0.1354
    150  NH2       17.1720  108.2320   19.9190 N.pl3 152  ARG152      0.1354
    151  N         15.5060  101.8950   23.0110 N.3   156  ASP156     -0.1239
    152  CA        15.7860  100.5480   22.5060 C.3   156  ASP156      0.1674
    153  C         16.6070   99.7760   23.5500 C.2   156  ASP156      0.2266
    154  O         16.9290  100.3070   24.6240 O.2   156  ASP156     -0.2867
    155  CB        16.5240  100.5910   21.1430 C.3   156  ASP156      0.1410
    156  CG        17.9420  101.1390   21.2340 C.2   156  ASP156      0.3668
    157  OD1       18.6930  100.8130   22.1770 O.co2 156  ASP156     -0.2456
    158  OD2       18.3200  101.9040   20.3310 O.co2 156  ASP156     -0.2456
    159  N         19.7820   98.8740   23.6440 N.3   158  ILE158     -0.1231
    160  CA        21.0950   99.4460   23.9470 C.3   158  ILE158      0.1692
    161  C         21.0510  100.8420   24.5680 C.2   158  ILE158      0.2591
    162  O         21.8980  101.1750   25.3870 O.2   158  ILE158     -0.2718
    163  CB        22.0170   99.4830   22.6760 C.3   158  ILE158      0.0266
    164  CG1       22.3510   98.0560   22.2180 C.3   158  ILE158      0.0019
    165  CG2       23.3270  100.1960   23.0000 C.3   158  ILE158      0.0020
    166  CD1       22.6640   97.9200   20.7470 C.3   158  ILE158      0.0001
    167  N         20.0750  101.6610   24.1870 N.am  159  GLU159     -0.1979
    168  CA        19.9780  103.0080   24.7470 C.3   159  GLU159      0.1602
    169  C         19.5490  102.9860   26.2120 C.2   159  GLU159      0.2287
    170  O         19.5720  104.0110   26.8920 O.2   159  GLU159     -0.2864
    171  CB        19.0130  103.8680   23.9250 C.3   159  GLU159      0.0415
    172  CG        18.9280  105.3270   24.3880 C.3   159  GLU159      0.1163
    173  CD        20.2560  106.1120   24.2760 C.2   159  GLU159      0.3649
    174  OE1       20.9730  105.9640   23.2620 O.co2 159  GLU159     -0.2457
    175  OE2       20.5790  106.8860   25.2100 O.co2 159  GLU159     -0.2457
    176  N         27.7680  104.4720   28.4470 N.3   166  PHE166     -0.1241
    177  CA        27.8160  105.5820   27.5040 C.3   166  PHE166      0.1605
    178  C         29.1200  106.3860   27.6820 C.2   166  PHE166      0.2264
    179  O         29.6600  106.9570   26.7240 O.2   166  PHE166     -0.2867
    180  CB        26.6030  106.4890   27.7310 C.3   166  PHE166      0.0534
    181  CG        25.2900  105.8500   27.3710 C.ar  166  PHE166     -0.0203
    182  CD1       25.0470  105.4050   26.0660 C.ar  166  PHE166     -0.0042
    183  CD2       24.2930  105.6940   28.3290 C.ar  166  PHE166     -0.0042
    184  CE1       23.8350  104.8160   25.7240 C.ar  166  PHE166     -0.0003
    185  CE2       23.0760  105.1080   27.9930 C.ar  166  PHE166     -0.0003
    186  CZ        22.8490  104.6680   26.6890 C.ar  166  PHE166     -0.0000
@<TRIPOS>BOND
     1    79    78    2
     2    78    77    1
     3    19    20    1
     4    38    36   ar
     5    77    76    1
     6    77    80    1
     7    22    21    2
     8    20    21    1
     9    20    23    1
    10    81    80    1
    11    81    82    1
    12    87    88    1
    13    24    23    1
    14    24    25    1
    15    21    30   am
    16    36    35    1
    17    36    37   ar
    18    35    34    1
    19    82    83    1
    20    98    97    2
    21    88    91    1
    22    88    89    1
    23    30    31    1
    24    91    92    1
    25    26    25    1
    26    26    27    2
    27    34    31    1
    28    89    90    2
    29    89    95   am
    30    83    84    2
    31    31    32    1
    32    29    27    1
    33    27    28    1
    34    97    96    1
    35    41    42    2
    36    41    40    1
    37    95    96    1
    38    13    12    2
    39    92    94   ar
    40    92    93   ar
    41    68    67    2
    42    40    39    1
    43    40    43    1
    44    96    99    1
    45    84    85    1
    46    84    86    1
    47    32    39   am
    48    32    33    2
    49    39    45    1
    50    12    11    1
    51    67    66    1
    52    99   100    1
    53    50    51    1
    54    50    47    1
    55    46    47    1
    56    43    44    1
    57    52    51    1
    58    52    53    1
    59    55    54    1
    60    47    48    1
    61    53    54    2
    62    11    14    1
    63    11    10    1
    64   100   101    1
    65    14    15    1
    66    66    65    1
    67    66    69    1
    68    45    44    1
    69    54    56    1
    70    15    16    1
    71    16    17    1
    72    48    49    2
    73   101   102    1
    74   117   116    1
    75    69    70    1
    76   106   107    1
    77    71    70   ar
    78    71    73   ar
    79   110   111    1
    80   110   107    1
    81   116   118    1
    82   116   113    1
    83    17    18    1
    84    70    72   ar
    85   102   103    2
    86   112   113    1
    87   112   108   am
    88   107   108    1
    89    73    75   ar
    90   113   114    1
    91    63    62    1
    92   103   104    1
    93   103   105    1
    94   108   109    2
    95    72    74   ar
    96    75    74   ar
    97   114   115    2
    98    62    64    1
    99    62    61    1
   100   149   148    1
   101   138   137    2
   102    57    58    1
   103    61    58    1
   104   146   147    1
   105   146   145    1
   106   148   147    2
   107   148   150    1
   108    58    59    1
   109   137   136    1
   110   137   139   am
   111   145   144    1
   112   126   128   ar
   113   126   124   ar
   114   128   129   ar
   115   136   135    1
   116    59    60    2
   117   135   132    1
   118     9     7   ar
   119     6     7    1
   120     6     5    1
   121   158   156   ar
   122     2     1    1
   123     2     5    1
   124     2     3    1
   125     7     8   ar
   126   119   120    1
   127   166   164    1
   128   123   124    1
   129   123   120    1
   130   124   125   ar
   131   129   130    1
   132   129   127   ar
   133   144   141    1
   134   131   132    1
   135   131   121   am
   136   155   156    1
   137   155   152    1
   138     3     4    2
   139   156   157   ar
   140   143   142    2
   141   132   133    1
   142   120   121    1
   143   125   127   ar
   144   141   142    1
   145   141   140    1
   146   121   122    2
   147   133   134    2
   148   164   163    1
   149   152   151    1
   150   152   153    1
   151   163   165    1
   152   163   160    1
   153   174   173   ar
   154   153   154    2
   155   159   160    1
   156   171   172    1
   157   171   168    1
   158   160   161    1
   159   167   161   am
   160   167   168    1
   161   173   172    1
   162   173   175   ar
   163   161   162    2
   164   168   169    1
   165   184   182   ar
   166   184   186   ar
   167   182   181   ar
   168   169   170    2
   169   186   185   ar
   170   179   178    2
   171   181   180    1
   172   181   183   ar
   173   177   178    1
   174   177   180    1
   175   177   176    1
   176   185   183   ar
