@<TRIPOS>MOLECULE
tmp/5tmuA01.pdb
 194 182 0 0 0
SMALL
GASTEIGER

@<TRIPOS>ATOM
      1  N        -11.1620    5.7810   15.4710 N.3    39  MET39      -0.1245
      2  CA       -10.6980    4.5780   16.1540 C.3    39  MET39       0.1570
      3  C        -10.0820    3.5880   15.1780 C.2    39  MET39       0.2261
      4  O         -9.2310    2.7810   15.5690 O.2    39  MET39      -0.2867
      5  CB       -11.8450    3.9190   16.9200 C.3    39  MET39       0.0387
      6  CG       -12.3460    4.7210   18.1070 C.3    39  MET39       0.0595
      7  SD       -11.0310    5.2510   19.2230 S.3    39  MET39      -0.1393
      8  CE       -10.3400    3.6780   19.7270 C.3    39  MET39       0.0692
      9  N         -6.4260    4.9090   14.7520 N.3    42  LEU42      -0.1231
     10  CA        -5.6170    4.6260   15.9330 C.3    42  LEU42       0.1693
     11  C         -5.3890    3.1310   16.1150 C.2    42  LEU42       0.2592
     12  O         -4.3350    2.7250   16.6180 O.2    42  LEU42      -0.2718
     13  CB        -6.2790    5.2220   17.1750 C.3    42  LEU42       0.0284
     14  CG        -6.5780    6.7220   17.1210 C.3    42  LEU42       0.0019
     15  CD1       -7.1660    7.2070   18.4370 C.3    42  LEU42       0.0001
     16  CD2       -5.3280    7.5100   16.7620 C.3    42  LEU42       0.0001
     17  N         -6.3550    2.3020   15.7130 N.am   43  THR43      -0.1953
     18  CA        -6.1740    0.8560   15.8030 C.3    43  THR43       0.1897
     19  C         -5.1180    0.3780   14.8130 C.2    43  THR43       0.2313
     20  O         -4.2480   -0.4300   15.1580 O.2    43  THR43      -0.2863
     21  CB        -7.5040    0.1440   15.5580 C.3    43  THR43       0.1794
     22  OG1       -8.4600    0.5720   16.5380 O.3    43  THR43      -0.2208
     23  CG2       -7.3320   -1.3630   15.6430 C.3    43  THR43       0.0378
     24  N         -2.7490    2.2250   13.6380 N.3    45  LEU45      -0.1231
     25  CA        -1.4830    2.7850   14.1000 C.3    45  LEU45       0.1693
     26  C         -0.9210    1.9840   15.2690 C.2    45  LEU45       0.2591
     27  O          0.2470    1.5760   15.2510 O.2    45  LEU45      -0.2718
     28  CB        -1.6770    4.2490   14.4940 C.3    45  LEU45       0.0284
     29  CG        -0.4640    4.9670   15.0840 C.3    45  LEU45       0.0019
     30  CD1        0.5920    5.2120   14.0180 C.3    45  LEU45       0.0001
     31  CD2       -0.8880    6.2710   15.7420 C.3    45  LEU45       0.0001
     32  N         -1.7400    1.7490   16.2970 N.am   46  ALA46      -0.1980
     33  CA        -1.2690    1.0140   17.4660 C.3    46  ALA46       0.1597
     34  C         -0.9020   -0.4230   17.1200 C.2    46  ALA46       0.2287
     35  O         -0.0090   -1.0020   17.7490 O.2    46  ALA46      -0.2864
     36  CB        -2.3290    1.0400   18.5680 C.3    46  ALA46       0.0319
     37  N          2.4420   -0.2200   15.6450 N.3    49  GLU49      -0.1245
     38  CA         3.3550    0.1540   16.7200 C.3    49  GLU49       0.1567
     39  C          3.7000   -1.0360   17.6050 C.2    49  GLU49       0.2260
     40  O          4.8020   -1.0910   18.1630 O.2    49  GLU49      -0.2867
     41  CB         2.7500    1.2740   17.5640 C.3    49  GLU49       0.0388
     42  CG         3.0530    2.6760   17.0660 C.3    49  GLU49       0.1160
     43  CD         2.6310    3.7420   18.0590 C.2    49  GLU49       0.3649
     44  OE1        1.4330    3.7900   18.4090 O.co2  49  GLU49      -0.2457
     45  OE2        3.5010    4.5210   18.5030 O.co2  49  GLU49      -0.2457
     46  N          1.5700   -3.0450   27.4840 N.3    79  TRP79      -0.1227
     47  CA         1.6560   -2.6050   26.0930 C.3    79  TRP79       0.1737
     48  C          0.9680   -1.2600   25.8840 C.2    79  TRP79       0.2595
     49  O          1.4810   -0.3990   25.1590 O.2    79  TRP79      -0.2718
     50  CB         1.0680   -3.6640   25.1570 C.3    79  TRP79       0.0564
     51  CG        -0.4150   -3.8390   25.2580 C.ar   79  TRP79       0.0003
     52  CD1       -1.0850   -4.7060   26.0690 C.ar   79  TRP79       0.0946
     53  CD2       -1.4140   -3.1360   24.5100 C.ar   79  TRP79       0.0152
     54  NE1       -2.4400   -4.5830   25.8770 N.ar   79  TRP79      -0.2442
     55  CE2       -2.6680   -3.6250   24.9250 C.ar   79  TRP79       0.0810
     56  CE3       -1.3690   -2.1370   23.5330 C.ar   79  TRP79       0.0012
     57  CZ2       -3.8660   -3.1510   24.3960 C.ar   79  TRP79       0.0191
     58  CZ3       -2.5600   -1.6670   23.0100 C.ar   79  TRP79       0.0001
     59  CH2       -3.7910   -2.1740   23.4430 C.ar   79  TRP79       0.0015
     60  N         -0.1910   -1.0550   26.5140 N.am   80  LEU80      -0.1980
     61  CA        -0.8850    0.2180   26.3550 C.3    80  LEU80       0.1596
     62  C         -0.1950    1.3280   27.1350 C.2    80  LEU80       0.2287
     63  O         -0.2010    2.4860   26.6990 O.2    80  LEU80      -0.2864
     64  CB        -2.3440    0.0800   26.7870 C.3    80  LEU80       0.0297
     65  CG        -3.2480    1.2820   26.5120 C.3    80  LEU80       0.0022
     66  CD1       -3.1020    1.7390   25.0680 C.3    80  LEU80       0.0001
     67  CD2       -4.6980    0.9430   26.8220 C.3    80  LEU80       0.0001
     68  N          2.6510    2.4280   24.9180 N.3    83  LEU83      -0.1231
     69  CA         2.1130    3.2240   23.8190 C.3    83  LEU83       0.1693
     70  C          1.7280    4.6220   24.2860 C.2    83  LEU83       0.2591
     71  O          1.9490    5.6070   23.5720 O.2    83  LEU83      -0.2718
     72  CB         0.9030    2.5230   23.2000 C.3    83  LEU83       0.0284
     73  CG         1.1540    1.3770   22.2210 C.3    83  LEU83       0.0019
     74  CD1       -0.1580    0.8710   21.6410 C.3    83  LEU83       0.0001
     75  CD2        2.0950    1.8190   21.1150 C.3    83  LEU83       0.0001
     76  N          1.1540    4.7290   25.4860 N.am   84  MET84      -0.1979
     77  CA         0.6640    6.0200   25.9590 C.3    84  MET84       0.1605
     78  C          1.8080    6.9520   26.3360 C.2    84  MET84       0.2287
     79  O          1.7730    8.1440   26.0110 O.2    84  MET84      -0.2864
     80  CB        -0.2830    5.8220   27.1410 C.3    84  MET84       0.0413
     81  CG        -1.6740    5.3590   26.7430 C.3    84  MET84       0.0598
     82  SD        -2.7660    5.1390   28.1560 S.3    84  MET84      -0.1393
     83  CE        -4.3200    4.8000   27.3340 C.3    84  MET84       0.0692
     84  N          3.2450    8.2360   23.2450 N.3    87  LEU87      -0.1245
     85  CA         2.3440    9.2590   22.7240 C.3    87  LEU87       0.1561
     86  C          2.4760   10.5570   23.5080 C.2    87  LEU87       0.2260
     87  O          2.5270   11.6450   22.9220 O.2    87  LEU87      -0.2867
     88  CB         0.9030    8.7520   22.7680 C.3    87  LEU87       0.0270
     89  CG        -0.1950    9.7990   22.5720 C.3    87  LEU87       0.0019
     90  CD1       -0.1780   10.3400   21.1490 C.3    87  LEU87       0.0001
     91  CD2       -1.5580    9.2190   22.9240 C.3    87  LEU87       0.0001
     92  N          5.8350   12.2000   22.4800 N.3    90  ARG90      -0.1245
     93  CA         5.8440   12.8750   21.1860 C.3    90  ARG90       0.1563
     94  C          5.0570   14.1790   21.2210 C.2    90  ARG90       0.2260
     95  O          5.3770   15.1140   20.4780 O.2    90  ARG90      -0.2867
     96  CB         5.2820   11.9530   20.1030 C.3    90  ARG90       0.0307
     97  CG         6.0540   10.6580   19.9230 C.3    90  ARG90       0.0489
     98  CD         5.5590    9.8850   18.7100 C.3    90  ARG90       0.2205
     99  NE         4.1440    9.5350   18.8050 N.pl3  90  ARG90      -0.0865
    100  CZ         3.6880    8.3950   19.3130 C.cat  90  ARG90       0.5346
    101  NH1        4.5360    7.4880   19.7790 N.pl3  90  ARG90       0.1354
    102  NH2        2.3840    8.1600   19.3560 N.pl3  90  ARG90       0.1354
    103  N         -0.3190   11.5560   17.7520 N.3   100  PHE100     -0.1241
    104  CA        -0.3350   10.1230   17.4800 C.3   100  PHE100      0.1605
    105  C          0.6150    9.7720   16.3450 C.2   100  PHE100      0.2264
    106  O          1.1870    8.6760   16.3260 O.2   100  PHE100     -0.2867
    107  CB        -1.7560    9.6640   17.1490 C.3   100  PHE100      0.0534
    108  CG        -2.7130    9.7690   18.3030 C.ar  100  PHE100     -0.0203
    109  CD1       -3.4160   10.9400   18.5360 C.ar  100  PHE100     -0.0042
    110  CD2       -2.9120    8.6940   19.1540 C.ar  100  PHE100     -0.0042
    111  CE1       -4.2970   11.0380   19.5980 C.ar  100  PHE100     -0.0003
    112  CE2       -3.7920    8.7850   20.2170 C.ar  100  PHE100     -0.0003
    113  CZ        -4.4850    9.9580   20.4390 C.ar  100  PHE100     -0.0000
    114  N        -13.9360    8.8100   25.0910 N.3   117  MET117     -0.1245
    115  CA       -12.4950    8.9190   24.8950 C.3   117  MET117      0.1570
    116  C        -11.9640   10.2990   25.2620 C.2   117  MET117      0.2261
    117  O        -10.7550   10.4470   25.4730 O.2   117  MET117     -0.2867
    118  CB       -12.1380    8.5850   23.4430 C.3   117  MET117      0.0387
    119  CG       -10.6630    8.2910   23.2110 C.3   117  MET117      0.0595
    120  SD       -10.2740    7.9340   21.4880 S.3   117  MET117     -0.1393
    121  CE       -10.7470    9.4750   20.7060 C.3   117  MET117      0.0692
    122  N        -10.0670   10.4020   28.5400 N.3   120  ILE120     -0.1231
    123  CA        -8.7080    9.8780   28.4740 C.3   120  ILE120      0.1692
    124  C         -7.7890   10.8580   27.7570 C.2   120  ILE120      0.2592
    125  O         -6.6010   10.9600   28.0850 O.2   120  ILE120     -0.2718
    126  CB        -8.7080    8.4970   27.7950 C.3   120  ILE120      0.0266
    127  CG1       -9.7250    7.5750   28.4690 C.3   120  ILE120      0.0019
    128  CG2       -7.3210    7.8760   27.8420 C.3   120  ILE120      0.0020
    129  CD1       -9.8170    6.2030   27.8410 C.3   120  ILE120      0.0001
    130  N         -8.3160   11.5920   26.7730 N.am  121  PHE121     -0.1976
    131  CA        -7.5200   12.6110   26.0960 C.3   121  PHE121      0.1639
    132  C         -7.0290   13.6680   27.0770 C.2   121  PHE121      0.2290
    133  O         -5.8710   14.0970   27.0100 O.2   121  PHE121     -0.2864
    134  CB        -8.3400   13.2580   24.9790 C.3   121  PHE121      0.0560
    135  CG        -8.0610   12.6940   23.6160 C.ar  121  PHE121     -0.0200
    136  CD1       -8.0970   11.3270   23.3950 C.ar  121  PHE121     -0.0042
    137  CD2       -7.7750   13.5330   22.5510 C.ar  121  PHE121     -0.0042
    138  CE1       -7.8410   10.8070   22.1390 C.ar  121  PHE121     -0.0003
    139  CE2       -7.5210   13.0190   21.2920 C.ar  121  PHE121     -0.0003
    140  CZ        -7.5550   11.6540   21.0860 C.ar  121  PHE121     -0.0000
    141  N         -4.1190   12.2770   29.1060 N.3   124  LEU124     -0.1245
    142  CA        -2.9070   12.2570   28.2940 C.3   124  LEU124      0.1561
    143  C         -2.3560   13.6630   28.0950 C.2   124  LEU124      0.2260
    144  O         -1.1380   13.8730   28.1430 O.2   124  LEU124     -0.2867
    145  CB        -3.1930   11.5970   26.9440 C.3   124  LEU124      0.0270
    146  CG        -3.5440   10.1090   26.9640 C.3   124  LEU124      0.0019
    147  CD1       -4.1710    9.6910   25.6450 C.3   124  LEU124      0.0001
    148  CD2       -2.3050    9.2790   27.2510 C.3   124  LEU124      0.0001
    149  N         -7.9980    3.3130   29.4440 N.3   214  GLY214     -0.1225
    150  CA        -7.9720    3.0450   28.0180 C.3   214  GLY214      0.1811
    151  C         -8.2350    1.5920   27.6820 C.2   214  GLY214      0.2280
    152  O         -8.8270    1.2920   26.6410 O.2   214  GLY214     -0.2866
    153  N        -11.8630    1.1130   27.6080 N.3   217  HIS217     -0.1226
    154  CA       -12.4690    1.7510   26.4450 C.3   217  HIS217      0.1752
    155  C        -12.3110    0.8880   25.1990 C.2   217  HIS217      0.2595
    156  O        -13.2270    0.8100   24.3720 O.2   217  HIS217     -0.2718
    157  CB       -11.8570    3.1340   26.2250 C.3   217  HIS217      0.0759
    158  CG       -12.3940    3.8460   25.0230 C.ar  217  HIS217      0.0818
    159  ND1      -11.8050    3.7560   23.7800 N.ar  217  HIS217     -0.2268
    160  CD2      -13.4710    4.6530   24.8710 C.ar  217  HIS217      0.1154
    161  CE1      -12.4940    4.4790   22.9150 C.ar  217  HIS217      0.1986
    162  NE2      -13.5090    5.0340   23.5520 N.ar  217  HIS217     -0.2212
    163  N        -11.1560    0.2360   25.0460 N.am  218  LEU218     -0.1980
    164  CA       -10.9640   -0.6670   23.9170 C.3   218  LEU218      0.1596
    165  C        -11.8680   -1.8860   24.0200 C.2   218  LEU218      0.2287
    166  O        -12.3340   -2.3980   22.9960 O.2   218  LEU218     -0.2864
    167  CB        -9.4990   -1.0990   23.8270 C.3   218  LEU218      0.0297
    168  CG        -8.4650    0.0120   23.6180 C.3   218  LEU218      0.0022
    169  CD1       -7.0730   -0.5810   23.4660 C.3   218  LEU218      0.0001
    170  CD2       -8.8280    0.8600   22.4120 C.3   218  LEU218      0.0001
    171  N        -15.5410   -0.7170   22.8460 N.3   221  MET221     -0.1245
    172  CA       -15.7170   -0.5830   21.4050 C.3   221  MET221      0.1570
    173  C        -15.5700   -1.9160   20.6820 C.2   221  MET221      0.2261
    174  O        -16.0510   -2.0480   19.5510 O.2   221  MET221     -0.2867
    175  CB       -14.7250    0.4320   20.8340 C.3   221  MET221      0.0387
    176  CG       -13.3740   -0.1500   20.4530 C.3   221  MET221      0.0595
    177  SD       -12.4950    0.9060   19.2870 S.3   221  MET221     -0.1393
    178  CE       -11.0620   -0.1000   18.9170 C.3   221  MET221      0.0692
    179  N        -10.9730   -4.8020   15.6710 N.3   229  LEU229     -0.1245
    180  CA        -9.6400   -4.8340   16.2540 C.3   229  LEU229      0.1561
    181  C         -8.7720   -5.8470   15.5220 C.2   229  LEU229      0.2260
    182  O         -9.2540   -6.8960   15.0850 O.2   229  LEU229     -0.2867
    183  CB        -9.7090   -5.1830   17.7410 C.3   229  LEU229      0.0270
    184  CG       -10.0940   -4.0470   18.6870 C.3   229  LEU229      0.0019
    185  CD1      -10.4410   -4.5950   20.0600 C.3   229  LEU229      0.0001
    186  CD2       -8.9580   -3.0440   18.7850 C.3   229  LEU229      0.0001
    187  N         -4.0260   -7.0580   18.6280 N.3   233  LEU233     -0.1245
    188  CA        -4.6480   -6.2190   19.6480 C.3   233  LEU233      0.1561
    189  C         -5.7290   -6.9710   20.4100 C.2   233  LEU233      0.2260
    190  O         -5.9340   -6.7200   21.6030 O.2   233  LEU233     -0.2867
    191  CB        -5.2250   -4.9560   19.0090 C.3   233  LEU233      0.0270
    192  CG        -4.2210   -3.8400   18.7180 C.3   233  LEU233      0.0019
    193  CD1       -4.8320   -2.7870   17.8150 C.3   233  LEU233      0.0001
    194  CD2       -3.7500   -3.2150   20.0180 C.3   233  LEU233      0.0001
@<TRIPOS>BOND
     1    24    25    1
     2    30    29    1
     3    25    28    1
     4    25    26    1
     5    28    29    1
     6     9    10    1
     7    19    20    2
     8    19    18    1
     9    29    31    1
    10   182   181    2
    11     3     4    2
    12     3     2    1
    13    27    26    2
    14    26    32   am
    15     1     2    1
    16   181   180    1
    17    21    23    1
    18    21    18    1
    19    21    22    1
    20    37    38    1
    21   179   180    1
    22    17    18    1
    23    17    11   am
    24    10    11    1
    25    10    13    1
    26    11    12    2
    27     2     5    1
    28   180   183    1
    29    32    33    1
    30   106   105    2
    31   105   104    1
    32    38    41    1
    33    38    39    1
    34    16    14    1
    35     5     6    1
    36    42    41    1
    37    42    43    1
    38    34    33    1
    39    34    35    2
    40    14    13    1
    41    14    15    1
    42   107   104    1
    43   107   108    1
    44    33    36    1
    45   104   103    1
    46    39    40    2
    47   183   184    1
    48   193   192    1
    49    43    44   ar
    50    43    45   ar
    51     6     7    1
    52   108   109   ar
    53   108   110   ar
    54   109   111   ar
    55   187   188    1
    56   184   186    1
    57   184   185    1
    58    98    99    1
    59    98    97    1
    60   192   191    1
    61   192   194    1
    62    99   100    2
    63   178   177    1
    64   191   188    1
    65   110   112   ar
    66     7     8    1
    67   177   176    1
    68   100   102    1
    69   100   101    1
    70   174   173    2
    71   111   113   ar
    72   188   189    1
    73    97    96    1
    74    96    93    1
    75   112   113   ar
    76   189   190    2
    77   176   175    1
    78    95    94    2
    79   173   172    1
    80   121   120    1
    81   175   172    1
    82   140   139   ar
    83   140   138   ar
    84    75    73    1
    85    90    89    1
    86    93    94    1
    87    93    92    1
    88   139   137   ar
    89   172   171    1
    90   120   119    1
    91    74    73    1
    92   138   136   ar
    93    73    72    1
    94   170   168    1
    95   137   135   ar
    96    89    88    1
    97    89    91    1
    98    85    88    1
    99    85    84    1
   100    85    86    1
   101   161   162   ar
   102   161   159   ar
   103    87    86    2
   104   166   165    2
   105    58    59   ar
   106    58    56   ar
   107    72    69    1
   108   119   118    1
   109   136   135   ar
   110    59    57   ar
   111   118   115    1
   112   169   168    1
   113    56    53   ar
   114   162   160   ar
   115    71    70    2
   116   135   134    1
   117   168   167    1
   118   159   158   ar
   119    69    70    1
   120    69    68    1
   121   167   164    1
   122   164   165    1
   123   164   163    1
   124    70    76   am
   125   156   155    2
   126    57    55   ar
   127    53    55   ar
   128    53    51   ar
   129   160   158   ar
   130   115   114    1
   131   115   116    1
   132    55    54   ar
   133   134   131    1
   134   158   157    1
   135   163   155   am
   136    66    65    1
   137    50    51    1
   138    50    47    1
   139    49    48    2
   140   155   154    1
   141    51    52   ar
   142   116   117    2
   143    76    77    1
   144   147   146    1
   145    54    52   ar
   146    48    47    1
   147    48    60   am
   148    77    78    1
   149    77    80    1
   150    79    78    2
   151    47    46    1
   152   131   130    1
   153   131   132    1
   154   157   154    1
   155    61    60    1
   156    61    64    1
   157    61    62    1
   158   154   153    1
   159    65    64    1
   160    65    67    1
   161   152   151    2
   162    63    62    2
   163    81    80    1
   164    81    82    1
   165   130   124   am
   166   145   146    1
   167   145   142    1
   168   146   148    1
   169   133   132    2
   170    83    82    1
   171   151   150    1
   172   124   125    2
   173   124   123    1
   174   126   128    1
   175   126   127    1
   176   126   123    1
   177   129   127    1
   178   150   149    1
   179   143   144    2
   180   143   142    1
   181   142   141    1
   182   123   122    1
