@<TRIPOS>MOLECULE
tmp/5tmwC01.pdb
 234 219 0 0 0
SMALL
GASTEIGER

@<TRIPOS>ATOM
      1  N         22.1830   12.2750   42.2840 N.3    32  GLU32      -0.1245
      2  CA        21.8510   11.3740   41.1860 C.3    32  GLU32       0.1567
      3  C         21.5170    9.9800   41.7000 C.2    32  GLU32       0.2260
      4  O         20.5520    9.3560   41.2440 O.2    32  GLU32      -0.2867
      5  CB        23.0040   11.3080   40.1860 C.3    32  GLU32       0.0388
      6  CG        22.8670   10.1790   39.1820 C.3    32  GLU32       0.1160
      7  CD        24.0020   10.1420   38.1840 C.2    32  GLU32       0.3649
      8  OE1       24.9380   10.9600   38.3130 O.co2  32  GLU32      -0.2457
      9  OE2       23.9550    9.2950   37.2670 O.co2  32  GLU32      -0.2457
     10  N         17.7940    8.1280   41.4690 N.3    36  MET36      -0.1245
     11  CA        17.7830    6.7790   40.9150 C.3    36  MET36       0.1570
     12  C         17.3330    5.7590   41.9520 C.2    36  MET36       0.2261
     13  O         16.7600    4.7240   41.5950 O.2    36  MET36      -0.2867
     14  CB        19.1630    6.4050   40.3710 C.3    36  MET36       0.0387
     15  CG        19.5990    7.1770   39.1340 C.3    36  MET36       0.0595
     16  SD        18.3490    7.2970   37.8320 S.3    36  MET36      -0.1393
     17  CE        17.9150    5.5820   37.5540 C.3    36  MET36       0.0692
     18  N         13.4080    6.1690   42.0380 N.3    39  LEU39      -0.1231
     19  CA        12.7950    5.6440   40.8210 C.3    39  LEU39       0.1693
     20  C         12.8570    4.1220   40.7770 C.2    39  LEU39       0.2592
     21  O         11.8940    3.4670   40.3590 O.2    39  LEU39      -0.2718
     22  CB        13.4770    6.2460   39.5920 C.3    39  LEU39       0.0284
     23  CG        12.8720    7.5140   38.9760 C.3    39  LEU39       0.0019
     24  CD1       12.6260    8.5920   40.0180 C.3    39  LEU39       0.0001
     25  CD2       13.7710    8.0450   37.8650 C.3    39  LEU39       0.0001
     26  N         13.9810    3.5420   41.2040 N.am   40  THR40      -0.1953
     27  CA        14.1080    2.0880   41.2310 C.3    40  THR40       0.1897
     28  C         13.1490    1.4700   42.2430 C.2    40  THR40       0.2313
     29  O         12.4620    0.4870   41.9420 O.2    40  THR40      -0.2863
     30  CB        15.5510    1.6920   41.5510 C.3    40  THR40       0.1794
     31  OG1       16.4240    2.1730   40.5220 O.3    40  THR40      -0.2208
     32  CG2       15.6800    0.1820   41.6570 C.3    40  THR40       0.0378
     33  N         10.3820    2.8130   43.3770 N.3    42  LEU42      -0.1231
     34  CA         9.0220    3.0320   42.8980 C.3    42  LEU42       0.1693
     35  C          8.6580    2.0400   41.8010 C.2    42  LEU42       0.2591
     36  O          7.6250    1.3650   41.8760 O.2    42  LEU42      -0.2718
     37  CB         8.8750    4.4670   42.3940 C.3    42  LEU42       0.0284
     38  CG         7.5400    4.8360   41.7510 C.3    42  LEU42       0.0019
     39  CD1        6.4250    4.8400   42.7890 C.3    42  LEU42       0.0001
     40  CD2        7.6560    6.1860   41.0660 C.3    42  LEU42       0.0001
     41  N          9.5000    1.9430   40.7670 N.am   43  ALA43      -0.1980
     42  CA         9.2490    0.9990   39.6830 C.3    43  ALA43       0.1597
     43  C          9.2190   -0.4360   40.1890 C.2    43  ALA43       0.2287
     44  O          8.4990   -1.2760   39.6360 O.2    43  ALA43      -0.2864
     45  CB        10.3160    1.1470   38.5980 C.3    43  ALA43       0.0319
     46  N          5.7720   -1.0600   41.5680 N.3    46  GLU46      -0.1245
     47  CA         4.7910   -1.0760   40.4890 C.3    46  GLU46       0.1567
     48  C          4.8040   -2.3990   39.7320 C.2    46  GLU46       0.2260
     49  O          3.7600   -2.8320   39.2300 O.2    46  GLU46      -0.2867
     50  CB         5.0470    0.0780   39.5240 C.3    46  GLU46       0.0388
     51  CG         4.7730    1.4510   40.0980 C.3    46  GLU46       0.1160
     52  CD         4.9730    2.5400   39.0670 C.2    46  GLU46       0.3649
     53  OE1        6.1380    2.9180   38.8170 O.co2  46  GLU46      -0.2457
     54  OE2        3.9620    3.0010   38.4910 O.co2  46  GLU46      -0.2457
     55  N          7.2790   -4.5440   30.1090 N.3    76  TRP76      -0.1227
     56  CA         7.1310   -3.9810   31.4530 C.3    76  TRP76       0.1737
     57  C          7.4930   -2.5000   31.4990 C.2    76  TRP76       0.2595
     58  O          6.8170   -1.7140   32.1720 O.2    76  TRP76      -0.2718
     59  CB         7.9680   -4.7710   32.4620 C.3    76  TRP76       0.0564
     60  CG         9.4530   -4.5930   32.3310 C.ar   76  TRP76       0.0003
     61  CD1       10.3030   -5.3470   31.5810 C.ar   76  TRP76       0.0946
     62  CD2       10.2630   -3.6090   32.9890 C.ar   76  TRP76       0.0152
     63  NE1       11.5880   -4.8930   31.7220 N.ar   76  TRP76      -0.2442
     64  CE2       11.5930   -3.8260   32.5820 C.ar   76  TRP76       0.0810
     65  CE3        9.9920   -2.5640   33.8790 C.ar   76  TRP76       0.0012
     66  CZ2       12.6530   -3.0380   33.0340 C.ar   76  TRP76       0.0191
     67  CZ3       11.0460   -1.7820   34.3280 C.ar   76  TRP76       0.0001
     68  CH2       12.3600   -2.0230   33.9030 C.ar   76  TRP76       0.0015
     69  N          8.5450   -2.0920   30.7840 N.am   77  LEU77      -0.1980
     70  CA         8.9270   -0.6840   30.8010 C.3    77  LEU77       0.1596
     71  C          7.9850    0.1690   29.9640 C.2    77  LEU77       0.2287
     72  O          7.7180    1.3210   30.3220 O.2    77  LEU77      -0.2864
     73  CB        10.3670   -0.5130   30.3140 C.3    77  LEU77       0.0297
     74  CG        10.9490    0.9020   30.3950 C.3    77  LEU77       0.0022
     75  CD1       10.8100    1.4630   31.8040 C.3    77  LEU77       0.0001
     76  CD2       12.4090    0.9270   29.9510 C.3    77  LEU77       0.0001
     77  N          5.0650    0.7330   32.2800 N.3    80  LEU80      -0.1231
     78  CA         5.3870    1.7600   33.2670 C.3    80  LEU80       0.1693
     79  C          5.3930    3.1470   32.6360 C.2    80  LEU80       0.2591
     80  O          4.9600    4.1230   33.2610 O.2    80  LEU80      -0.2718
     81  CB         6.7420    1.4700   33.9150 C.3    80  LEU80       0.0284
     82  CG         6.8530    0.3010   34.8940 C.3    80  LEU80       0.0019
     83  CD1        8.2780    0.1760   35.4040 C.3    80  LEU80       0.0001
     84  CD2        5.8920    0.4890   36.0500 C.3    80  LEU80       0.0001
     85  N          5.8750    3.2520   31.3970 N.am   81  MET81      -0.1979
     86  CA         5.9880    4.5550   30.7520 C.3    81  MET81       0.1605
     87  C          4.6280    5.1080   30.3460 C.2    81  MET81       0.2287
     88  O          4.3580    6.2990   30.5400 O.2    81  MET81      -0.2864
     89  CB         6.9090    4.4580   29.5390 C.3    81  MET81       0.0413
     90  CG         8.3700    4.4960   29.9090 C.3    81  MET81       0.0598
     91  SD         9.4390    4.2510   28.4940 S.3    81  MET81      -0.1393
     92  CE        11.0250    4.7260   29.1820 C.3    81  MET81       0.0692
     93  N          3.0510    6.4070   33.4320 N.3    84  LEU84      -0.1245
     94  CA         3.5730    7.7120   33.8270 C.3    84  LEU84       0.1561
     95  C          2.9960    8.8170   32.9530 C.2    84  LEU84       0.2260
     96  O          2.5690    9.8660   33.4510 O.2    84  LEU84      -0.2867
     97  CB         5.1000    7.7090   33.7430 C.3    84  LEU84       0.0270
     98  CG         5.7550    9.0880   33.8010 C.3    84  LEU84       0.0019
     99  CD1        5.6360    9.6790   35.1990 C.3    84  LEU84       0.0001
    100  CD2        7.2100    9.0160   33.3560 C.3    84  LEU84       0.0001
    101  N         -0.8290    9.5920   33.8770 N.3    87  ARG87      -0.1245
    102  CA        -1.0690   10.3830   35.0780 C.3    87  ARG87       0.1563
    103  C         -0.3770   11.7390   35.0390 C.2    87  ARG87       0.2260
    104  O         -0.6500   12.5750   35.9050 O.2    87  ARG87      -0.2867
    105  CB        -0.6380    9.6070   36.3270 C.3    87  ARG87       0.0307
    106  CG         0.8220    9.1800   36.3590 C.3    87  ARG87       0.0489
    107  CD         1.1220    8.4120   37.6420 C.3    87  ARG87       0.2205
    108  NE         2.5070    7.9550   37.7100 N.pl3  87  ARG87      -0.0865
    109  CZ         2.9070    6.7300   37.3870 C.cat  87  ARG87       0.5346
    110  NH1        2.0280    5.8280   36.9710 N.pl3  87  ARG87       0.1354
    111  NH2        4.1890    6.4060   37.4780 N.pl3  87  ARG87       0.1354
    112  N          5.7260   10.9840   38.4320 N.3    97  PHE97      -0.1241
    113  CA         6.1290    9.6380   38.8320 C.3    97  PHE97       0.1605
    114  C          5.3150    9.1500   40.0220 C.2    97  PHE97       0.2264
    115  O          5.0450    7.9500   40.1460 O.2    97  PHE97      -0.2867
    116  CB         7.6230    9.6060   39.1580 C.3    97  PHE97       0.0534
    117  CG         8.5060    9.7260   37.9520 C.ar   97  PHE97      -0.0203
    118  CD1        8.8930   10.9690   37.4800 C.ar   97  PHE97      -0.0042
    119  CD2        8.9420    8.5930   37.2830 C.ar   97  PHE97      -0.0042
    120  CE1        9.7040   11.0800   36.3670 C.ar   97  PHE97      -0.0003
    121  CE2        9.7530    8.7000   36.1720 C.ar   97  PHE97      -0.0003
    122  CZ        10.1330    9.9440   35.7130 C.ar   97  PHE97      -0.0000
    123  N         21.0430   13.2560   35.6520 N.3   111  VAL111     -0.1231
    124  CA        21.2620   11.8440   35.3650 C.3   111  VAL111      0.1692
    125  C         21.5410   11.7230   33.8690 C.2   111  VAL111      0.2591
    126  O         20.7190   12.1270   33.0470 O.2   111  VAL111     -0.2718
    127  CB        20.0640   10.9740   35.7920 C.3   111  VAL111      0.0266
    128  CG1       20.3340    9.5230   35.4830 C.3   111  VAL111      0.0020
    129  CG2       19.7800   11.1370   37.2730 C.3   111  VAL111      0.0020
    130  N         22.7070   11.1750   33.5270 N.am  112  GLU112     -0.1979
    131  CA        23.1640   11.1600   32.1420 C.3   112  GLU112      0.1602
    132  C         22.1840   10.4070   31.2500 C.2   112  GLU112      0.2287
    133  O         21.7690    9.2870   31.5640 O.2   112  GLU112     -0.2864
    134  CB        24.5550   10.5280   32.0580 C.3   112  GLU112      0.0415
    135  CG        25.3390   10.8480   30.7860 C.3   112  GLU112      0.1163
    136  CD        24.9050   10.0200   29.5880 C.2   112  GLU112      0.3649
    137  OE1       24.5450   10.6150   28.5490 O.co2 112  GLU112     -0.2457
    138  OE2       24.9210    8.7730   29.6850 O.co2 112  GLU112     -0.2457
    139  N         19.1020   10.9210   30.7400 N.3   114  MET114     -0.1245
    140  CA        17.7260   10.8430   31.2160 C.3   114  MET114      0.1570
    141  C         16.8710   12.0120   30.7470 C.2   114  MET114      0.2261
    142  O         15.6630   11.8420   30.5500 O.2   114  MET114     -0.2867
    143  CB        17.6950   10.7630   32.7480 C.3   114  MET114      0.0387
    144  CG        16.3420   10.3280   33.3090 C.3   114  MET114      0.0595
    145  SD        16.3180    9.9750   35.0850 S.3   114  MET114     -0.1393
    146  CE        16.4890   11.6210   35.7510 C.3   114  MET114      0.0692
    147  N         15.1120   11.2450   27.4020 N.3   117  ILE117     -0.1231
    148  CA        13.9270   10.4060   27.5360 C.3   117  ILE117      0.1692
    149  C         12.8090   11.1560   28.2470 C.2   117  ILE117      0.2592
    150  O         11.6270   10.9500   27.9450 O.2   117  ILE117     -0.2718
    151  CB        14.3030    9.0970   28.2530 C.3   117  ILE117      0.0266
    152  CG1       15.3420    8.3440   27.4210 C.3   117  ILE117      0.0019
    153  CG2       13.0750    8.2310   28.4890 C.3   117  ILE117      0.0020
    154  CD1       15.9210    7.1510   28.1120 C.3   117  ILE117      0.0001
    155  N         13.1550   12.0480   29.1810 N.am  118  PHE118     -0.1976
    156  CA        12.1420   12.8930   29.8070 C.3   118  PHE118      0.1639
    157  C         11.4150   13.7410   28.7710 C.2   118  PHE118      0.2290
    158  O         10.1890   13.8840   28.8270 O.2   118  PHE118     -0.2864
    159  CB        12.7770   13.7890   30.8720 C.3   118  PHE118      0.0560
    160  CG        12.8530   13.1610   32.2370 C.ar  118  PHE118     -0.0200
    161  CD1       12.8460   11.7850   32.3880 C.ar  118  PHE118     -0.0042
    162  CD2       12.9170   13.9530   33.3730 C.ar  118  PHE118     -0.0042
    163  CE1       12.9120   11.2060   33.6470 C.ar  118  PHE118     -0.0003
    164  CE2       12.9820   13.3820   34.6360 C.ar  118  PHE118     -0.0003
    165  CZ        12.9790   12.0070   34.7720 C.ar  118  PHE118     -0.0000
    166  N          8.8940   11.5660   26.8930 N.3   121  LEU121     -0.1245
    167  CA         7.7290   11.2560   27.7130 C.3   121  LEU121      0.1561
    168  C          6.8000   12.4570   27.8180 C.2   121  LEU121      0.2260
    169  O          5.5760   12.3150   27.7150 O.2   121  LEU121     -0.2867
    170  CB         8.1750   10.7940   29.1000 C.3   121  LEU121      0.0270
    171  CG         8.9180    9.4570   29.1740 C.3   121  LEU121      0.0019
    172  CD1        9.6340    9.3080   30.5060 C.3   121  LEU121      0.0001
    173  CD2        7.9540    8.3050   28.9670 C.3   121  LEU121      0.0001
    174  N         15.3150    3.6830   26.9730 N.3   212  GLY212     -0.1225
    175  CA        15.4590    3.6140   28.4130 C.3   212  GLY212      0.1811
    176  C         16.0680    2.3120   28.8840 C.2   212  GLY212      0.2280
    177  O         16.8520    2.2950   29.8370 O.2   212  GLY212     -0.2866
    178  N         19.9150    2.4210   28.9050 N.3   215  HIS215     -0.1226
    179  CA        20.5500    3.0590   30.0540 C.3   215  HIS215      0.1752
    180  C         20.4060    2.2120   31.3120 C.2   215  HIS215      0.2595
    181  O         21.3120    2.1800   32.1520 O.2   215  HIS215     -0.2718
    182  CB        19.9540    4.4460   30.2860 C.3   215  HIS215      0.0759
    183  CG        20.3940    5.4740   29.2910 C.ar  215  HIS215      0.0818
    184  ND1       19.5430    6.0110   28.3490 N.ar  215  HIS215     -0.2268
    185  CD2       21.5940    6.0730   29.1000 C.ar  215  HIS215      0.1154
    186  CE1       20.2010    6.8920   27.6160 C.ar  215  HIS215      0.1986
    187  NE2       21.4470    6.9480   28.0510 N.ar  215  HIS215     -0.2212
    188  N         19.2690    1.5290   31.4630 N.am  216  LEU216     -0.1980
    189  CA        19.0370    0.7210   32.6550 C.3   216  LEU216      0.1596
    190  C         19.9870   -0.4660   32.7320 C.2   216  LEU216      0.2287
    191  O         20.3390   -0.9010   33.8340 O.2   216  LEU216     -0.2864
    192  CB        17.5850    0.2440   32.6930 C.3   216  LEU216      0.0297
    193  CG        16.5210    1.3050   32.9840 C.3   216  LEU216      0.0022
    194  CD1       15.1240    0.7160   32.8620 C.3   216  LEU216      0.0001
    195  CD2       16.7340    1.9060   34.3660 C.3   216  LEU216      0.0001
    196  N         23.1180   -0.4190   31.4630 N.3   218  SER218     -0.1202
    197  CA        24.4200    0.1360   31.8170 C.3   218  SER218      0.2020
    198  C         24.4750    0.5180   33.2890 C.2   218  SER218      0.2618
    199  O         25.5590    0.5380   33.8850 O.2   218  SER218     -0.2717
    200  CB        24.7380    1.3460   30.9370 C.3   218  SER218      0.2103
    201  OG        23.7250    2.3310   31.0430 O.3   218  SER218     -0.2182
    202  N         23.3210    0.8270   33.8860 N.am  219  MET219     -0.1979
    203  CA        23.2590    1.0900   35.3190 C.3   219  MET219      0.1605
    204  C         23.5320   -0.1700   36.1310 C.2   219  MET219      0.2287
    205  O         24.1180   -0.0920   37.2170 O.2   219  MET219     -0.2864
    206  CB        21.8930    1.6840   35.6720 C.3   219  MET219      0.0413
    207  CG        21.4440    1.4710   37.1070 C.3   219  MET219      0.0598
    208  SD        20.1790    2.6610   37.5780 S.3   219  MET219     -0.1393
    209  CE        21.1450    4.1650   37.5000 C.3   219  MET219      0.0692
    210  N         27.3610   -0.6890   36.1380 N.3   222  LYS222     -0.1245
    211  CA        28.0450    0.2190   37.0510 C.3   222  LYS222      0.1561
    212  C         27.9600   -0.2680   38.4920 C.2   222  LYS222      0.2260
    213  O         28.8520    0.0240   39.2970 O.2   222  LYS222     -0.2867
    214  CB        27.4590    1.6260   36.9300 C.3   222  LYS222      0.0271
    215  CG        27.9620    2.3240   35.6640 C.3   222  LYS222      0.0035
    216  CD        27.4970    3.7700   35.5950 C.3   222  LYS222      0.0206
    217  CE        27.5360    4.2790   34.1630 C.3   222  LYS222      0.1093
    218  NZ        26.3040    3.9840   33.3730 N.3   222  LYS222     -0.1314
    219  N         19.6560   -2.6240   42.2920 N.3   227  LEU227     -0.1245
    220  CA        18.3420   -2.9810   41.7840 C.3   227  LEU227      0.1561
    221  C         17.9340   -4.3290   42.3590 C.2   227  LEU227      0.2260
    222  O         18.7620   -5.2370   42.4820 O.2   227  LEU227     -0.2867
    223  CB        18.3290   -3.0310   40.2520 C.3   227  LEU227      0.0270
    224  CG        18.6240   -1.7410   39.4720 C.3   227  LEU227      0.0019
    225  CD1       20.1200   -1.5030   39.3130 C.3   227  LEU227      0.0001
    226  CD2       17.9430   -1.7570   38.1100 C.3   227  LEU227      0.0001
    227  N         13.9740   -6.7490   39.3120 N.3   231  LEU231     -0.1245
    228  CA        14.3890   -5.8130   38.2710 C.3   231  LEU231      0.1561
    229  C         15.5930   -6.3330   37.4940 C.2   231  LEU231      0.2260
    230  O         15.6670   -6.1640   36.2720 O.2   231  LEU231     -0.2867
    231  CB        14.6960   -4.4470   38.8810 C.3   231  LEU231      0.0270
    232  CG        13.5290   -3.4610   38.9070 C.3   231  LEU231      0.0019
    233  CD1       13.9370   -2.1760   39.5950 C.3   231  LEU231      0.0001
    234  CD2       13.0530   -3.1800   37.4930 C.3   231  LEU231      0.0001
@<TRIPOS>BOND
     1   166   167    1
     2   174   175    1
     3   147   148    1
     4   152   154    1
     5   152   151    1
     6   148   149    1
     7   148   151    1
     8   186   187   ar
     9   186   184   ar
    10   167   168    1
    11   167   170    1
    12   169   168    2
    13   150   149    2
    14   187   185   ar
    15   149   155   am
    16   151   153    1
    17   184   183   ar
    18   175   176    1
    19    91    92    1
    20    91    90    1
    21   137   136   ar
    22   157   158    2
    23   157   156    1
    24   176   177    2
    25   178   179    1
    26   173   171    1
    27   170   171    1
    28   185   183   ar
    29   171   172    1
    30   155   156    1
    31   183   182    1
    32    89    90    1
    33    89    86    1
    34   136   138   ar
    35   136   135    1
    36   156   159    1
    37    76    74    1
    38    71    72    2
    39    71    70    1
    40   179   182    1
    41   179   180    1
    42    55    56    1
    43    73    74    1
    44    73    70    1
    45    87    88    2
    46    87    86    1
    47    74    75    1
    48   142   141    2
    49   139   140    1
    50   141   140    1
    51    86    85    1
    52    69    70    1
    53    69    57   am
    54   135   134    1
    55   159   160    1
    56   200   201    1
    57   200   197    1
    58   140   143    1
    59   132   133    2
    60   132   131    1
    61   180   188   am
    62   180   181    2
    63    85    79   am
    64    56    57    1
    65    56    59    1
    66   188   189    1
    67   196   197    1
    68    57    58    2
    69    61    63   ar
    70    61    60   ar
    71    63    64   ar
    72   197   198    1
    73   134   131    1
    74   131   130    1
    75   160   161   ar
    76   160   162   ar
    77    77    78    1
    78    60    59    1
    79    60    62   ar
    80   161   163   ar
    81    64    62   ar
    82    64    66   ar
    83    79    80    2
    84    79    78    1
    85   189   192    1
    86   189   190    1
    87   192   193    1
    88   190   191    2
    89   143   144    1
    90   194   193    1
    91    95    96    2
    92    95    94    1
    93   193   195    1
    94    62    65   ar
    95    66    68   ar
    96   126   125    2
    97    78    81    1
    98   198   199    2
    99   198   202   am
   100   144   145    1
   101   100    98    1
   102   218   217    1
   103   162   164   ar
   104    93    94    1
   105   130   125   am
   106   163   165   ar
   107    97    98    1
   108    97    94    1
   109    98    99    1
   110   125   124    1
   111   101   102    1
   112    65    67   ar
   113   202   203    1
   114    68    67   ar
   115    81    82    1
   116   217   216    1
   117   164   165   ar
   118    82    83    1
   119    82    84    1
   120   103   102    1
   121   103   104    2
   122   102   105    1
   123   145   146    1
   124   203   206    1
   125   203   204    1
   126   124   123    1
   127   124   127    1
   128   128   127    1
   129   216   215    1
   130   215   214    1
   131   206   207    1
   132   122   121   ar
   133   122   120   ar
   134   127   129    1
   135   204   205    2
   136   210   211    1
   137   121   119   ar
   138   230   229    2
   139   105   106    1
   140   106   107    1
   141   120   118   ar
   142   214   211    1
   143   110   109    1
   144   211   212    1
   145   207   208    1
   146     9     7   ar
   147   119   117   ar
   148   109   111    1
   149   109   108    2
   150   118   117   ar
   151   234   232    1
   152   229   228    1
   153   209   208    1
   154    17    16    1
   155   107   108    1
   156    16    15    1
   157    25    23    1
   158   117   116    1
   159   226   224    1
   160     7     8   ar
   161     7     6    1
   162   228   231    1
   163   228   227    1
   164   112   113    1
   165    54    52   ar
   166   212   213    2
   167    45    42    1
   168    53    52   ar
   169   113   116    1
   170   113   114    1
   171   231   232    1
   172   232   233    1
   173    23    22    1
   174    23    24    1
   175    52    51    1
   176    15    14    1
   177     6     5    1
   178    49    48    2
   179   225   224    1
   180   224   223    1
   181    50    51    1
   182    50    47    1
   183    22    19    1
   184    44    43    2
   185    42    43    1
   186    42    41    1
   187    48    47    1
   188   114   115    2
   189     5     2    1
   190   223   220    1
   191    21    20    2
   192    14    11    1
   193    47    46    1
   194    31    30    1
   195    41    35   am
   196    20    19    1
   197    20    26   am
   198    19    18    1
   199    11    10    1
   200    11    12    1
   201    40    38    1
   202     2     3    1
   203     2     1    1
   204    26    27    1
   205    27    30    1
   206    27    28    1
   207     4     3    2
   208    30    32    1
   209    13    12    2
   210    38    37    1
   211    38    39    1
   212   220   219    1
   213   220   221    1
   214    35    36    2
   215    35    34    1
   216    29    28    2
   217   221   222    2
   218    37    34    1
   219    34    33    1
