@<TRIPOS>MOLECULE
tmp/5tn3A01.pdb
 175 163 0 0 0
SMALL
GASTEIGER

@<TRIPOS>ATOM
      1  N         25.5170   -9.1750    3.0640 N.3    41  MET41      -0.1245
      2  CA        25.5710   -7.8360    3.6390 C.3    41  MET41       0.1570
      3  C         26.3360   -6.8720    2.7440 C.2    41  MET41       0.2261
      4  O         26.0100   -5.6810    2.6970 O.2    41  MET41      -0.2867
      5  CB        26.1950   -7.8810    5.0340 C.3    41  MET41       0.0387
      6  CG        25.3760   -8.6640    6.0500 C.3    41  MET41       0.0595
      7  SD        23.6040   -8.3150    5.9700 S.3    41  MET41      -0.1393
      8  CE        23.5560   -6.5690    6.3720 C.3    41  MET41       0.0692
      9  N         23.8280   -5.8080    0.1080 N.3    44  LEU44      -0.1231
     10  CA        22.7530   -4.9830    0.6450 C.3    44  LEU44       0.1693
     11  C         23.2480   -3.5910    1.0160 C.2    44  LEU44       0.2592
     12  O         22.5780   -2.5940    0.7250 O.2    44  LEU44      -0.2718
     13  CB        22.1220   -5.6700    1.8540 C.3    44  LEU44       0.0284
     14  CG        20.9000   -6.5500    1.5970 C.3    44  LEU44       0.0019
     15  CD1       21.2000   -7.6360    0.5840 C.3    44  LEU44       0.0001
     16  CD2       20.4120   -7.1550    2.9050 C.3    44  LEU44       0.0001
     17  N         24.4100   -3.4940    1.6660 N.am   45  THR45      -0.1953
     18  CA        24.9160   -2.1750    2.0350 C.3    45  THR45       0.1897
     19  C         25.3970   -1.4000    0.8160 C.2    45  THR45       0.2313
     20  O         25.3550   -0.1660    0.8140 O.2    45  THR45      -0.2863
     21  CB        26.0400   -2.2900    3.0670 C.3    45  THR45       0.1794
     22  OG1       27.1140   -3.0760    2.5350 O.3    45  THR45      -0.2208
     23  CG2       25.5200   -2.9330    4.3410 C.3    45  THR45       0.0378
     24  N         23.8440   -1.5970   -2.1070 N.3    47  LEU47      -0.1231
     25  CA        22.5950   -1.1070   -2.6800 C.3    47  LEU47       0.1693
     26  C         22.0170    0.0320   -1.8500 C.2    47  LEU47       0.2591
     27  O         21.5020    1.0110   -2.4020 O.2    47  LEU47      -0.2718
     28  CB        21.5910   -2.2550   -2.7970 C.3    47  LEU47       0.0284
     29  CG        20.2250   -1.9300   -3.4010 C.3    47  LEU47       0.0019
     30  CD1       20.3760   -1.4160   -4.8200 C.3    47  LEU47       0.0001
     31  CD2       19.3350   -3.1560   -3.3700 C.3    47  LEU47       0.0001
     32  N         22.0960   -0.0800   -0.5210 N.am   48  ALA48      -0.1980
     33  CA        21.5730    0.9690    0.3480 C.3    48  ALA48       0.1597
     34  C         22.3020    2.2860    0.1400 C.2    48  ALA48       0.2287
     35  O         21.6820    3.3540    0.2040 O.2    48  ALA48      -0.2864
     36  CB        21.6780    0.5430    1.8120 C.3    48  ALA48       0.0319
     37  N         20.9810    3.5960   -3.3110 N.3    51  GLU51      -0.1245
     38  CA        19.5970    4.0460   -3.1970 C.3    51  GLU51       0.1567
     39  C         19.4820    5.3030   -2.3480 C.2    51  GLU51       0.2260
     40  O         18.5520    6.0960   -2.5360 O.2    51  GLU51      -0.2867
     41  CB        18.7410    2.9390   -2.6020 C.3    51  GLU51       0.0388
     42  CG        17.6300    2.4600   -3.4910 C.3    51  GLU51       0.1160
     43  CD        16.8040    1.4120   -2.7980 C.2    51  GLU51       0.3649
     44  OE1       17.2930    0.8760   -1.7830 O.co2  51  GLU51      -0.2457
     45  OE2       15.6750    1.1300   -3.2520 O.co2  51  GLU51      -0.2457
     46  N         15.9590    8.1520    7.1620 N.3    81  TRP81      -0.1227
     47  CA        16.4920    7.5130    5.9580 C.3    81  TRP81       0.1737
     48  C         16.2850    6.0020    5.9760 C.2    81  TRP81       0.2595
     49  O         15.9540    5.4060    4.9440 O.2    81  TRP81      -0.2718
     50  CB        17.9750    7.8460    5.7800 C.3    81  TRP81       0.0564
     51  CG        18.8710    7.2400    6.8130 C.ar   81  TRP81       0.0003
     52  CD1       19.2360    7.7920    8.0040 C.ar   81  TRP81       0.0946
     53  CD2       19.5220    5.9640    6.7450 C.ar   81  TRP81       0.0152
     54  NE1       20.0730    6.9400    8.6840 N.ar   81  TRP81      -0.2442
     55  CE2       20.2630    5.8100    7.9320 C.ar   81  TRP81       0.0810
     56  CE3       19.5490    4.9370    5.7960 C.ar   81  TRP81       0.0012
     57  CZ2       21.0220    4.6720    8.1970 C.ar   81  TRP81       0.0191
     58  CZ3       20.3030    3.8060    6.0620 C.ar   81  TRP81       0.0001
     59  CH2       21.0270    3.6830    7.2540 C.ar   81  TRP81       0.0015
     60  N         16.4710    5.3580    7.1290 N.am   82  LEU82      -0.1980
     61  CA        16.2930    3.9090    7.1650 C.3    82  LEU82       0.1596
     62  C         14.8200    3.5240    7.0680 C.2    82  LEU82       0.2287
     63  O         14.4860    2.5180    6.4330 O.2    82  LEU82      -0.2864
     64  CB        16.9280    3.3210    8.4260 C.3    82  LEU82       0.0297
     65  CG        16.9230    1.7910    8.5270 C.3    82  LEU82       0.0022
     66  CD1       17.5450    1.1570    7.2890 C.3    82  LEU82       0.0001
     67  CD2       17.6450    1.3290    9.7860 C.3    82  LEU82       0.0001
     68  N         13.9660    3.7640    3.3760 N.3    85  LEU85      -0.1231
     69  CA        14.4790    2.5960    2.6660 C.3    85  LEU85       0.1693
     70  C         13.6360    1.3620    2.9590 C.2    85  LEU85       0.2591
     71  O         13.3900    0.5410    2.0670 O.2    85  LEU85      -0.2718
     72  CB        15.9380    2.3420    3.0410 C.3    85  LEU85       0.0284
     73  CG        16.9930    3.2230    2.3750 C.3    85  LEU85       0.0019
     74  CD1       18.3770    2.8180    2.8370 C.3    85  LEU85       0.0001
     75  CD2       16.8830    3.1360    0.8650 C.3    85  LEU85       0.0001
     76  N         13.1680    1.2260    4.2000 N.am   86  MET86      -0.1979
     77  CA        12.4160    0.0360    4.5820 C.3    86  MET86       0.1605
     78  C         11.0190    0.0360    3.9690 C.2    86  MET86       0.2287
     79  O         10.5900   -0.9670    3.3880 O.2    86  MET86      -0.2864
     80  CB        12.3580   -0.0720    6.1060 C.3    86  MET86       0.0413
     81  CG        13.6350   -0.6540    6.6980 C.3    86  MET86       0.0598
     82  SD        13.7040   -0.6280    8.4950 S.3    86  MET86      -0.1393
     83  CE        15.0560   -1.7670    8.7880 C.3    86  MET86       0.0692
     84  N         11.3370   -0.8470    0.4680 N.3    89  LEU89      -0.1245
     85  CA        11.5340   -2.2830    0.2950 C.3    89  LEU89       0.1561
     86  C         10.2280   -3.0400    0.4880 C.2    89  LEU89       0.2260
     87  O          9.8870   -3.9250   -0.3070 O.2    89  LEU89      -0.2867
     88  CB        12.5940   -2.7890    1.2750 C.3    89  LEU89       0.0270
     89  CG        12.7650   -4.3070    1.3890 C.3    89  LEU89       0.0019
     90  CD1       13.3300   -4.8800    0.1010 C.3    89  LEU89       0.0001
     91  CD2       13.6530   -4.6690    2.5680 C.3    89  LEU89       0.0001
     92  N          7.9070   -2.6740   -2.6490 N.3    92  ARG92      -0.1245
     93  CA         8.2850   -3.4960   -3.7900 C.3    92  ARG92       0.1563
     94  C          8.0470   -4.9790   -3.5450 C.2    92  ARG92       0.2260
     95  O          7.9430   -5.7400   -4.5120 O.2    92  ARG92      -0.2867
     96  CB         9.7560   -3.2750   -4.1450 C.3    92  ARG92       0.0307
     97  CG        10.1180   -1.8370   -4.4450 C.3    92  ARG92       0.0489
     98  CD        11.5090   -1.7480   -5.0410 C.3    92  ARG92       0.2205
     99  NE        12.5300   -2.3230   -4.1680 N.pl3  92  ARG92      -0.0865
    100  CZ        13.2390   -1.6230   -3.2860 C.cat  92  ARG92       0.5346
    101  NH1       13.0330   -0.3190   -3.1550 N.pl3  92  ARG92       0.1354
    102  NH2       14.1530   -2.2260   -2.5350 N.pl3  92  ARG92       0.1354
    103  N         14.6480   -6.9090   -2.6480 N.3   102  PHE102     -0.1241
    104  CA        15.6910   -5.8980   -2.4980 C.3   102  PHE102      0.1605
    105  C         16.0410   -5.2710   -3.8410 C.2   102  PHE102      0.2264
    106  O         16.3170   -4.0680   -3.9230 O.2   102  PHE102     -0.2867
    107  CB        16.9350   -6.5120   -1.8520 C.3   102  PHE102      0.0534
    108  CG        16.7360   -6.9150   -0.4210 C.ar  102  PHE102     -0.0203
    109  CD1       16.9490   -6.0070    0.6050 C.ar  102  PHE102     -0.0042
    110  CD2       16.3320   -8.1990   -0.1010 C.ar  102  PHE102     -0.0042
    111  CE1       16.7660   -6.3740    1.9260 C.ar  102  PHE102     -0.0003
    112  CE2       16.1460   -8.5740    1.2200 C.ar  102  PHE102     -0.0003
    113  CZ        16.3620   -7.6570    2.2340 C.ar  102  PHE102     -0.0000
    114  N         19.6600  -10.9180   11.4410 N.3   119  MET119     -0.1245
    115  CA        18.9630  -10.4240   10.2640 C.3   119  MET119      0.1570
    116  C         17.6010  -11.0750   10.0840 C.2   119  MET119      0.2261
    117  O         16.6930  -10.4530    9.5210 O.2   119  MET119     -0.2867
    118  CB        19.8250  -10.6670    9.0230 C.3   119  MET119      0.0387
    119  CG        19.2580  -10.1170    7.7420 C.3   119  MET119      0.0595
    120  SD        19.1810   -8.3200    7.7810 S.3   119  MET119     -0.1393
    121  CE        18.4420   -7.9950    6.1870 C.3   119  MET119      0.0692
    122  N         14.7020   -8.9440   11.7560 N.3   122  ILE122     -0.1245
    123  CA        14.2470   -7.8120   10.9510 C.3   122  ILE122      0.1561
    124  C         13.5940   -8.3000    9.6640 C.2   122  ILE122      0.2260
    125  O         12.6360   -7.6990    9.1700 O.2   122  ILE122     -0.2867
    126  CB        15.4270   -6.8540   10.6760 C.3   122  ILE122      0.0252
    127  CG1       16.0750   -6.4030   11.9890 C.3   122  ILE122      0.0019
    128  CG2       14.9910   -5.6490    9.8530 C.3   122  ILE122      0.0019
    129  CD1       17.3990   -5.6930   11.8140 C.3   122  ILE122      0.0001
    130  N          9.8660   -7.1620    8.2470 N.3   126  LEU126     -0.1245
    131  CA         9.6560   -6.6060    6.9150 C.3   126  LEU126      0.1561
    132  C          8.6460   -7.4320    6.1270 C.2   126  LEU126      0.2260
    133  O          7.7630   -6.8750    5.4680 O.2   126  LEU126     -0.2867
    134  CB        10.9890   -6.5140    6.1690 C.3   126  LEU126      0.0270
    135  CG        11.9850   -5.4650    6.6760 C.3   126  LEU126      0.0019
    136  CD1       13.3740   -5.7050    6.1100 C.3   126  LEU126      0.0001
    137  CD2       11.5090   -4.0610    6.3280 C.3   126  LEU126      0.0001
    138  N         16.9190   -2.2080   13.1010 N.3   211  GLY211     -0.1225
    139  CA        17.8920   -2.2950   12.0270 C.3   211  GLY211      0.1811
    140  C         19.0540   -1.3380   12.1860 C.2   211  GLY211      0.2280
    141  O         20.1740   -1.6470   11.7710 O.2   211  GLY211     -0.2866
    142  N         21.4150   -3.0650   14.4940 N.3   214  HIS214     -0.1226
    143  CA        22.1220   -4.1420   13.8080 C.3   214  HIS214      0.1752
    144  C         23.2030   -3.5990   12.8840 C.2   214  HIS214      0.2595
    145  O         24.2600   -4.2220   12.7330 O.2   214  HIS214     -0.2718
    146  CB        21.1300   -5.0000   13.0210 C.3   214  HIS214      0.0759
    147  CG        21.7600   -6.1560   12.3090 C.ar  214  HIS214      0.0818
    148  ND1       22.1030   -6.1120   10.9750 N.ar  214  HIS214     -0.2268
    149  CD2       22.1090   -7.3900   12.7470 C.ar  214  HIS214      0.1154
    150  CE1       22.6370   -7.2680   10.6210 C.ar  214  HIS214      0.1986
    151  NE2       22.6530   -8.0600   11.6780 N.ar  214  HIS214     -0.2212
    152  N         22.9600   -2.4450   12.2640 N.am  215  LEU215     -0.1980
    153  CA        23.9700   -1.8290   11.4150 C.3   215  LEU215      0.1596
    154  C         25.1300   -1.2830   12.2370 C.2   215  LEU215      0.2287
    155  O         26.2540   -1.1840   11.7320 O.2   215  LEU215     -0.2864
    156  CB        23.3320   -0.7220   10.5780 C.3   215  LEU215      0.0297
    157  CG        24.1840   -0.0870    9.4820 C.3   215  LEU215      0.0022
    158  CD1       24.6150   -1.1360    8.4740 C.3   215  LEU215      0.0001
    159  CD2       23.4110    1.0340    8.8020 C.3   215  LEU215      0.0001
    160  N         27.6630   -4.2180   13.0250 N.3   218  MET218     -0.1245
    161  CA        28.5110   -4.5800   11.8950 C.3   218  MET218      0.1570
    162  C         29.6200   -3.5610   11.6750 C.2   218  MET218      0.2261
    163  O         30.6660   -3.8980   11.1090 O.2   218  MET218     -0.2867
    164  CB        27.6700   -4.7320   10.6280 C.3   218  MET218      0.0387
    165  CG        26.8500   -6.0110   10.5810 C.3   218  MET218      0.0595
    166  SD        25.8920   -6.1520    9.0620 S.3   218  MET218     -0.1393
    167  CE        24.8630   -4.6940    9.1840 C.3   218  MET218      0.0692
    168  N         26.9930    6.0650    4.3770 N.3   230  LEU230     -0.1245
    169  CA        26.2290    5.2080    5.2750 C.3   230  LEU230      0.1561
    170  C         26.7160    5.3310    6.7120 C.2   230  LEU230      0.2260
    171  O         25.9150    5.2290    7.6480 O.2   230  LEU230     -0.2867
    172  CB        26.3090    3.7540    4.8120 C.3   230  LEU230      0.0270
    173  CG        25.0110    3.1530    4.2800 C.3   230  LEU230      0.0019
    174  CD1       25.2140    1.7020    3.9050 C.3   230  LEU230      0.0001
    175  CD2       23.9140    3.2900    5.3160 C.3   230  LEU230      0.0001
@<TRIPOS>BOND
     1    98    97    1
     2    98    99    1
     3    30    29    1
     4    95    94    2
     5    97    96    1
     6    99   100    2
     7    96    93    1
     8   106   105    2
     9   105   104    1
    10    93    94    1
    11    93    92    1
    12    42    43    1
    13    42    41    1
    14    29    31    1
    15    29    28    1
    16    37    38    1
    17   100   101    1
    18   100   102    1
    19    45    43   ar
    20    38    41    1
    21    38    39    1
    22    43    44   ar
    23    28    25    1
    24    25    24    1
    25    25    26    1
    26   103   104    1
    27    40    39    2
    28   104   107    1
    29    27    26    2
    30   107   108    1
    31    26    32   am
    32    32    33    1
    33   108   110   ar
    34   108   109   ar
    35    87    86    2
    36   110   112   ar
    37    90    89    1
    38     9    10    1
    39    34    35    2
    40    34    33    1
    41    85    84    1
    42    85    86    1
    43    85    88    1
    44    33    36    1
    45    15    14    1
    46   109   111   ar
    47    10    11    1
    48    10    13    1
    49    12    11    2
    50    20    19    2
    51    19    18    1
    52    75    73    1
    53    11    17   am
    54   112   113   ar
    55    88    89    1
    56    89    91    1
    57    14    13    1
    58    14    16    1
    59    17    18    1
    60   111   113   ar
    61    18    21    1
    62    71    70    2
    63    73    74    1
    64    73    72    1
    65    22    21    1
    66    69    70    1
    67    69    72    1
    68    69    68    1
    69     4     3    2
    70     3     2    1
    71    70    76   am
    72     1     2    1
    73    21    23    1
    74    79    78    2
    75     2     5    1
    76   174   173    1
    77    78    77    1
    78    76    77    1
    79   173   172    1
    80   173   175    1
    81   168   169    1
    82    77    80    1
    83   172   169    1
    84    49    48    2
    85     5     6    1
    86   169   170    1
    87   133   132    2
    88    50    47    1
    89    50    51    1
    90    56    58   ar
    91    56    53   ar
    92    47    48    1
    93    47    46    1
    94     7     6    1
    95     7     8    1
    96    48    60   am
    97    58    59   ar
    98    80    81    1
    99   136   135    1
   100   132   131    1
   101   134   135    1
   102   134   131    1
   103   121   120    1
   104   137   135    1
   105    63    62    2
   106    81    82    1
   107   170   171    2
   108    53    51   ar
   109    53    55   ar
   110    51    52   ar
   111   131   130    1
   112    62    61    1
   113    60    61    1
   114    61    64    1
   115    59    57   ar
   116    66    65    1
   117   119   120    1
   118   119   118    1
   119    55    57   ar
   120    55    54   ar
   121    52    54   ar
   122    64    65    1
   123   158   157    1
   124    82    83    1
   125    65    67    1
   126   159   157    1
   127   118   115    1
   128   166   167    1
   129   166   165    1
   130   125   124    2
   131   157   156    1
   132   117   116    2
   133   124   123    1
   134   128   126    1
   135   116   115    1
   136   115   114    1
   137   156   153    1
   138   165   164    1
   139   150   148   ar
   140   150   151   ar
   141   164   161    1
   142   126   123    1
   143   126   127    1
   144   123   122    1
   145   148   147   ar
   146   163   162    2
   147   153   154    1
   148   153   152    1
   149   162   161    1
   150   151   149   ar
   151   155   154    2
   152   141   140    2
   153   129   127    1
   154   161   160    1
   155   139   140    1
   156   139   138    1
   157   152   144   am
   158   147   149   ar
   159   147   146    1
   160   145   144    2
   161   144   143    1
   162   146   143    1
   163   143   142    1
