@<TRIPOS>MOLECULE
tmp/5tn4B01.pdb
 175 163 0 0 0
SMALL
GASTEIGER

@<TRIPOS>ATOM
      1  N         17.2070    7.7870   39.3790 N.3    39  MET39      -0.1245
      2  CA        16.7430    6.6720   38.5530 C.3    39  MET39       0.1570
      3  C         16.0990    5.5780   39.3900 C.2    39  MET39       0.2261
      4  O         15.1970    4.8830   38.9090 O.2    39  MET39      -0.2867
      5  CB        17.8880    6.0710   37.7380 C.3    39  MET39       0.0387
      6  CG        18.1830    6.7700   36.4210 C.3    39  MET39       0.0595
      7  SD        16.7630    7.2440   35.3930 S.3    39  MET39      -0.1393
      8  CE        15.9720    5.6700   35.0780 C.3    39  MET39       0.0692
      9  N         12.5660    6.5020   39.8670 N.3    42  LEU42      -0.1231
     10  CA        11.7620    6.3590   38.6570 C.3    42  LEU42       0.1693
     11  C         11.4780    4.8950   38.3410 C.2    42  LEU42       0.2592
     12  O         10.3810    4.5560   37.8820 O.2    42  LEU42      -0.2718
     13  CB        12.4680    7.0310   37.4780 C.3    42  LEU42       0.0284
     14  CG        12.6990    8.5380   37.5990 C.3    42  LEU42       0.0019
     15  CD1       13.3900    9.0590   36.3560 C.3    42  LEU42       0.0001
     16  CD2       11.3840    9.2610   37.8320 C.3    42  LEU42       0.0001
     17  N         12.4540    4.0120   38.5640 N.am   43  THR43      -0.1953
     18  CA        12.2200    2.5990   38.2920 C.3    43  THR43       0.1897
     19  C         11.3080    1.9840   39.3530 C.2    43  THR43       0.2313
     20  O         10.4540    1.1520   39.0290 O.2    43  THR43      -0.2863
     21  CB        13.5480    1.8520   38.2050 C.3    43  THR43       0.1794
     22  OG1       14.2940    2.0620   39.4050 O.3    43  THR43      -0.2208
     23  CG2       14.3640    2.3610   37.0160 C.3    43  THR43       0.0378
     24  N          8.9000    3.6310   40.8570 N.3    45  LEU45      -0.1231
     25  CA         7.5840    4.1160   40.4390 C.3    45  LEU45       0.1693
     26  C          7.0550    3.3410   39.2330 C.2    45  LEU45       0.2591
     27  O          5.8950    2.9050   39.2200 O.2    45  LEU45      -0.2718
     28  CB         7.6750    5.6150   40.1300 C.3    45  LEU45       0.0284
     29  CG         6.4310    6.4030   39.7130 C.3    45  LEU45       0.0019
     30  CD1        5.2940    6.2620   40.7240 C.3    45  LEU45       0.0001
     31  CD2        6.8010    7.8640   39.5690 C.3    45  LEU45       0.0001
     32  N          7.8910    3.1720   38.2030 N.am   46  ALA46      -0.1980
     33  CA         7.4750    2.4470   37.0040 C.3    46  ALA46       0.1597
     34  C          7.0330    1.0280   37.3320 C.2    46  ALA46       0.2287
     35  O          6.0390    0.5380   36.7830 O.2    46  ALA46      -0.2864
     36  CB         8.6180    2.4150   35.9820 C.3    46  ALA46       0.0319
     37  N          3.6520    1.3410   38.8460 N.3    49  GLU49      -0.1245
     38  CA         2.6950    1.6610   37.7900 C.3    49  GLU49       0.1567
     39  C          2.3980    0.4480   36.9240 C.2    49  GLU49       0.2260
     40  O          1.2490    0.2420   36.5100 O.2    49  GLU49      -0.2867
     41  CB         3.2060    2.8120   36.9230 C.3    49  GLU49       0.0388
     42  CG         2.8020    4.1770   37.4380 C.3    49  GLU49       0.1160
     43  CD         3.1060    5.2810   36.4510 C.2    49  GLU49       0.3649
     44  OE1        4.2850    5.4240   36.1110 O.co2  49  GLU49      -0.2457
     45  OE2        2.1780    6.0000   36.0220 O.co2  49  GLU49      -0.2457
     46  N          4.3500   -1.7020   26.9750 N.3    79  TRP79      -0.1227
     47  CA         4.2630   -1.1860   28.3450 C.3    79  TRP79       0.1737
     48  C          4.9770    0.1500   28.4990 C.2    79  TRP79       0.2595
     49  O          4.4510    1.0540   29.1510 O.2    79  TRP79      -0.2718
     50  CB         4.8010   -2.1960   29.3630 C.3    79  TRP79       0.0564
     51  CG         6.2610   -2.4680   29.2450 C.ar   79  TRP79       0.0003
     52  CD1        6.8630   -3.3850   28.4280 C.ar   79  TRP79       0.0946
     53  CD2        7.3120   -1.8280   29.9750 C.ar   79  TRP79       0.0152
     54  NE1        8.2220   -3.3370   28.5910 N.ar   79  TRP79      -0.2442
     55  CE2        8.5260   -2.3970   29.5410 C.ar   79  TRP79       0.0810
     56  CE3        7.3450   -0.8250   30.9490 C.ar   79  TRP79       0.0012
     57  CZ2        9.7610   -1.9990   30.0500 C.ar   79  TRP79       0.0191
     58  CZ3        8.5730   -0.4290   31.4520 C.ar   79  TRP79       0.0001
     59  CH2        9.7640   -1.0200   31.0070 C.ar   79  TRP79       0.0015
     60  N          6.1610    0.3170   27.8850 N.am   80  LEU80      -0.1980
     61  CA         6.8660    1.5840   28.0840 C.3    80  LEU80       0.1596
     62  C          6.1890    2.7060   27.3070 C.2    80  LEU80       0.2287
     63  O          6.1190    3.8310   27.7950 O.2    80  LEU80      -0.2864
     64  CB         8.3530    1.4640   27.7120 C.3    80  LEU80       0.0297
     65  CG         9.2530    2.6640   28.0640 C.3    80  LEU80       0.0022
     66  CD1        9.1490    3.0780   29.5760 C.3    80  LEU80       0.0001
     67  CD2       10.7070    2.3460   27.7200 C.3    80  LEU80       0.0001
     68  N          3.4230    3.7480   29.6670 N.3    83  LEU83      -0.1231
     69  CA         3.9250    4.5780   30.7630 C.3    83  LEU83       0.1693
     70  C          4.2490    5.9740   30.2640 C.2    83  LEU83       0.2591
     71  O          3.9280    6.9740   30.9190 O.2    83  LEU83      -0.2718
     72  CB         5.1760    3.9630   31.3910 C.3    83  LEU83       0.0284
     73  CG         5.0210    2.6710   32.1700 C.3    83  LEU83       0.0019
     74  CD1        6.3780    2.2700   32.6950 C.3    83  LEU83       0.0001
     75  CD2        4.0480    2.9120   33.3400 C.3    83  LEU83       0.0001
     76  N          4.8860    6.0570   29.0920 N.am   84  MET84      -0.1979
     77  CA         5.3240    7.3540   28.5850 C.3    84  MET84       0.1605
     78  C          4.1490    8.2360   28.1820 C.2    84  MET84       0.2287
     79  O          4.1500    9.4380   28.4720 O.2    84  MET84      -0.2864
     80  CB         6.2840    7.1570   27.4110 C.3    84  MET84       0.0413
     81  CG         7.6690    6.7060   27.8610 C.3    84  MET84       0.0598
     82  SD         8.7790    6.3930   26.4670 S.3    84  MET84      -0.1393
     83  CE        10.3370    6.4400   27.3580 C.3    84  MET84       0.0692
     84  N          2.7290    9.6050   31.3000 N.3    87  LEU87      -0.1245
     85  CA         3.5700   10.6540   31.8640 C.3    87  LEU87       0.1561
     86  C          3.3850   11.9620   31.1100 C.2    87  LEU87       0.2260
     87  O          3.2370   13.0300   31.7190 O.2    87  LEU87      -0.2867
     88  CB         5.0350   10.2170   31.8200 C.3    87  LEU87       0.0270
     89  CG         6.0490   11.3110   32.1400 C.3    87  LEU87       0.0019
     90  CD1        5.8410   11.8340   33.5940 C.3    87  LEU87       0.0001
     91  CD2        7.4530   10.7550   31.9280 C.3    87  LEU87       0.0001
     92  N         -0.0560   13.6260   32.0470 N.3    90  ARG90      -0.1245
     93  CA        -0.1740   14.3720   33.2910 C.3    90  ARG90       0.1563
     94  C          0.8100   15.5270   33.3780 C.2    90  ARG90       0.2260
     95  O          0.6790   16.3580   34.2820 O.2    90  ARG90      -0.2867
     96  CB        -0.0100   13.4430   34.4870 C.3    90  ARG90       0.0307
     97  CG         1.3380   12.7970   34.6560 C.3    90  ARG90       0.0489
     98  CD         1.2200   11.7990   35.8280 C.3    90  ARG90       0.2205
     99  NE         2.4210   10.9980   36.0110 N.pl3  90  ARG90      -0.0865
    100  CZ         2.5620    9.7630   35.5480 C.cat  90  ARG90       0.5346
    101  NH1        1.5750    9.1840   34.8840 N.pl3  90  ARG90       0.1354
    102  NH2        3.6880    9.1130   35.7540 N.pl3  90  ARG90       0.1354
    103  N          6.4460   13.2620   37.0050 N.3   100  PHE100     -0.1241
    104  CA         6.5510   11.8210   37.2080 C.3   100  PHE100      0.1605
    105  C          5.6020   11.3580   38.2940 C.2   100  PHE100      0.2264
    106  O          5.0180   10.2750   38.1930 O.2   100  PHE100     -0.2867
    107  CB         7.9900   11.4430   37.5550 C.3   100  PHE100      0.0534
    108  CG         8.9390   11.6260   36.4040 C.ar  100  PHE100     -0.0203
    109  CD1        9.1340   10.6070   35.4850 C.ar  100  PHE100     -0.0042
    110  CD2        9.6080   12.8220   36.2280 C.ar  100  PHE100     -0.0042
    111  CE1       10.0040   10.7780   34.3950 C.ar  100  PHE100     -0.0003
    112  CE2       10.4780   12.9970   35.1410 C.ar  100  PHE100     -0.0003
    113  CZ        10.6680   11.9780   34.2310 C.ar  100  PHE100     -0.0000
    114  N         19.6400   10.2310   29.6730 N.3   117  MET117     -0.1245
    115  CA        18.2310   10.5130   29.9300 C.3   117  MET117      0.1570
    116  C         17.7890   11.8390   29.3250 C.2   117  MET117      0.2261
    117  O         16.6050   12.0130   29.0280 O.2   117  MET117     -0.2867
    118  CB        17.9670   10.5210   31.4360 C.3   117  MET117      0.0387
    119  CG        17.4660    9.2030   31.9880 C.3   117  MET117      0.0595
    120  SD        15.7750    8.8500   31.4710 S.3   117  MET117     -0.1393
    121  CE        14.8650   10.0900   32.3940 C.3   117  MET117      0.0692
    122  N         15.9100   11.5990   26.0140 N.3   120  ILE120     -0.1245
    123  CA        14.5590   11.0730   26.1810 C.3   120  ILE120      0.1561
    124  C         13.6830   12.0870   26.8960 C.2   120  ILE120      0.2260
    125  O         12.5290   12.3190   26.5130 O.2   120  ILE120     -0.2867
    126  CB        14.6070    9.7280   26.9230 C.3   120  ILE120      0.0252
    127  CG1       15.3310    8.6890   26.0520 C.3   120  ILE120      0.0019
    128  CG2       13.2030    9.2750   27.2900 C.3   120  ILE120      0.0019
    129  CD1       15.6130    7.3850   26.7510 C.3   120  ILE120      0.0001
    130  N         10.1120   13.5790   25.5430 N.3   124  LEU124     -0.1245
    131  CA         8.8660   13.5670   26.3040 C.3   124  LEU124      0.1561
    132  C          8.3020   14.9760   26.4740 C.2   124  LEU124      0.2260
    133  O          7.0850   15.1830   26.3730 O.2   124  LEU124     -0.2867
    134  CB         9.0880   12.9090   27.6820 C.3   124  LEU124      0.0270
    135  CG         9.4570   11.4160   27.6850 C.3   124  LEU124      0.0019
    136  CD1       10.1490   10.9900   28.9940 C.3   124  LEU124      0.0001
    137  CD2        8.2380   10.5330   27.3970 C.3   124  LEU124      0.0001
    138  N         14.0080    4.4990   25.1090 N.3   215  GLY215     -0.1225
    139  CA        13.9620    4.2100   26.5400 C.3   215  GLY215      0.1811
    140  C         14.3160    2.7730   26.8660 C.2   215  GLY215      0.2280
    141  O         14.9190    2.4990   27.9110 O.2   215  GLY215     -0.2866
    142  N         17.9770    2.4510   26.7640 N.3   218  HIS218     -0.1226
    143  CA        18.5310    3.0430   27.9770 C.3   218  HIS218      0.1752
    144  C         18.3030    2.1350   29.1810 C.2   218  HIS218      0.2595
    145  O         19.1960    1.9770   30.0210 O.2   218  HIS218     -0.2718
    146  CB        17.9330    4.4290   28.2180 C.3   218  HIS218      0.0759
    147  CG        18.4360    5.0910   29.4640 C.ar  218  HIS218      0.0818
    148  ND1       19.6970    5.6390   29.5580 N.ar  218  HIS218     -0.2268
    149  CD2       17.8580    5.2720   30.6740 C.ar  218  HIS218      0.1154
    150  CE1       19.8700    6.1390   30.7680 C.ar  218  HIS218      0.1986
    151  NE2       18.7690    5.9270   31.4670 N.ar  218  HIS218     -0.2212
    152  N         17.1240    1.5120   29.2670 N.am  219  LEU219     -0.1980
    153  CA        16.8540    0.5540   30.3390 C.3   219  LEU219      0.1596
    154  C         17.8450   -0.6060   30.3040 C.2   219  LEU219      0.2287
    155  O         18.4150   -0.9870   31.3350 O.2   219  LEU219     -0.2864
    156  CB        15.4140    0.0470   30.2230 C.3   219  LEU219      0.0297
    157  CG        14.9400   -1.0880   31.1310 C.3   219  LEU219      0.0022
    158  CD1       15.0670   -0.6890   32.5990 C.3   219  LEU219      0.0001
    159  CD2       13.5060   -1.4840   30.8020 C.3   219  LEU219      0.0001
    160  N         21.0430    0.4860   31.7380 N.3   222  MET222     -0.1245
    161  CA        21.0420    0.5170   33.1960 C.3   222  MET222      0.1570
    162  C         21.2220   -0.8750   33.7740 C.2   222  MET222      0.2261
    163  O         21.9320   -1.0540   34.7710 O.2   222  MET222     -0.2867
    164  CB        19.7440    1.1370   33.7030 C.3   222  MET222      0.0387
    165  CG        19.6060    2.6020   33.3640 C.3   222  MET222      0.0595
    166  SD        17.9480    3.1900   33.7290 S.3   222  MET222     -0.1393
    167  CE        17.7130    2.5180   35.3650 C.3   222  MET222      0.0692
    168  N         10.2460   -5.5200   35.8930 N.3   234  LEU234     -0.1245
    169  CA        10.8960   -4.6510   34.9150 C.3   234  LEU234      0.1561
    170  C         11.9280   -5.4270   34.1030 C.2   234  LEU234      0.2260
    171  O         12.0360   -5.2540   32.8860 O.2   234  LEU234     -0.2867
    172  CB        11.5560   -3.4700   35.6290 C.3   234  LEU234      0.0270
    173  CG        11.2400   -2.0470   35.1960 C.3   234  LEU234      0.0019
    174  CD1        9.8080   -1.9660   34.7140 C.3   234  LEU234      0.0001
    175  CD2       11.4820   -1.0530   36.3390 C.3   234  LEU234      0.0001
@<TRIPOS>BOND
     1   138   139    1
     2   130   131    1
     3   122   123    1
     4   127   129    1
     5   127   126    1
     6   123   124    1
     7   123   126    1
     8   131   132    1
     9   131   134    1
    10   133   132    2
    11    82    83    1
    12    82    81    1
    13   125   124    2
    14   139   140    1
    15   142   143    1
    16   140   141    2
    17   126   128    1
    18    46    47    1
    19    62    63    2
    20    62    61    1
    21   137   135    1
    22    80    81    1
    23    80    77    1
    24   134   135    1
    25   135   136    1
    26    64    65    1
    27    64    61    1
    28    67    65    1
    29    60    61    1
    30    60    48   am
    31   143   146    1
    32   143   144    1
    33    65    66    1
    34    78    79    2
    35    78    77    1
    36   146   147    1
    37    47    48    1
    38    47    50    1
    39    52    54   ar
    40    52    51   ar
    41    48    49    2
    42    77    76    1
    43    54    55   ar
    44   117   116    2
    45    76    70   am
    46   144   152   am
    47   144   145    2
    48    51    50    1
    49    51    53   ar
    50   152   153    1
    51   116   115    1
    52   147   148   ar
    53   147   149   ar
    54    55    53   ar
    55    55    57   ar
    56   148   150   ar
    57    68    69    1
    58   114   115    1
    59   115   118    1
    60    53    56   ar
    61    57    59   ar
    62   156   153    1
    63   156   157    1
    64    70    69    1
    65    70    71    2
    66   154   153    1
    67   154   155    2
    68   149   151   ar
    69    69    72    1
    70   150   151   ar
    71   159   157    1
    72    56    58   ar
    73    59    58   ar
    74    86    87    2
    75    86    85    1
    76   157   158    1
    77    84    85    1
    78    72    73    1
    79   118   119    1
    80   120   119    1
    81   120   121    1
    82   160   161    1
    83    88    85    1
    84    88    89    1
    85    91    89    1
    86    92    93    1
    87    89    90    1
    88    73    74    1
    89    73    75    1
    90   171   170    2
    91   161   164    1
    92   161   162    1
    93    93    94    1
    94    93    96    1
    95   165   164    1
    96   165   166    1
    97    94    95    2
    98   166   167    1
    99   162   163    2
   100   170   169    1
   101   113   111   ar
   102   113   112   ar
   103   111   109   ar
   104    96    97    1
   105    97    98    1
   106   174   173    1
   107   101   100    1
   108   169   172    1
   109   169   168    1
   110     8     7    1
   111   112   110   ar
   112   173   172    1
   113   173   175    1
   114     7     6    1
   115   109   108   ar
   116   100   102    1
   117   100    99    2
   118    98    99    1
   119    36    33    1
   120    45    43   ar
   121    44    43   ar
   122   110   108   ar
   123    15    14    1
   124   108   107    1
   125     6     5    1
   126    43    42    1
   127    40    39    2
   128    35    34    2
   129    41    42    1
   130    41    38    1
   131    39    38    1
   132    33    34    1
   133    33    32    1
   134   103   104    1
   135    23    21    1
   136   104   107    1
   137   104   105    1
   138    13    14    1
   139    13    10    1
   140    14    16    1
   141     5     2    1
   142    38    37    1
   143    12    11    2
   144   106   105    2
   145    32    26   am
   146    21    18    1
   147    21    22    1
   148    18    17    1
   149    18    19    1
   150    11    17   am
   151    11    10    1
   152     2     1    1
   153     2     3    1
   154    10     9    1
   155     4     3    2
   156    20    19    2
   157    27    26    2
   158    26    25    1
   159    31    29    1
   160    29    28    1
   161    29    30    1
   162    28    25    1
   163    25    24    1
