@<TRIPOS>MOLECULE
tmp/5tn7B01.pdb
 156 145 0 0 0
SMALL
GASTEIGER

@<TRIPOS>ATOM
      1  N         17.6390    6.5510   39.8480 N.3    39  MET39      -0.1245
      2  CA        17.2580    5.3810   39.0630 C.3    39  MET39       0.1570
      3  C         16.4280    4.4090   39.8910 C.2    39  MET39       0.2261
      4  O         15.4470    3.8430   39.3940 O.2    39  MET39      -0.2867
      5  CB        18.5030    4.6910   38.5070 C.3    39  MET39       0.0387
      6  CG        19.1150    5.4100   37.3220 C.3    39  MET39       0.0595
      7  SD        17.9170    5.6380   35.9950 S.3    39  MET39      -0.1393
      8  CE        17.5310    3.9370   35.5860 C.3    39  MET39       0.0692
      9  N         12.8820    5.9820   40.0900 N.3    42  LEU42      -0.1231
     10  CA        12.1150    5.8810   38.8530 C.3    42  LEU42       0.1693
     11  C         11.6990    4.4420   38.5730 C.2    42  LEU42       0.2592
     12  O         10.5510    4.1830   38.1930 O.2    42  LEU42      -0.2718
     13  CB        12.9300    6.4430   37.6860 C.3    42  LEU42       0.0284
     14  CG        12.6690    7.8930   37.2660 C.3    42  LEU42       0.0019
     15  CD1       12.6480    8.8250   38.4660 C.3    42  LEU42       0.0001
     16  CD2       13.7170    8.3460   36.2590 C.3    42  LEU42       0.0001
     17  N         12.6160    3.4890   38.7620 N.am   43  THR43      -0.1953
     18  CA        12.2930    2.0920   38.4910 C.3    43  THR43       0.1897
     19  C         11.3320    1.5250   39.5270 C.2    43  THR43       0.2313
     20  O         10.4790    0.6970   39.1890 O.2    43  THR43      -0.2863
     21  CB        13.5710    1.2520   38.4330 C.3    43  THR43       0.1794
     22  OG1       14.3320    1.4490   39.6300 O.3    43  THR43      -0.2208
     23  CG2       14.4160    1.6500   37.2300 C.3    43  THR43       0.0378
     24  N          8.9980    3.3050   41.0270 N.3    45  LEU45      -0.1231
     25  CA         7.7120    3.8480   40.6040 C.3    45  LEU45       0.1693
     26  C          7.1680    3.0910   39.3990 C.2    45  LEU45       0.2591
     27  O          5.9810    2.7460   39.3560 O.2    45  LEU45      -0.2718
     28  CB         7.8530    5.3360   40.2860 C.3    45  LEU45       0.0284
     29  CG         6.5870    6.0570   39.8190 C.3    45  LEU45       0.0019
     30  CD1        5.6000    6.2220   40.9680 C.3    45  LEU45       0.0001
     31  CD2        6.9370    7.4000   39.2000 C.3    45  LEU45       0.0001
     32  N          8.0250    2.8150   38.4130 N.am   46  ALA46      -0.1980
     33  CA         7.5810    2.0870   37.2290 C.3    46  ALA46       0.1597
     34  C          7.1210    0.6780   37.5760 C.2    46  ALA46       0.2287
     35  O          6.2000    0.1510   36.9410 O.2    46  ALA46      -0.2864
     36  CB         8.7000    2.0400   36.1890 C.3    46  ALA46       0.0319
     37  N          3.6350    1.0120   39.0800 N.3    49  GLU49      -0.1245
     38  CA         2.6780    1.3650   38.0370 C.3    49  GLU49       0.1567
     39  C          2.3460    0.1730   37.1480 C.2    49  GLU49       0.2260
     40  O          1.2220    0.0750   36.6430 O.2    49  GLU49      -0.2867
     41  CB         3.2180    2.5170   37.1950 C.3    49  GLU49       0.0388
     42  CG         3.1100    3.8810   37.8490 C.3    49  GLU49       0.1160
     43  CD         3.6750    4.9810   36.9760 C.2    49  GLU49       0.3649
     44  OE1        4.9000    4.9810   36.7370 O.co2  49  GLU49      -0.2457
     45  OE2        2.8930    5.8390   36.5190 O.co2  49  GLU49      -0.2457
     46  N          6.2640    0.1180   28.3820 N.3    80  LEU80      -0.1245
     47  CA         6.9560    1.3890   28.5700 C.3    80  LEU80       0.1561
     48  C          6.3010    2.5090   27.7700 C.2    80  LEU80       0.2260
     49  O          6.3080    3.6650   28.2080 O.2    80  LEU80      -0.2867
     50  CB         8.4310    1.2490   28.1930 C.3    80  LEU80       0.0270
     51  CG         9.3310    2.4210   28.5930 C.3    80  LEU80       0.0019
     52  CD1        9.2160    2.6950   30.0860 C.3    80  LEU80       0.0001
     53  CD2       10.7800    2.1540   28.2040 C.3    80  LEU80       0.0001
     54  N          3.4940    3.5960   30.0590 N.3    83  LEU83      -0.1231
     55  CA         4.0190    4.3840   31.1710 C.3    83  LEU83       0.1693
     56  C          4.4030    5.7860   30.7190 C.2    83  LEU83       0.2591
     57  O          4.1610    6.7660   31.4330 O.2    83  LEU83      -0.2718
     58  CB         5.2280    3.6860   31.7950 C.3    83  LEU83       0.0284
     59  CG         4.9820    2.4630   32.6780 C.3    83  LEU83       0.0019
     60  CD1        6.2830    1.9860   33.3040 C.3    83  LEU83       0.0001
     61  CD2        3.9600    2.7880   33.7490 C.3    83  LEU83       0.0001
     62  N          4.9950    5.9020   29.5290 N.am   84  MET84      -0.1979
     63  CA         5.5060    7.1920   29.0810 C.3    84  MET84       0.1605
     64  C          4.3800    8.1330   28.6700 C.2    84  MET84       0.2287
     65  O          4.4370    9.3330   28.9590 O.2    84  MET84      -0.2864
     66  CB         6.4930    6.9960   27.9310 C.3    84  MET84       0.0413
     67  CG         7.8710    6.5410   28.3840 C.3    84  MET84       0.0598
     68  SD         9.0220    6.3440   27.0120 S.3    84  MET84      -0.1393
     69  CE        10.5650    6.1250   27.8980 C.3    84  MET84       0.0692
     70  N          2.9210    9.4190   31.8760 N.3    87  LEU87      -0.1245
     71  CA         3.7910   10.4490   32.4350 C.3    87  LEU87       0.1561
     72  C          3.6570   11.7570   31.6700 C.2    87  LEU87       0.2260
     73  O          3.5690   12.8350   32.2720 O.2    87  LEU87      -0.2867
     74  CB         5.2420    9.9710   32.4150 C.3    87  LEU87       0.0270
     75  CG         6.3250   11.0110   32.7060 C.3    87  LEU87       0.0019
     76  CD1        6.1750   11.5530   34.1140 C.3    87  LEU87       0.0001
     77  CD2        7.7120   10.4180   32.4990 C.3    87  LEU87       0.0001
     78  N          0.3210   13.3230   32.6600 N.3    90  ARG90      -0.1245
     79  CA         0.3350   13.9480   33.9790 C.3    90  ARG90       0.1563
     80  C          1.0870   15.2730   33.9680 C.2    90  ARG90       0.2260
     81  O          0.7890   16.1610   34.7750 O.2    90  ARG90      -0.2867
     82  CB         0.9630   13.0070   35.0110 C.3    90  ARG90       0.0307
     83  CG         0.2520   11.6780   35.1780 C.3    90  ARG90       0.0489
     84  CD         0.7090   10.9530   36.4390 C.3    90  ARG90       0.2205
     85  NE         2.1270   10.5960   36.4220 N.pl3  90  ARG90      -0.0865
     86  CZ         2.6030    9.4440   35.9590 C.cat  90  ARG90       0.5346
     87  NH1        1.7770    8.5350   35.4600 N.pl3  90  ARG90       0.1354
     88  NH2        3.9050    9.2000   35.9920 N.pl3  90  ARG90       0.1354
     89  N          6.5820   12.7010   37.4560 N.3   100  PHE100     -0.1241
     90  CA         6.6160   11.2590   37.6820 C.3   100  PHE100      0.1605
     91  C          5.6350   10.8650   38.7770 C.2   100  PHE100      0.2264
     92  O          4.8830    9.8930   38.6390 O.2   100  PHE100     -0.2867
     93  CB         8.0350   10.8130   38.0410 C.3   100  PHE100      0.0534
     94  CG         8.9860   10.8100   36.8770 C.ar  100  PHE100     -0.0203
     95  CD1        9.2160    9.6490   36.1560 C.ar  100  PHE100     -0.0042
     96  CD2        9.6520   11.9670   36.5050 C.ar  100  PHE100     -0.0042
     97  CE1       10.0920    9.6420   35.0850 C.ar  100  PHE100     -0.0003
     98  CE2       10.5280   11.9660   35.4350 C.ar  100  PHE100     -0.0003
     99  CZ        10.7480   10.8020   34.7230 C.ar  100  PHE100     -0.0000
    100  N         20.0960   10.0420   30.2990 N.3   117  MET117     -0.1245
    101  CA        18.7050   10.2330   30.6930 C.3   117  MET117      0.1570
    102  C         18.1430   11.5570   30.1900 C.2   117  MET117      0.2261
    103  O         16.9580   11.6300   29.8470 O.2   117  MET117     -0.2867
    104  CB        18.5810   10.1530   32.2150 C.3   117  MET117      0.0387
    105  CG        17.1860   10.4160   32.7510 C.3   117  MET117      0.0595
    106  SD        16.0290    9.0820   32.3900 S.3   117  MET117     -0.1393
    107  CE        16.6440    7.8050   33.4830 C.3   117  MET117      0.0692
    108  N         16.3860   11.3470   26.9810 N.3   120  ILE120     -0.1231
    109  CA        15.0270   10.8240   27.0850 C.3   120  ILE120      0.1692
    110  C         14.0940   11.8770   27.6700 C.2   120  ILE120      0.2592
    111  O         12.9350   11.9990   27.2570 O.2   120  ILE120     -0.2718
    112  CB        15.0140    9.5340   27.9250 C.3   120  ILE120      0.0266
    113  CG1       16.0850    8.5570   27.4380 C.3   120  ILE120      0.0019
    114  CG2       13.6400    8.8810   27.8790 C.3   120  ILE120      0.0020
    115  CD1       15.7820    7.9420   26.0990 C.3   120  ILE120      0.0001
    116  N         14.5840   12.6490   28.6430 N.am  121  PHE121     -0.1976
    117  CA        13.7680   13.6890   29.2650 C.3   121  PHE121      0.1639
    118  C         13.2860   14.7040   28.2370 C.2   121  PHE121      0.2290
    119  O         12.1100   15.0860   28.2280 O.2   121  PHE121     -0.2864
    120  CB        14.5660   14.3840   30.3710 C.3   121  PHE121      0.0560
    121  CG        14.3610   13.7930   31.7370 C.ar  121  PHE121     -0.0200
    122  CD1       14.2720   14.6130   32.8510 C.ar  121  PHE121     -0.0042
    123  CD2       14.2500   12.4230   31.9090 C.ar  121  PHE121     -0.0042
    124  CE1       14.0840   14.0780   34.1110 C.ar  121  PHE121     -0.0003
    125  CE2       14.0580   11.8830   33.1680 C.ar  121  PHE121     -0.0003
    126  CZ        13.9760   12.7110   34.2700 C.ar  121  PHE121     -0.0000
    127  N         10.4730   13.3640   26.1970 N.3   124  LEU124     -0.1245
    128  CA         9.2480   13.3290   26.9890 C.3   124  LEU124      0.1561
    129  C          8.6900   14.7310   27.1970 C.2   124  LEU124      0.2260
    130  O          7.4730   14.9410   27.1200 O.2   124  LEU124     -0.2867
    131  CB         9.5100   12.6470   28.3320 C.3   124  LEU124      0.0270
    132  CG         9.8240   11.1500   28.2890 C.3   124  LEU124      0.0019
    133  CD1       10.3910   10.6870   29.6210 C.3   124  LEU124      0.0001
    134  CD2        8.5750   10.3530   27.9340 C.3   124  LEU124      0.0001
    135  N         14.3280    4.4230   25.6690 N.3   209  GLY209     -0.1225
    136  CA        14.2700    4.1410   27.0920 C.3   209  GLY209      0.1811
    137  C         14.4440    2.6700   27.4100 C.2   209  GLY209      0.2280
    138  O         14.9990    2.3180   28.4550 O.2   209  GLY209     -0.2866
    139  N         18.0830    2.2020   27.3650 N.3   212  HIS212     -0.1226
    140  CA        18.7100    2.8430   28.5150 C.3   212  HIS212      0.1752
    141  C         18.5560    1.9900   29.7690 C.2   212  HIS212      0.2595
    142  O         19.4800    1.9050   30.5860 O.2   212  HIS212     -0.2718
    143  CB        18.1160    4.2350   28.7290 C.3   212  HIS212      0.0759
    144  CG        18.7700    5.0060   29.8320 C.ar  212  HIS212      0.0818
    145  ND1       18.2290    5.1020   31.0960 N.ar  212  HIS212     -0.2268
    146  CD2       19.9230    5.7140   29.8620 C.ar  212  HIS212      0.1154
    147  CE1       19.0200    5.8370   31.8570 C.ar  212  HIS212      0.1986
    148  NE2       20.0550    6.2220   31.1320 N.ar  212  HIS212     -0.2212
    149  N         17.3970    1.3470   29.9340 N.am  213  LEU213     -0.1980
    150  CA        17.1890    0.4660   31.0800 C.3   213  LEU213      0.1596
    151  C         18.0870   -0.7620   30.9970 C.2   213  LEU213      0.2287
    152  O         18.7290   -1.1420   31.9840 O.2   213  LEU213     -0.2864
    153  CB        15.7210    0.0500   31.1670 C.3   213  LEU213      0.0297
    154  CG        14.7270    1.1450   31.5540 C.3   213  LEU213      0.0022
    155  CD1       13.3130    0.5910   31.6190 C.3   213  LEU213      0.0001
    156  CD2       15.1280    1.7600   32.8830 C.3   213  LEU213      0.0001
@<TRIPOS>BOND
     1   135   136    1
     2   115   113    1
     3   127   128    1
     4   108   109    1
     5   128   129    1
     6   128   131    1
     7    68    69    1
     8    68    67    1
     9   109   110    1
    10   109   112    1
    11   136   137    1
    12   130   129    2
    13   111   110    2
    14   139   140    1
    15   137   138    2
    16   113   112    1
    17   110   116   am
    18    48    49    2
    19    48    47    1
    20   114   112    1
    21    66    67    1
    22    66    63    1
    23   134   132    1
    24    50    47    1
    25    50    51    1
    26    53    51    1
    27   119   118    2
    28   118   117    1
    29   132   131    1
    30   132   133    1
    31    46    47    1
    32   140   143    1
    33   140   141    1
    34    51    52    1
    35   116   117    1
    36    64    65    2
    37    64    63    1
    38   143   144    1
    39    63    62    1
    40   117   120    1
    41    62    56   am
    42   141   149   am
    43   141   142    2
    44   144   146   ar
    45   144   145   ar
    46   103   102    2
    47   146   148   ar
    48   149   150    1
    49    54    55    1
    50   102   101    1
    51   100   101    1
    52   120   121    1
    53   101   104    1
    54    56    55    1
    55    56    57    2
    56   151   150    1
    57   151   152    2
    58   150   153    1
    59   145   147   ar
    60   148   147   ar
    61   153   154    1
    62    55    58    1
    63   154   155    1
    64   154   156    1
    65    72    73    2
    66    72    71    1
    67   121   123   ar
    68   121   122   ar
    69    58    59    1
    70    70    71    1
    71   123   125   ar
    72   104   105    1
    73   106   105    1
    74   106   107    1
    75    74    71    1
    76    74    75    1
    77    77    75    1
    78    78    79    1
    79    59    60    1
    80    59    61    1
    81    75    76    1
    82   122   124   ar
    83   125   126   ar
    84    80    79    1
    85    80    81    2
    86    79    82    1
    87   124   126   ar
    88    99    97   ar
    89    99    98   ar
    90    82    83    1
    91    97    95   ar
    92    83    84    1
    93    98    96   ar
    94    87    86    1
    95     8     7    1
    96    86    88    1
    97    86    85    2
    98     7     6    1
    99    95    94   ar
   100    36    33    1
   101    16    14    1
   102    85    84    1
   103    96    94   ar
   104    45    43   ar
   105    40    39    2
   106    44    43   ar
   107    94    93    1
   108    35    34    2
   109    43    42    1
   110    39    38    1
   111    41    42    1
   112    41    38    1
   113    33    34    1
   114    33    32    1
   115    23    21    1
   116    14    13    1
   117    14    15    1
   118     6     5    1
   119    89    90    1
   120    90    93    1
   121    90    91    1
   122    13    10    1
   123    38    37    1
   124    12    11    2
   125    32    26   am
   126    21    18    1
   127    21    22    1
   128    18    17    1
   129    18    19    1
   130     5     2    1
   131    11    17   am
   132    11    10    1
   133    92    91    2
   134    10     9    1
   135     2     1    1
   136     2     3    1
   137    20    19    2
   138    31    29    1
   139    27    26    2
   140     4     3    2
   141    26    25    1
   142    29    28    1
   143    29    30    1
   144    28    25    1
   145    25    24    1
