@<TRIPOS>MOLECULE
tmp/5tn8A01.pdb
 145 133 0 0 0
SMALL
GASTEIGER

@<TRIPOS>ATOM
      1  N         25.3870   -8.6490    4.0810 N.3    34  MET34      -0.1245
      2  CA        25.4350   -7.2950    4.6200 C.3    34  MET34       0.1570
      3  C         26.0960   -6.3310    3.6460 C.2    34  MET34       0.2261
      4  O         25.7530   -5.1440    3.6200 O.2    34  MET34      -0.2867
      5  CB        26.1710   -7.2850    5.9600 C.3    34  MET34       0.0387
      6  CG        25.3800   -7.8950    7.1000 C.3    34  MET34       0.0595
      7  SD        23.7890   -7.0790    7.3490 S.3    34  MET34      -0.1393
      8  CE        24.2990   -5.3710    7.5340 C.3    34  MET34       0.0692
      9  N         23.3990   -5.2860    1.0050 N.3    37  LEU37      -0.1231
     10  CA        22.3410   -4.4270    1.5250 C.3    37  LEU37       0.1693
     11  C         22.8560   -3.0280    1.8400 C.2    37  LEU37       0.2592
     12  O         22.1680   -2.0370    1.5730 O.2    37  LEU37      -0.2718
     13  CB        21.7100   -5.0570    2.7680 C.3    37  LEU37       0.0284
     14  CG        20.5220   -6.0030    2.5590 C.3    37  LEU37       0.0019
     15  CD1       20.9020   -7.2090    1.7140 C.3    37  LEU37       0.0001
     16  CD2       19.9500   -6.4440    3.8980 C.3    37  LEU37       0.0001
     17  N         24.0600   -2.9250    2.4070 N.am   38  THR38      -0.1953
     18  CA        24.6270   -1.6080    2.6780 C.3    38  THR38       0.1897
     19  C         25.0600   -0.9110    1.3950 C.2    38  THR38       0.2313
     20  O         24.9950    0.3200    1.3090 O.2    38  THR38      -0.2863
     21  CB        25.8030   -1.7250    3.6470 C.3    38  THR38       0.1794
     22  OG1       26.8140   -2.5640    3.0770 O.3    38  THR38      -0.2208
     23  CG2       25.3390   -2.3200    4.9670 C.3    38  THR38       0.0378
     24  N         23.4290   -1.3860   -1.4690 N.3    40  LEU40      -0.1231
     25  CA        22.1480   -0.9890   -2.0440 C.3    40  LEU40       0.1693
     26  C         21.5760    0.2310   -1.3340 C.2    40  LEU40       0.2591
     27  O         21.0570    1.1470   -1.9820 O.2    40  LEU40      -0.2718
     28  CB        21.1670   -2.1590   -1.9810 C.3    40  LEU40       0.0284
     29  CG        19.7470   -1.9190   -2.4970 C.3    40  LEU40       0.0019
     30  CD1       19.7670   -1.5550   -3.9730 C.3    40  LEU40       0.0001
     31  CD2       18.8780   -3.1450   -2.2460 C.3    40  LEU40       0.0001
     32  N         21.6630    0.2630   -0.0020 N.am   41  ALA41      -0.1980
     33  CA        21.1130    1.3850    0.7510 C.3    41  ALA41       0.1597
     34  C         21.8860    2.6730    0.4980 C.2    41  ALA41       0.2287
     35  O         21.2960    3.7600    0.5140 O.2    41  ALA41      -0.2864
     36  CB        21.1020    1.0570    2.2440 C.3    41  ALA41       0.0319
     37  N         20.6420    4.0450   -2.7230 N.3    44  GLU44      -0.1245
     38  CA        19.2560    4.4770   -2.5890 C.3    44  GLU44       0.1567
     39  C         19.1500    5.8070   -1.8590 C.2    44  GLU44       0.2260
     40  O         18.2440    6.5990   -2.1450 O.2    44  GLU44      -0.2867
     41  CB        18.4400    3.4160   -1.8570 C.3    44  GLU44       0.0388
     42  CG        18.0880    2.2090   -2.6990 C.3    44  GLU44       0.1160
     43  CD        17.2770    1.1910   -1.9270 C.2    44  GLU44       0.3649
     44  OE1       17.5950    0.9480   -0.7450 O.co2  44  GLU44      -0.2457
     45  OE2       16.3140    0.6390   -2.4990 O.co2  44  GLU44      -0.2457
     46  N         15.9820    5.3910    7.2370 N.3    75  LEU75      -0.1245
     47  CA        15.7910    3.9450    7.2850 C.3    75  LEU75       0.1561
     48  C         14.3160    3.5730    7.2580 C.2    75  LEU75       0.2260
     49  O         13.9560    2.5200    6.7190 O.2    75  LEU75      -0.2867
     50  CB        16.4650    3.3590    8.5270 C.3    75  LEU75       0.0270
     51  CG        16.5610    1.8320    8.5750 C.3    75  LEU75       0.0019
     52  CD1       17.1880    1.2960    7.2990 C.3    75  LEU75       0.0001
     53  CD2       17.3590    1.3800    9.7880 C.3    75  LEU75       0.0001
     54  N         13.5610    3.8870    3.6030 N.3    78  LEU78      -0.1231
     55  CA        14.1350    2.7380    2.9100 C.3    78  LEU78       0.1693
     56  C         13.3150    1.4770    3.1360 C.2    78  LEU78       0.2591
     57  O         13.2180    0.6310    2.2400 O.2    78  LEU78      -0.2718
     58  CB        15.5760    2.5050    3.3620 C.3    78  LEU78       0.0284
     59  CG        16.6660    3.3810    2.7460 C.3    78  LEU78       0.0019
     60  CD1       18.0340    2.9380    3.2360 C.3    78  LEU78       0.0001
     61  CD2       16.5920    3.3310    1.2330 C.3    78  LEU78       0.0001
     62  N         12.7150    1.3320    4.3200 N.am   79  MET79      -0.1979
     63  CA        12.0200    0.0940    4.6520 C.3    79  MET79       0.1605
     64  C         10.6090    0.0650    4.0780 C.2    79  MET79       0.2287
     65  O         10.1870   -0.9500    3.5150 O.2    79  MET79      -0.2864
     66  CB        11.9960   -0.1020    6.1680 C.3    79  MET79       0.0413
     67  CG        13.3060   -0.6330    6.7290 C.3    79  MET79       0.0598
     68  SD        13.2930   -0.8050    8.5210 S.3    79  MET79      -0.1393
     69  CE        14.8360   -1.6730    8.7910 C.3    79  MET79       0.0692
     70  N         10.9730   -0.7700    0.5800 N.3    82  LEU82      -0.1245
     71  CA        11.2260   -2.2020    0.4430 C.3    82  LEU82       0.1561
     72  C          9.9590   -3.0100    0.6930 C.2    82  LEU82       0.2260
     73  O          9.6760   -3.9770   -0.0250 O.2    82  LEU82      -0.2867
     74  CB        12.3320   -2.6300    1.4090 C.3    82  LEU82       0.0270
     75  CG        12.4280   -4.1260    1.7170 C.3    82  LEU82       0.0019
     76  CD1       12.8480   -4.9060    0.4820 C.3    82  LEU82       0.0001
     77  CD2       13.3810   -4.3900    2.8740 C.3    82  LEU82       0.0001
     78  N          7.8030   -2.8010   -2.4600 N.3    85  ARG85      -0.1245
     79  CA         8.2520   -3.6310   -3.5740 C.3    85  ARG85       0.1563
     80  C          7.9360   -5.1000   -3.3280 C.2    85  ARG85       0.2260
     81  O          7.5570   -5.8250   -4.2560 O.2    85  ARG85      -0.2867
     82  CB         9.7520   -3.4440   -3.8050 C.3    85  ARG85       0.0307
     83  CG        10.1890   -2.0040   -4.0100 C.3    85  ARG85       0.0489
     84  CD        11.6290   -1.9320   -4.5000 C.3    85  ARG85       0.2205
     85  NE        12.5810   -2.5390   -3.5710 N.pl3  85  ARG85      -0.0865
     86  CZ        13.3370   -1.8520   -2.7180 C.cat  85  ARG85       0.5346
     87  NH1       13.2520   -0.5300   -2.6700 N.pl3  85  ARG85       0.1354
     88  NH2       14.1810   -2.4860   -1.9150 N.pl3  85  ARG85       0.1354
     89  N         14.4970   -6.6490   -2.1080 N.3    95  PHE95      -0.1241
     90  CA        15.4970   -5.6000   -1.9350 C.3    95  PHE95       0.1605
     91  C         15.8480   -4.9650   -3.2730 C.2    95  PHE95       0.2264
     92  O         15.8330   -3.7370   -3.4180 O.2    95  PHE95      -0.2867
     93  CB        16.7470   -6.1690   -1.2640 C.3    95  PHE95       0.0534
     94  CG        16.5780   -6.4460    0.2010 C.ar   95  PHE95      -0.0203
     95  CD1       16.8690   -5.4700    1.1390 C.ar   95  PHE95      -0.0042
     96  CD2       16.1330   -7.6810    0.6410 C.ar   95  PHE95      -0.0042
     97  CE1       16.7180   -5.7180    2.4900 C.ar   95  PHE95      -0.0003
     98  CE2       15.9790   -7.9370    1.9920 C.ar   95  PHE95      -0.0003
     99  CZ        16.2720   -6.9540    2.9170 C.ar   95  PHE95      -0.0000
    100  N         19.4780  -10.7730   11.7570 N.3   112  MET112     -0.1245
    101  CA        18.7290  -10.2230   10.6340 C.3   112  MET112      0.1570
    102  C         17.3730  -10.8960   10.4660 C.2   112  MET112      0.2261
    103  O         16.4280  -10.2630    9.9800 O.2   112  MET112     -0.2867
    104  CB        19.5490  -10.3560    9.3490 C.3   112  MET112      0.0387
    105  CG        18.8740   -9.8150    8.1030 C.3   112  MET112      0.0595
    106  SD        18.6020   -8.0350    8.1650 S.3   112  MET112     -0.1393
    107  CE        20.2810   -7.4380    8.0160 C.3   112  MET112      0.0692
    108  N         14.3950   -8.9680   11.8970 N.3   115  ILE115     -0.1245
    109  CA        13.8940   -7.8390   11.1190 C.3   115  ILE115      0.1561
    110  C         13.1420   -8.3280    9.8880 C.2   115  ILE115      0.2260
    111  O         12.1750   -7.6920    9.4480 O.2   115  ILE115     -0.2867
    112  CB        15.0520   -6.8990   10.7390 C.3   115  ILE115      0.0252
    113  CG1       15.8320   -6.4870   11.9880 C.3   115  ILE115      0.0019
    114  CG2       14.5310   -5.6680   10.0140 C.3   115  ILE115      0.0019
    115  CD1       17.0420   -5.6300   11.6930 C.3   115  ILE115      0.0001
    116  N          9.4590   -7.1630    8.5870 N.3   119  LEU119     -0.1245
    117  CA         9.3110   -6.6150    7.2420 C.3   119  LEU119      0.1561
    118  C          8.2920   -7.4050    6.4310 C.2   119  LEU119      0.2260
    119  O          7.4940   -6.8200    5.6900 O.2   119  LEU119     -0.2867
    120  CB        10.6640   -6.5970    6.5290 C.3   119  LEU119      0.0270
    121  CG        11.7010   -5.5800    7.0080 C.3   119  LEU119      0.0019
    122  CD1       13.0540   -5.8670    6.3810 C.3   119  LEU119      0.0001
    123  CD2       11.2550   -4.1640    6.6860 C.3   119  LEU119      0.0001
    124  N         16.3990   -1.9330   13.3260 N.3   201  GLY201     -0.1225
    125  CA        17.3290   -2.0170   12.2150 C.3   201  GLY201      0.1811
    126  C         18.4960   -1.0630   12.3500 C.2   201  GLY201      0.2280
    127  O         19.5910   -1.3420   11.8520 O.2   201  GLY201     -0.2866
    128  N         20.9660   -2.7790   14.5180 N.3   204  HIS204     -0.1226
    129  CA        21.6150   -3.8700   13.7980 C.3   204  HIS204      0.1752
    130  C         22.7920   -3.3540   12.9800 C.2   204  HIS204      0.2595
    131  O         23.8830   -3.9350   13.0060 O.2   204  HIS204     -0.2718
    132  CB        20.6070   -4.5860   12.9000 C.3   204  HIS204      0.0759
    133  CG        21.1900   -5.7370   12.1410 C.ar  204  HIS204      0.0818
    134  ND1       21.2130   -7.0210   12.6400 N.ar  204  HIS204     -0.2268
    135  CD2       21.7840   -5.7940   10.9260 C.ar  204  HIS204      0.1154
    136  CE1       21.7900   -7.8220   11.7610 C.ar  204  HIS204      0.1986
    137  NE2       22.1470   -7.1020   10.7130 N.ar  204  HIS204     -0.2212
    138  N         22.5840   -2.2620   12.2390 N.am  205  LEU205     -0.1980
    139  CA        23.6820   -1.6370   11.5060 C.3   205  LEU205      0.1596
    140  C         24.8060   -1.2340   12.4500 C.2   205  LEU205      0.2287
    141  O         25.9810   -1.5270   12.1990 O.2   205  LEU205     -0.2864
    142  CB        23.1740   -0.4200   10.7310 C.3   205  LEU205      0.0297
    143  CG        22.6460   -0.6520    9.3160 C.3   205  LEU205      0.0022
    144  CD1       22.1700    0.6560    8.7000 C.3   205  LEU205      0.0001
    145  CD2       23.7110   -1.3030    8.4470 C.3   205  LEU205      0.0001
@<TRIPOS>BOND
     1    84    83    1
     2    84    85    1
     3    81    80    2
     4    83    82    1
     5    30    29    1
     6    82    79    1
     7    79    80    1
     8    79    78    1
     9    85    86    2
    10    92    91    2
    11    91    90    1
    12    37    38    1
    13    86    87    1
    14    86    88    1
    15    42    43    1
    16    42    41    1
    17    38    39    1
    18    38    41    1
    19    45    43   ar
    20    29    31    1
    21    29    28    1
    22    40    39    2
    23    89    90    1
    24    25    28    1
    25    25    24    1
    26    25    26    1
    27    27    26    2
    28    90    93    1
    29    43    44   ar
    30    26    32   am
    31    93    94    1
    32    73    72    2
    33    32    33    1
    34    94    96   ar
    35    94    95   ar
    36    71    70    1
    37    71    72    1
    38    71    74    1
    39    76    75    1
    40    34    35    2
    41    34    33    1
    42    96    98   ar
    43    33    36    1
    44     9    10    1
    45    95    97   ar
    46    61    59    1
    47    20    19    2
    48    19    18    1
    49    74    75    1
    50    10    11    1
    51    10    13    1
    52    12    11    2
    53    15    14    1
    54    75    77    1
    55    11    17   am
    56    98    99   ar
    57    57    56    2
    58    17    18    1
    59    97    99   ar
    60    14    13    1
    61    14    16    1
    62    18    21    1
    63    59    60    1
    64    59    58    1
    65    55    56    1
    66    55    58    1
    67    55    54    1
    68    22    21    1
    69    56    62   am
    70    65    64    2
    71     4     3    2
    72     3     2    1
    73    21    23    1
    74    64    63    1
    75     1     2    1
    76    62    63    1
    77     2     5    1
    78    63    66    1
    79   119   118    2
    80     5     6    1
    81    66    67    1
    82   122   121    1
    83   118   117    1
    84   120   121    1
    85   120   117    1
    86   123   121    1
    87    49    48    2
    88    67    68    1
    89     6     7    1
    90    46    47    1
    91   117   116    1
    92    48    47    1
    93    47    50    1
    94    52    51    1
    95     7     8    1
    96   107   106    1
    97   105   106    1
    98   105   104    1
    99   145   143    1
   100    68    69    1
   101    50    51    1
   102    51    53    1
   103   144   143    1
   104   143   142    1
   105   104   101    1
   106   111   110    2
   107   110   109    1
   108   103   102    2
   109   114   112    1
   110   102   101    1
   111   101   100    1
   112   137   135   ar
   113   137   136   ar
   114   142   139    1
   115   112   109    1
   116   112   113    1
   117   135   133   ar
   118   109   108    1
   119   139   138    1
   120   139   140    1
   121   115   113    1
   122   136   134   ar
   123   127   126    2
   124   133   134   ar
   125   133   132    1
   126   141   140    2
   127   125   126    1
   128   125   124    1
   129   138   130   am
   130   132   129    1
   131   130   131    2
   132   130   129    1
   133   129   128    1
