@<TRIPOS>MOLECULE
tmp/5tn9D00.pdb
 197 186 0 0 0
SMALL
GASTEIGER

@<TRIPOS>ATOM
      1  N         32.0750   32.4010   68.0240 N.3    31  MET31      -0.1245
      2  CA        32.4340   31.7700   69.2890 C.3    31  MET31       0.1570
      3  C         33.4820   32.5770   70.0420 C.2    31  MET31       0.2261
      4  O         33.5100   32.5710   71.2710 O.2    31  MET31      -0.2867
      5  CB        32.9410   30.3470   69.0520 C.3    31  MET31       0.0387
      6  CG        31.8440   29.3470   68.7330 C.3    31  MET31       0.0595
      7  SD        30.6730   29.1670   70.0940 S.3    31  MET31      -0.1393
      8  CE        31.7590   28.5920   71.3970 C.3    31  MET31       0.0692
      9  N         31.7050   35.3180   71.9590 N.3    34  LEU34      -0.1231
     10  CA        30.9320   34.7320   73.0480 C.3    34  LEU34       0.1693
     11  C         31.8400   34.1760   74.1390 C.2    34  LEU34       0.2592
     12  O         31.5290   34.2840   75.3260 O.2    34  LEU34      -0.2718
     13  CB        30.0080   33.6330   72.5220 C.3    34  LEU34       0.0284
     14  CG        28.8880   34.1060   71.5950 C.3    34  LEU34       0.0019
     15  CD1       27.9640   32.9540   71.2340 C.3    34  LEU34       0.0001
     16  CD2       28.1110   35.2450   72.2370 C.3    34  LEU34       0.0001
     17  N         32.9580   33.5780   73.7360 N.am   35  THR35      -0.1953
     18  CA        33.9270   33.0600   74.6950 C.3    35  THR35       0.1897
     19  C         34.5390   34.2100   75.4850 C.2    35  THR35       0.2313
     20  O         34.7050   34.1220   76.7020 O.2    35  THR35      -0.2863
     21  CB        35.0470   32.2540   74.0070 C.3    35  THR35       0.1794
     22  OG1       34.4710   31.1780   73.2550 O.3    35  THR35      -0.2208
     23  CG2       36.0110   31.6850   75.0370 C.3    35  THR35       0.0378
     24  N         33.1200   37.1350   75.9590 N.3    37  LEU37      -0.1231
     25  CA        32.0440   37.6700   76.7840 C.3    37  LEU37       0.1693
     26  C         31.8160   36.8050   78.0190 C.2    37  LEU37       0.2592
     27  O         31.7180   37.3170   79.1340 O.2    37  LEU37      -0.2718
     28  CB        30.7520   37.7780   75.9700 C.3    37  LEU37       0.0284
     29  CG        29.5260   38.3260   76.7020 C.3    37  LEU37       0.0019
     30  CD1       29.7680   39.7570   77.1550 C.3    37  LEU37       0.0001
     31  CD2       28.2920   38.2400   75.8170 C.3    37  LEU37       0.0001
     32  N         31.7410   35.4940   77.8100 N.am   38  ALA38      -0.1966
     33  CA        31.4890   34.5450   78.8900 C.3    38  ALA38       0.1728
     34  C         32.5850   34.5780   79.9530 C.2    38  ALA38       0.2616
     35  O         32.2980   34.5160   81.1490 O.2    38  ALA38      -0.2715
     36  CB        31.3470   33.1390   78.3310 C.3    38  ALA38       0.0334
     37  N         33.8360   34.6720   79.5120 N.am   39  ASP39      -0.1971
     38  CA        34.9710   34.7160   80.4290 C.3    39  ASP39       0.1709
     39  C         34.8970   35.9260   81.3500 C.2    39  ASP39       0.2293
     40  O         35.1730   35.8250   82.5450 O.2    39  ASP39      -0.2864
     41  CB        36.2920   34.7320   79.6560 C.3    39  ASP39       0.1436
     42  CG        36.6070   33.3980   79.0120 C.2    39  ASP39       0.3671
     43  OD1       35.9580   32.3940   79.3730 O.co2  39  ASP39      -0.2456
     44  OD2       37.5100   33.3520   78.1510 O.co2  39  ASP39      -0.2456
     45  N         32.1320   37.5950   82.0310 N.3    41  GLU41      -0.1231
     46  CA        30.9270   37.4540   82.8420 C.3    41  GLU41       0.1699
     47  C         31.1840   36.5800   84.0660 C.2    41  GLU41       0.2592
     48  O         30.6380   36.8290   85.1420 O.2    41  GLU41      -0.2718
     49  CB        29.7780   36.8650   82.0150 C.3    41  GLU41       0.0402
     50  CG        29.1560   37.8320   81.0200 C.3    41  GLU41       0.1161
     51  CD        27.8930   37.2780   80.3850 C.2    41  GLU41       0.3649
     52  OE1       28.0040   36.4960   79.4170 O.co2  41  GLU41      -0.2457
     53  OE2       26.7890   37.6220   80.8570 O.co2  41  GLU41      -0.2457
     54  N         32.0180   35.5580   83.8900 N.am   42  LEU42      -0.1980
     55  CA        32.3220   34.6070   84.9550 C.3    42  LEU42       0.1596
     56  C         32.9200   35.2910   86.1790 C.2    42  LEU42       0.2287
     57  O         32.5790   34.9560   87.3130 O.2    42  LEU42      -0.2864
     58  CB        33.2800   33.5260   84.4500 C.3    42  LEU42       0.0297
     59  CG        33.6230   32.4190   85.4510 C.3    42  LEU42       0.0022
     60  CD1       32.4060   31.5490   85.7300 C.3    42  LEU42       0.0001
     61  CD2       34.7890   31.5780   84.9550 C.3    42  LEU42       0.0001
     62  N         27.2510   27.2590   86.4860 N.3    71  TRP71      -0.1227
     63  CA        27.7590   28.4540   85.8060 C.3    71  TRP71       0.1737
     64  C         27.1280   28.6840   84.4310 C.2    71  TRP71       0.2595
     65  O         26.8430   29.8230   84.0620 O.2    71  TRP71      -0.2718
     66  CB        29.2850   28.3880   85.6660 C.3    71  TRP71       0.0564
     67  CG        29.7600   27.4000   84.6510 C.ar   71  TRP71       0.0003
     68  CD1       30.0400   26.0830   84.8640 C.ar   71  TRP71       0.0946
     69  CD2       30.0120   27.6420   83.2650 C.ar   71  TRP71       0.0152
     70  NE1       30.4520   25.4910   83.6980 N.ar   71  TRP71      -0.2442
     71  CE2       30.4410   26.4340   82.6890 C.ar   71  TRP71       0.0810
     72  CE3       29.9160   28.7730   82.4390 C.ar   71  TRP71       0.0012
     73  CZ2       30.7730   26.3050   81.3460 C.ar   71  TRP71       0.0191
     74  CZ3       30.2470   28.6510   81.1010 C.ar   71  TRP71       0.0001
     75  CH2       30.6710   27.4280   80.5690 C.ar   71  TRP71       0.0015
     76  N         26.9020   27.6120   83.6790 N.am   72  LEU72      -0.1980
     77  CA        26.3390   27.7550   82.3430 C.3    72  LEU72       0.1596
     78  C         24.8460   28.0610   82.4120 C.2    72  LEU72       0.2287
     79  O         24.3340   28.8360   81.6050 O.2    72  LEU72      -0.2864
     80  CB        26.5890   26.4990   81.5070 C.3    72  LEU72       0.0297
     81  CG        26.1930   26.5940   80.0290 C.3    72  LEU72       0.0022
     82  CD1       26.8580   27.7860   79.3550 C.3    72  LEU72       0.0001
     83  CD2       26.5400   25.3090   79.2990 C.3    72  LEU72       0.0001
     84  N         24.5560   31.7560   83.1970 N.3    75  LEU75      -0.1231
     85  CA        24.8040   32.5320   81.9850 C.3    75  LEU75       0.1693
     86  C         23.5900   32.5010   81.0650 C.2    75  LEU75       0.2591
     87  O         23.2090   33.5170   80.4840 O.2    75  LEU75      -0.2718
     88  CB        26.0290   32.0000   81.2370 C.3    75  LEU75       0.0284
     89  CG        27.4120   32.2800   81.8230 C.3    75  LEU75       0.0019
     90  CD1       28.4880   31.7260   80.9050 C.3    75  LEU75       0.0001
     91  CD2       27.6070   33.7700   82.0450 C.3    75  LEU75       0.0001
     92  N         22.9870   31.3230   80.9470 N.am   76  MET76      -0.1979
     93  CA        21.8550   31.1170   80.0540 C.3    76  MET76       0.1605
     94  C         20.5960   31.8420   80.5110 C.2    76  MET76       0.2287
     95  O         19.9020   32.4510   79.6980 O.2    76  MET76      -0.2864
     96  CB        21.5630   29.6240   79.9080 C.3    76  MET76       0.0413
     97  CG        22.4580   28.9270   78.9020 C.3    76  MET76       0.0598
     98  SD        22.0910   27.1750   78.7440 S.3    76  MET76      -0.1393
     99  CE        23.0130   26.7740   77.2640 C.3    76  MET76       0.0692
    100  N         21.0800   35.4890   79.8700 N.3    79  LEU79      -0.1245
    101  CA        20.8640   35.7610   78.4520 C.3    79  LEU79       0.1561
    102  C         19.3790   35.7970   78.1070 C.2    79  LEU79       0.2260
    103  O         18.9060   36.7190   77.4420 O.2    79  LEU79      -0.2867
    104  CB        21.5700   34.7060   77.6010 C.3    79  LEU79       0.0270
    105  CG        21.1550   34.6150   76.1320 C.3    79  LEU79       0.0019
    106  CD1       21.4950   35.8960   75.3880 C.3    79  LEU79       0.0001
    107  CD2       21.8090   33.4130   75.4690 C.3    79  LEU79       0.0001
    108  N         17.7940   38.8670   79.4190 N.3    82  ARG82      -0.1245
    109  CA        18.1660   40.0240   78.6100 C.3    82  ARG82       0.1563
    110  C         17.4200   40.0510   77.2780 C.2    82  ARG82       0.2260
    111  O         17.1490   41.1180   76.7300 O.2    82  ARG82      -0.2867
    112  CB        19.6760   40.0420   78.3470 C.3    82  ARG82       0.0307
    113  CG        20.5360   40.1770   79.5920 C.3    82  ARG82       0.0489
    114  CD        21.9870   40.4730   79.2330 C.3    82  ARG82       0.2205
    115  NE        22.5960   39.4220   78.4210 N.pl3  82  ARG82      -0.0865
    116  CZ        23.2660   38.3870   78.9190 C.cat  82  ARG82       0.5346
    117  NH1       23.4130   38.2570   80.2310 N.pl3  82  ARG82       0.1354
    118  NH2       23.7900   37.4800   78.1060 N.pl3  82  ARG82       0.1354
    119  N         22.8400   38.6480   73.5250 N.3    92  PHE92      -0.1241
    120  CA        24.0470   38.2630   74.2510 C.3    92  PHE92       0.1605
    121  C         24.6880   39.4920   74.8810 C.2    92  PHE92       0.2264
    122  O         25.1940   39.4440   76.0020 O.2    92  PHE92      -0.2867
    123  CB        25.0410   37.5640   73.3200 C.3    92  PHE92       0.0534
    124  CG        24.5540   36.2450   72.7880 C.ar   92  PHE92      -0.0203
    125  CD1       24.7740   35.0750   73.4960 C.ar   92  PHE92      -0.0042
    126  CD2       23.8830   36.1740   71.5780 C.ar   92  PHE92      -0.0042
    127  CE1       24.3320   33.8600   73.0100 C.ar   92  PHE92      -0.0003
    128  CE2       23.4370   34.9610   71.0880 C.ar   92  PHE92      -0.0003
    129  CZ        23.6620   33.8030   71.8040 C.ar   92  PHE92      -0.0000
    130  N         24.0270   24.1240   67.3320 N.3   104  MET104     -0.1245
    131  CA        23.9930   25.5160   67.7640 C.3   104  MET104      0.1570
    132  C         22.5980   26.1080   67.6070 C.2   104  MET104      0.2261
    133  O         22.1210   26.8410   68.4740 O.2   104  MET104     -0.2867
    134  CB        25.0070   26.3470   66.9760 C.3   104  MET104      0.0387
    135  CG        26.4280   26.0440   67.4020 C.3   104  MET104      0.0595
    136  SD        26.8020   26.5450   69.1090 S.3   104  MET104     -0.1393
    137  CE        27.1350   28.2630   68.8010 C.3   104  MET104      0.0692
    138  N         20.1320   24.8340   70.3870 N.3   107  ILE107     -0.1245
    139  CA        20.2440   25.5780   71.6350 C.3   107  ILE107      0.1561
    140  C         19.5760   26.9360   71.4880 C.2   107  ILE107      0.2260
    141  O         18.8990   27.4140   72.3990 O.2   107  ILE107     -0.2867
    142  CB        21.7090   25.7850   72.0530 C.3   107  ILE107      0.0252
    143  CG1       22.5020   24.4880   71.8940 C.3   107  ILE107      0.0019
    144  CG2       21.7830   26.2940   73.4840 C.3   107  ILE107      0.0019
    145  CD1       22.0740   23.4010   72.8430 C.3   107  ILE107      0.0001
    146  N         16.6120   28.4260   73.7720 N.3   111  LEU111     -0.1245
    147  CA        16.8340   29.6990   74.4510 C.3   111  LEU111      0.1561
    148  C         15.7350   30.6950   74.0910 C.2   111  LEU111      0.2260
    149  O         15.1980   31.3760   74.9640 O.2   111  LEU111     -0.2867
    150  CB        18.2100   30.2720   74.0970 C.3   111  LEU111      0.0270
    151  CG        19.4280   29.5870   74.7250 C.3   111  LEU111      0.0019
    152  CD1       20.7180   30.1060   74.1070 C.3   111  LEU111      0.0001
    153  CD2       19.4440   29.7790   76.2360 C.3   111  LEU111      0.0001
    154  N         24.4300   22.2830   75.8570 N.3   201  GLY201     -0.1225
    155  CA        25.4750   23.2390   75.5380 C.3   201  GLY201      0.1811
    156  C         26.8530   22.7570   75.9490 C.2   201  GLY201      0.2280
    157  O         27.8280   22.9490   75.2220 O.2   201  GLY201     -0.2866
    158  N         28.1350   20.3480   73.4400 N.3   204  HIS204     -0.1226
    159  CA        28.5570   21.0600   72.2360 C.3   204  HIS204      0.1752
    160  C         29.8840   21.7800   72.4420 C.2   204  HIS204      0.2595
    161  O         30.6960   21.8740   71.5220 O.2   204  HIS204     -0.2718
    162  CB        27.4890   22.0650   71.8010 C.3   204  HIS204      0.0759
    163  CG        26.3530   21.4470   71.0420 C.ar  204  HIS204      0.0818
    164  ND1       26.2380   20.0900   70.8510 N.ar  204  HIS204     -0.2268
    165  CD2       25.2890   22.0120   70.4250 C.ar  204  HIS204      0.1154
    166  CE1       25.1440   19.8400   70.1470 C.ar  204  HIS204      0.1986
    167  NE2       24.5530   20.9850   69.8770 N.ar  204  HIS204     -0.2212
    168  N         30.0940   22.2910   73.6510 N.am  205  LEU205     -0.1980
    169  CA        31.3440   22.9580   73.9980 C.3   205  LEU205      0.1596
    170  C         32.5270   22.0080   73.8490 C.2   205  LEU205      0.2287
    171  O         33.6320   22.4270   73.5060 O.2   205  LEU205     -0.2864
    172  CB        31.2810   23.5110   75.4250 C.3   205  LEU205      0.0297
    173  CG        31.1300   25.0280   75.5670 C.3   205  LEU205      0.0022
    174  CD1       30.0910   25.5610   74.5970 C.3   205  LEU205      0.0001
    175  CD2       30.7640   25.3930   76.9970 C.3   205  LEU205      0.0001
    176  N         35.6470   25.1840   79.4760 N.3   207  VAL207     -0.1231
    177  CA        34.9500   24.8400   80.7100 C.3   207  VAL207      0.1678
    178  C         35.7940   25.1850   81.9330 C.2   207  VAL207      0.2434
    179  O         36.9480   24.7680   82.0320 O.2   207  VAL207     -0.2733
    180  CB        34.5840   23.3420   80.7490 C.3   207  VAL207      0.0265
    181  CG1       33.9770   22.9730   82.0950 C.3   207  VAL207      0.0020
    182  CG2       33.6300   23.0020   79.6150 C.3   207  VAL207      0.0020
    183  N         35.2200   25.9590   82.8670 N.am  208  PRO208     -0.2729
    184  CA        35.9000   26.3300   84.1130 C.3   208  PRO208      0.1401
    185  C         36.1780   25.1210   85.0010 C.2   208  PRO208      0.2269
    186  O         35.2470   24.4400   85.4340 O.2   208  PRO208     -0.2865
    187  CB        34.9080   27.2880   84.7850 C.3   208  PRO208      0.0296
    188  CG        33.5860   26.9530   84.1840 C.3   208  PRO208      0.0237
    189  CD        33.8830   26.5660   82.7700 C.3   208  PRO208      0.0939
    190  N         40.3270   26.2740   88.8610 N.3   212  LEU212     -0.1245
    191  CA        40.1390   27.6370   88.3800 C.3   212  LEU212      0.1561
    192  C         39.1260   28.3820   89.2390 C.2   212  LEU212      0.2260
    193  O         39.3710   29.5100   89.6630 O.2   212  LEU212     -0.2867
    194  CB        39.6910   27.6340   86.9170 C.3   212  LEU212      0.0270
    195  CG        39.2720   28.9860   86.3350 C.3   212  LEU212      0.0019
    196  CD1       40.4090   29.9970   86.4200 C.3   212  LEU212      0.0001
    197  CD2       38.8020   28.8240   84.8990 C.3   212  LEU212      0.0001
@<TRIPOS>BOND
     1   134   135    1
     2   134   131    1
     3   130   131    1
     4   135   136    1
     5   132   131    1
     6   132   133    2
     7     1     2    1
     8     6     5    1
     9     6     7    1
    10   137   136    1
    11     5     2    1
    12     2     3    1
    13   167   166   ar
    14   167   165   ar
    15     3     4    2
    16     7     8    1
    17   166   164   ar
    18   138   139    1
    19   165   163   ar
    20   164   163   ar
    21   163   162    1
    22   128   126   ar
    23   128   129   ar
    24    15    14    1
    25   140   139    1
    26   140   141    2
    27   161   160    2
    28   126   124   ar
    29    14    16    1
    30    14    13    1
    31   139   142    1
    32   162   159    1
    33   129   127   ar
    34   143   142    1
    35   143   145    1
    36     9    10    1
    37   142   144    1
    38   159   160    1
    39   159   158    1
    40   160   168   am
    41    13    10    1
    42   124   123    1
    43   124   125   ar
    44   127   125   ar
    45    10    11    1
    46    22    21    1
    47   123   120    1
    48   171   170    2
    49   119   120    1
    50   168   169    1
    51    17    11   am
    52    17    18    1
    53   146   147    1
    54   170   169    1
    55   169   172    1
    56    21    18    1
    57    21    23    1
    58   148   147    1
    59   148   149    2
    60   150   147    1
    61   150   151    1
    62   152   151    1
    63    11    12    2
    64   120   121    1
    65   174   173    1
    66    18    19    1
    67   151   153    1
    68   121   122    2
    69   157   156    2
    70   106   105    1
    71   172   173    1
    72   107   105    1
    73    19    20    2
    74   155   154    1
    75   155   156    1
    76   173   175    1
    77    31    29    1
    78    24    25    1
    79    28    29    1
    80    28    25    1
    81   105   104    1
    82    29    30    1
    83   111   110    2
    84    25    26    1
    85    99    98    1
    86   110   109    1
    87   103   102    2
    88   104   101    1
    89    32    26   am
    90    32    33    1
    91    26    27    2
    92   118   116    1
    93   102   101    1
    94    44    42   ar
    95    36    33    1
    96   112   109    1
    97   112   113    1
    98   115   116    2
    99   115   114    1
   100   101   100    1
   101   109   108    1
   102    98    97    1
   103    33    34    1
   104    97    96    1
   105   116   117    1
   106    42    43   ar
   107    42    41    1
   108   114   113    1
   109    83    81    1
   110    82    81    1
   111    52    51   ar
   112   176   177    1
   113    37    34   am
   114    37    38    1
   115   182   180    1
   116    41    38    1
   117    95    94    2
   118    96    93    1
   119    34    35    2
   120    81    80    1
   121    93    94    1
   122    93    92    1
   123    51    53   ar
   124    51    50    1
   125    38    39    1
   126    87    86    2
   127    75    74   ar
   128    75    73   ar
   129   177   180    1
   130   177   178    1
   131   180   181    1
   132    90    89    1
   133    92    86   am
   134    50    49    1
   135    86    85    1
   136    74    72   ar
   137    88    89    1
   138    88    85    1
   139    73    71   ar
   140    39    40    2
   141    80    77    1
   142    79    78    2
   143    89    91    1
   144   178   179    2
   145   178   183   am
   146    85    84    1
   147    49    46    1
   148    45    46    1
   149    77    78    1
   150    77    76    1
   151    72    69   ar
   152    71    69   ar
   153    71    70   ar
   154   189   183    1
   155   189   188    1
   156    46    47    1
   157   183   184    1
   158    69    67   ar
   159    76    64   am
   160    70    68   ar
   161    54    47   am
   162    54    55    1
   163    65    64    2
   164    47    48    2
   165   184   187    1
   166   184   185    1
   167   188   187    1
   168    64    63    1
   169    58    55    1
   170    58    59    1
   171    67    68   ar
   172    67    66    1
   173   197   195    1
   174    55    56    1
   175    61    59    1
   176   185   186    2
   177    59    60    1
   178    66    63    1
   179    63    62    1
   180    56    57    2
   181   195   196    1
   182   195   194    1
   183   194   191    1
   184   191   190    1
   185   191   192    1
   186   192   193    2
