@<TRIPOS>MOLECULE
tmp/5tnbB00.pdb
 228 216 0 0 0
SMALL
GASTEIGER

@<TRIPOS>ATOM
      1  N        -31.3880   -7.9820  -59.8940 N.3    34  MET34      -0.1230
      2  CA       -30.2690   -8.0560  -58.9630 C.3    34  MET34       0.1702
      3  C        -30.5660   -7.2840  -57.6830 C.2    34  MET34       0.2592
      4  O        -30.3000   -7.7650  -56.5810 O.2    34  MET34      -0.2718
      5  CB       -28.9950   -7.5150  -59.6120 C.3    34  MET34       0.0401
      6  CG       -27.7540   -7.6610  -58.7470 C.3    34  MET34       0.0596
      7  SD       -26.4180   -6.5680  -59.2650 S.3    34  MET34      -0.1393
      8  CE       -27.0880   -4.9730  -58.8000 C.3    34  MET34       0.0692
      9  N        -31.1190   -6.0850  -57.8370 N.am   35  MET35      -0.1979
     10  CA       -31.4290   -5.2310  -56.6970 C.3    35  MET35       0.1605
     11  C        -32.5440   -5.8370  -55.8530 C.2    35  MET35       0.2287
     12  O        -32.6090   -5.6200  -54.6430 O.2    35  MET35      -0.2864
     13  CB       -31.8200   -3.8280  -57.1680 C.3    35  MET35       0.0413
     14  CG       -31.8970   -2.7980  -56.0520 C.3    35  MET35       0.0598
     15  SD       -30.3670   -2.6870  -55.1010 S.3    35  MET35      -0.1393
     16  CE       -29.1900   -2.2790  -56.3870 C.3    35  MET35       0.0692
     17  N        -30.8400   -8.5350  -53.7740 N.3    38  LEU38      -0.1231
     18  CA       -30.0550   -7.9460  -52.6960 C.3    38  LEU38       0.1693
     19  C        -30.9550   -7.4150  -51.5870 C.2    38  LEU38       0.2592
     20  O        -30.6490   -7.5600  -50.4020 O.2    38  LEU38      -0.2718
     21  CB       -29.1620   -6.8250  -53.2300 C.3    38  LEU38       0.0284
     22  CG       -28.0740   -7.2470  -54.2180 C.3    38  LEU38       0.0019
     23  CD1      -27.2190   -6.0550  -54.6200 C.3    38  LEU38       0.0001
     24  CD2      -27.2190   -8.3520  -53.6240 C.3    38  LEU38       0.0001
     25  N        -32.0640   -6.7960  -51.9810 N.am   39  THR39      -0.1953
     26  CA       -33.0240   -6.2530  -51.0280 C.3    39  THR39       0.1897
     27  C        -33.6490   -7.3650  -50.1950 C.2    39  THR39       0.2313
     28  O        -33.7300   -7.2650  -48.9700 O.2    39  THR39      -0.2863
     29  CB       -34.1370   -5.4610  -51.7380 C.3    39  THR39       0.1794
     30  OG1      -33.5540   -4.3940  -52.4970 O.3    39  THR39      -0.2208
     31  CG2      -35.1140   -4.8820  -50.7260 C.3    39  THR39       0.0378
     32  N        -32.3730  -10.2780  -49.6790 N.3    41  LEU41      -0.1231
     33  CA       -31.2880  -10.8220  -48.8720 C.3    41  LEU41       0.1693
     34  C        -31.0090   -9.9590  -47.6440 C.2    41  LEU41       0.2592
     35  O        -30.8610  -10.4720  -46.5340 O.2    41  LEU41      -0.2718
     36  CB       -30.0180  -10.9580  -49.7140 C.3    41  LEU41       0.0284
     37  CG       -28.7640  -11.4550  -48.9930 C.3    41  LEU41       0.0019
     38  CD1      -28.9570  -12.8780  -48.5010 C.3    41  LEU41       0.0001
     39  CD2      -27.5480  -11.3560  -49.9020 C.3    41  LEU41       0.0001
     40  N        -30.9380   -8.6480  -47.8480 N.am   42  ALA42      -0.1966
     41  CA       -30.6410   -7.7210  -46.7620 C.3    42  ALA42       0.1728
     42  C        -31.7490   -7.7130  -45.7120 C.2    42  ALA42       0.2616
     43  O        -31.4840   -7.5370  -44.5230 O.2    42  ALA42      -0.2715
     44  CB       -30.4210   -6.3210  -47.3080 C.3    42  ALA42       0.0334
     45  N        -32.9870   -7.9060  -46.1570 N.am   43  ASP43      -0.1971
     46  CA       -34.1280   -7.9430  -45.2500 C.3    43  ASP43       0.1709
     47  C        -34.0610   -9.1540  -44.3250 C.2    43  ASP43       0.2293
     48  O        -34.3290   -9.0470  -43.1280 O.2    43  ASP43      -0.2864
     49  CB       -35.4420   -7.9550  -46.0340 C.3    43  ASP43       0.1436
     50  CG       -35.7330   -6.6260  -46.7050 C.2    43  ASP43       0.3671
     51  OD1      -35.2450   -5.5890  -46.2110 O.co2  43  ASP43      -0.2456
     52  OD2      -36.4540   -6.6180  -47.7250 O.co2  43  ASP43      -0.2456
     53  N        -31.2900  -10.7740  -43.6880 N.3    45  GLU45      -0.1231
     54  CA       -30.0770  -10.5760  -42.9020 C.3    45  GLU45       0.1699
     55  C        -30.3250   -9.6770  -41.6940 C.2    45  GLU45       0.2592
     56  O        -29.7060   -9.8530  -40.6430 O.2    45  GLU45      -0.2718
     57  CB       -28.9630   -9.9840  -43.7670 C.3    45  GLU45       0.0402
     58  CG       -28.2600  -10.9990  -44.6500 C.3    45  GLU45       0.1161
     59  CD       -27.0480  -10.4190  -45.3480 C.2    45  GLU45       0.3649
     60  OE1      -27.2260   -9.5510  -46.2270 O.co2  45  GLU45      -0.2457
     61  OE2      -25.9170  -10.8260  -45.0120 O.co2  45  GLU45      -0.2457
     62  N        -31.2320   -8.7180  -41.8490 N.am   46  LEU46      -0.1980
     63  CA       -31.5400   -7.7670  -40.7850 C.3    46  LEU46       0.1596
     64  C        -32.0800   -8.4650  -39.5400 C.2    46  LEU46       0.2287
     65  O        -31.7280   -8.1080  -38.4160 O.2    46  LEU46      -0.2864
     66  CB       -32.5490   -6.7260  -41.2750 C.3    46  LEU46       0.0297
     67  CG       -32.9170   -5.6240  -40.2790 C.3    46  LEU46       0.0022
     68  CD1      -31.6970   -4.7850  -39.9330 C.3    46  LEU46       0.0001
     69  CD2      -34.0330   -4.7510  -40.8310 C.3    46  LEU46       0.0001
     70  N        -26.2840   -0.4280  -39.1290 N.3    75  TRP75      -0.1227
     71  CA       -26.8070   -1.5770  -39.8670 C.3    75  TRP75       0.1737
     72  C        -26.1790   -1.7740  -41.2550 C.2    75  TRP75       0.2595
     73  O        -25.8870   -2.9080  -41.6460 O.2    75  TRP75      -0.2718
     74  CB       -28.3370   -1.4800  -39.9930 C.3    75  TRP75       0.0564
     75  CG       -28.8380   -0.4870  -41.0000 C.ar   75  TRP75       0.0003
     76  CD1      -29.1250    0.8280  -40.7840 C.ar   75  TRP75       0.0946
     77  CD2      -29.1230   -0.7380  -42.3830 C.ar   75  TRP75       0.0152
     78  NE1      -29.5610    1.4150  -41.9480 N.ar   75  TRP75      -0.2442
     79  CE2      -29.5650    0.4750  -42.9450 C.ar   75  TRP75       0.0810
     80  CE3      -29.0370   -1.8680  -43.1990 C.ar   75  TRP75       0.0012
     81  CZ2      -29.9240    0.5880  -44.2860 C.ar   75  TRP75       0.0191
     82  CZ3      -29.3930   -1.7550  -44.5260 C.ar   75  TRP75       0.0001
     83  CH2      -29.8330   -0.5370  -45.0580 C.ar   75  TRP75       0.0015
     84  N        -25.9700   -0.6930  -41.9990 N.am   76  LEU76      -0.1980
     85  CA       -25.3770   -0.8200  -43.3250 C.3    76  LEU76       0.1596
     86  C        -23.8840   -1.1240  -43.2280 C.2    76  LEU76       0.2287
     87  O        -23.3540   -1.8950  -44.0260 O.2    76  LEU76      -0.2864
     88  CB       -25.6120    0.4460  -44.1510 C.3    76  LEU76       0.0297
     89  CG       -25.1650    0.3590  -45.6150 C.3    76  LEU76       0.0022
     90  CD1      -25.7300   -0.8850  -46.2900 C.3    76  LEU76       0.0001
     91  CD2      -25.5670    1.6060  -46.3820 C.3    76  LEU76       0.0001
     92  N        -23.6500   -4.8570  -42.4420 N.3    79  LEU79      -0.1231
     93  CA       -23.8780   -5.6450  -43.6490 C.3    79  LEU79       0.1693
     94  C        -22.6660   -5.6070  -44.5730 C.2    79  LEU79       0.2591
     95  O        -22.2750   -6.6250  -45.1440 O.2    79  LEU79      -0.2718
     96  CB       -25.1120   -5.1420  -44.3980 C.3    79  LEU79       0.0284
     97  CG       -26.4790   -5.4670  -43.8000 C.3    79  LEU79       0.0019
     98  CD1      -27.5810   -4.9220  -44.6960 C.3    79  LEU79       0.0001
     99  CD2      -26.6350   -6.9690  -43.6020 C.3    79  LEU79       0.0001
    100  N        -22.0740   -4.4260  -44.7100 N.am   80  MET80      -0.1979
    101  CA       -20.9420   -4.2320  -45.6090 C.3    80  MET80       0.1605
    102  C        -19.6780   -4.9520  -45.1460 C.2    80  MET80       0.2287
    103  O        -18.9680   -5.5440  -45.9590 O.2    80  MET80      -0.2864
    104  CB       -20.6510   -2.7430  -45.7780 C.3    80  MET80       0.0413
    105  CG       -21.6190   -2.0300  -46.7030 C.3    80  MET80       0.0598
    106  SD       -21.2320   -0.2800  -46.8590 S.3    80  MET80      -0.1393
    107  CE       -22.2380    0.1610  -48.2730 C.3    80  MET80       0.0692
    108  N        -20.1840   -8.6010  -45.7870 N.3    83  LEU83      -0.1245
    109  CA       -19.9770   -8.8700  -47.2050 C.3    83  LEU83       0.1561
    110  C        -18.4910   -8.9240  -47.5450 C.2    83  LEU83       0.2260
    111  O        -18.0230   -9.8610  -48.1930 O.2    83  LEU83      -0.2867
    112  CB       -20.6700   -7.8020  -48.0530 C.3    83  LEU83       0.0270
    113  CG       -20.2700   -7.7390  -49.5280 C.3    83  LEU83       0.0019
    114  CD1      -20.6670   -9.0140  -50.2520 C.3    83  LEU83       0.0001
    115  CD2      -20.8870   -6.5210  -50.1990 C.3    83  LEU83       0.0001
    116  N        -16.7090  -12.1530  -46.1190 N.3    86  ARG86      -0.1245
    117  CA       -16.9490  -13.4170  -46.8060 C.3    86  ARG86       0.1563
    118  C        -16.5260  -13.3570  -48.2730 C.2    86  ARG86       0.2260
    119  O        -16.5490  -14.3670  -48.9740 O.2    86  ARG86      -0.2867
    120  CB       -18.4220  -13.8230  -46.6930 C.3    86  ARG86       0.0307
    121  CG       -19.4120  -12.8130  -47.2430 C.3    86  ARG86       0.0489
    122  CD       -20.8460  -13.2980  -47.0530 C.3    86  ARG86       0.2205
    123  NE       -21.8160  -12.3380  -47.5730 N.pl3  86  ARG86      -0.0865
    124  CZ       -22.4660  -11.4500  -46.8280 C.cat  86  ARG86       0.5346
    125  NH1      -22.2620  -11.3960  -45.5170 N.pl3  86  ARG86       0.1354
    126  NH2      -23.3250  -10.6140  -47.3940 N.pl3  86  ARG86       0.1354
    127  N        -22.0560  -11.7730  -52.1360 N.3    96  PHE96      -0.1241
    128  CA       -23.2640  -11.3500  -51.4400 C.3    96  PHE96       0.1605
    129  C        -23.9310  -12.5690  -50.8180 C.2    96  PHE96       0.2264
    130  O        -24.4560  -12.5130  -49.7060 O.2    96  PHE96      -0.2867
    131  CB       -24.2240  -10.6380  -52.3930 C.3    96  PHE96       0.0534
    132  CG       -23.7070   -9.3230  -52.9060 C.ar   96  PHE96      -0.0203
    133  CD1      -23.9560   -8.1490  -52.2130 C.ar   96  PHE96      -0.0042
    134  CD2      -22.9750   -9.2610  -54.0800 C.ar   96  PHE96      -0.0042
    135  CE1      -23.4850   -6.9370  -52.6810 C.ar   96  PHE96      -0.0003
    136  CE2      -22.5000   -8.0510  -54.5530 C.ar   96  PHE96      -0.0003
    137  CZ       -22.7550   -6.8880  -53.8520 C.ar   96  PHE96      -0.0000
    138  N        -21.3170   -5.4570  -61.8270 N.3   107  GLY107     -0.1225
    139  CA       -21.6330   -4.3120  -60.9940 C.3   107  GLY107      0.1811
    140  C        -21.6620   -3.0170  -61.7820 C.2   107  GLY107      0.2280
    141  O        -20.7990   -2.1560  -61.6120 O.2   107  GLY107     -0.2866
    142  N        -23.2810    2.2450  -58.9720 N.3   109  MET109     -0.1245
    143  CA       -23.0290    1.0880  -58.1220 C.3   109  MET109      0.1570
    144  C        -21.5660    0.6630  -58.1930 C.2   109  MET109      0.2261
    145  O        -21.0510    0.0200  -57.2780 O.2   109  MET109     -0.2867
    146  CB       -23.9350   -0.0780  -58.5220 C.3   109  MET109      0.0387
    147  CG       -25.4180    0.1060  -58.4140 C.3   109  MET109      0.0595
    148  SD       -25.8330    0.1920  -56.6310 S.3   109  MET109     -0.1393
    149  CE       -24.9980   -1.1240  -55.8930 C.3   109  MET109      0.0692
    150  N        -19.1170    2.1320  -55.2840 N.3   112  ILE112     -0.1231
    151  CA       -19.2020    1.4340  -54.0080 C.3   112  ILE112      0.1692
    152  C        -18.6440    0.0190  -54.1290 C.2   112  ILE112      0.2592
    153  O        -17.9860   -0.4760  -53.2140 O.2   112  ILE112     -0.2718
    154  CB       -20.6540    1.3820  -53.4970 C.3   112  ILE112      0.0266
    155  CG1      -21.2090    2.8010  -53.3520 C.3   112  ILE112      0.0019
    156  CG2      -20.7360    0.6380  -52.1710 C.3   112  ILE112      0.0020
    157  CD1      -22.6460    2.8530  -52.8930 C.3   112  ILE112      0.0001
    158  N        -18.9020   -0.6150  -55.2690 N.am  113  PHE113     -0.1976
    159  CA       -18.3910   -1.9520  -55.5550 C.3   113  PHE113      0.1639
    160  C        -16.8690   -1.9880  -55.4340 C.2   113  PHE113      0.2290
    161  O        -16.3090   -2.8780  -54.7950 O.2   113  PHE113     -0.2864
    162  CB       -18.8200   -2.3970  -56.9570 C.3   113  PHE113      0.0560
    163  CG       -18.8340   -3.8880  -57.1500 C.ar  113  PHE113     -0.0200
    164  CD1      -20.0340   -4.5780  -57.2130 C.ar  113  PHE113     -0.0042
    165  CD2      -17.6520   -4.6000  -57.2760 C.ar  113  PHE113     -0.0042
    166  CE1      -20.0560   -5.9480  -57.3940 C.ar  113  PHE113     -0.0003
    167  CE2      -17.6670   -5.9710  -57.4550 C.ar  113  PHE113     -0.0003
    168  CZ       -18.8700   -6.6450  -57.5150 C.ar  113  PHE113     -0.0000
    169  N        -15.7250   -1.6330  -51.8970 N.3   116  LEU116     -0.1245
    170  CA       -15.9330   -2.8870  -51.1850 C.3   116  LEU116      0.1561
    171  C        -14.8260   -3.8800  -51.5230 C.2   116  LEU116      0.2260
    172  O        -14.3010   -4.5610  -50.6420 O.2   116  LEU116     -0.2867
    173  CB       -17.3060   -3.4750  -51.5220 C.3   116  LEU116      0.0270
    174  CG       -18.5100   -2.7310  -50.9360 C.3   116  LEU116      0.0019
    175  CD1      -19.8070   -3.1940  -51.5820 C.3   116  LEU116      0.0001
    176  CD2      -18.5690   -2.9150  -49.4280 C.3   116  LEU116      0.0001
    177  N        -23.3490    4.7020  -49.4770 N.3   195  GLY195     -0.1225
    178  CA       -24.3760    3.7030  -49.6880 C.3   195  GLY195      0.1811
    179  C        -25.7740    4.1990  -49.3780 C.2   195  GLY195      0.2280
    180  O        -26.7100    3.9450  -50.1380 O.2   195  GLY195     -0.2866
    181  N        -27.3060    6.3770  -52.1860 N.3   198  HIS198     -0.1226
    182  CA       -27.8680    5.6540  -53.3200 C.3   198  HIS198      0.1752
    183  C        -29.0940    4.8360  -52.9250 C.2   198  HIS198      0.2595
    184  O        -29.8230    4.3500  -53.7870 O.2   198  HIS198     -0.2718
    185  CB       -26.8100    4.7480  -53.9540 C.3   198  HIS198      0.0759
    186  CG       -25.7660    5.4940  -54.7250 C.ar  198  HIS198      0.0818
    187  ND1      -24.5670    5.8870  -54.1690 N.ar  198  HIS198     -0.2268
    188  CD2      -25.7470    5.9300  -56.0060 C.ar  198  HIS198      0.1154
    189  CE1      -23.8520    6.5270  -55.0770 C.ar  198  HIS198      0.1986
    190  NE2      -24.5450    6.5680  -56.2000 N.ar  198  HIS198     -0.2212
    191  N        -29.3180    4.6860  -51.6230 N.am  199  LEU199     -0.1980
    192  CA       -30.5310    4.0380  -51.1360 C.3   199  LEU199      0.1596
    193  C        -31.6450    5.0670  -50.9760 C.2   199  LEU199      0.2287
    194  O        -32.8160    4.7160  -50.8290 O.2   199  LEU199     -0.2864
    195  CB       -30.2750    3.3130  -49.8130 C.3   199  LEU199      0.0297
    196  CG       -29.4560    2.0230  -49.9060 C.3   199  LEU199      0.0022
    197  CD1      -29.3910    1.3280  -48.5550 C.3   199  LEU199      0.0001
    198  CD2      -30.0290    1.0910  -50.9660 C.3   199  LEU199      0.0001
    199  N        -33.3660    5.8880  -55.0470 N.3   202  MET202     -0.1245
    200  CA       -34.0730    4.7920  -55.7000 C.3   202  MET202      0.1570
    201  C        -34.9830    5.2980  -56.8150 C.2   202  MET202      0.2261
    202  O        -34.9780    6.4830  -57.1460 O.2   202  MET202     -0.2867
    203  CB       -34.8910    4.0010  -54.6760 C.3   202  MET202      0.0387
    204  CG       -34.0800    3.4290  -53.5180 C.3   202  MET202      0.0595
    205  SD       -33.4190    1.7720  -53.8070 S.3   202  MET202     -0.1393
    206  CE       -31.9410    2.1190  -54.7560 C.3   202  MET202      0.0692
    207  N        -34.4010    0.8490  -46.1180 N.3   203  VAL203     -0.1231
    208  CA       -33.7810    1.3790  -44.9090 C.3   203  VAL203      0.1678
    209  C        -34.6970    1.2170  -43.7000 C.2   203  VAL203      0.2434
    210  O        -35.8200    1.7210  -43.6960 O.2   203  VAL203     -0.2733
    211  CB       -33.4180    2.8690  -45.0660 C.3   203  VAL203      0.0265
    212  CG1      -32.8560    3.4190  -43.7640 C.3   203  VAL203      0.0020
    213  CG2      -32.4250    3.0580  -46.2040 C.3   203  VAL203      0.0020
    214  N        -34.2160    0.5070  -42.6680 N.am  204  PRO204     -0.2729
    215  CA       -34.9820    0.3010  -41.4350 C.3   204  PRO204      0.1401
    216  C        -35.1560    1.5980  -40.6540 C.2   204  PRO204      0.2269
    217  O        -34.1660    2.2420  -40.3070 O.2   204  PRO204     -0.2865
    218  CB       -34.1260   -0.6980  -40.6450 C.3   204  PRO204      0.0296
    219  CG       -33.1690   -1.2760  -41.6380 C.3   204  PRO204      0.0237
    220  CD       -32.9230   -0.1910  -42.6290 C.3   204  PRO204      0.0939
    221  N        -39.2790    0.6440  -36.8420 N.3   208  LEU208     -0.1245
    222  CA       -39.1310   -0.7130  -37.3540 C.3   208  LEU208      0.1561
    223  C        -38.1280   -1.4920  -36.5150 C.2   208  LEU208      0.2260
    224  O        -38.3950   -2.6180  -36.0960 O.2   208  LEU208     -0.2867
    225  CB       -38.6930   -0.6940  -38.8200 C.3   208  LEU208      0.0270
    226  CG       -38.5780   -2.0250  -39.5490 C.3   208  LEU208      0.0019
    227  CD1      -39.9540   -2.6210  -39.8200 C.3   208  LEU208      0.0001
    228  CD2      -37.8110   -1.8540  -40.8580 C.3   208  LEU208      0.0001
@<TRIPOS>BOND
     1   138   139    1
     2   140   141    2
     3   140   139    1
     4     1     2    1
     5     5     2    1
     6     5     6    1
     7     7     8    1
     8     7     6    1
     9   142   143    1
    10     2     3    1
    11   146   147    1
    12   146   143    1
    13   147   148    1
    14   144   143    1
    15   144   145    2
    16     9     3   am
    17     9    10    1
    18     3     4    2
    19   168   167   ar
    20   168   166   ar
    21   167   165   ar
    22   166   164   ar
    23   165   163   ar
    24   164   163   ar
    25    13    10    1
    26    13    14    1
    27   163   162    1
    28   202   201    2
    29   162   159    1
    30   201   200    1
    31    10    11    1
    32   148   149    1
    33    16    15    1
    34   190   188   ar
    35   190   189   ar
    36    14    15    1
    37   188   186   ar
    38    11    12    2
    39   200   199    1
    40   200   203    1
    41   159   160    1
    42   159   158    1
    43   160   161    2
    44   150   151    1
    45   158   152   am
    46   189   187   ar
    47   206   205    1
    48   186   187   ar
    49   186   185    1
    50   203   204    1
    51    23    22    1
    52   136   134   ar
    53   136   137   ar
    54    22    24    1
    55    22    21    1
    56   152   151    1
    57   152   153    2
    58   134   132   ar
    59   151   154    1
    60   185   182    1
    61   137   135   ar
    62   205   204    1
    63   184   183    2
    64    17    18    1
    65   154   155    1
    66   154   156    1
    67   155   157    1
    68   182   183    1
    69   182   181    1
    70    21    18    1
    71   183   191   am
    72   132   131    1
    73   132   133   ar
    74    18    19    1
    75   135   133   ar
    76    30    29    1
    77   131   128    1
    78   127   128    1
    79    25    19   am
    80    25    26    1
    81   169   170    1
    82    29    26    1
    83    29    31    1
    84   191   192    1
    85    19    20    2
    86   175   174    1
    87   171   170    1
    88   171   172    2
    89   173   170    1
    90   173   174    1
    91   128   129    1
    92   192   193    1
    93   192   195    1
    94    26    27    1
    95   193   194    2
    96   198   196    1
    97   174   176    1
    98   129   130    2
    99   114   113    1
   100   115   113    1
   101    27    28    2
   102   180   179    2
   103   196   195    1
   104   196   197    1
   105    39    37    1
   106    36    37    1
   107    36    33    1
   108   178   177    1
   109   178   179    1
   110    32    33    1
   111   113   112    1
   112    37    38    1
   113   119   118    2
   114    33    34    1
   115   118   117    1
   116   107   106    1
   117   111   110    2
   118   112   109    1
   119    40    34   am
   120    40    41    1
   121    52    50   ar
   122    34    35    2
   123   123   122    1
   124   123   124    2
   125   110   109    1
   126   126   124    1
   127    44    41    1
   128   121   122    1
   129   121   120    1
   130   109   108    1
   131   106   105    1
   132   124   125    1
   133   117   120    1
   134   117   116    1
   135    41    42    1
   136    50    51   ar
   137    50    49    1
   138   105   104    1
   139    91    89    1
   140    90    89    1
   141    60    59   ar
   142   213   211    1
   143    45    42   am
   144    45    46    1
   145   207   208    1
   146    49    46    1
   147   103   102    2
   148   104   101    1
   149    42    43    2
   150    89    88    1
   151   101   102    1
   152   101   100    1
   153    59    61   ar
   154    59    58    1
   155    46    47    1
   156    95    94    2
   157   211   208    1
   158   211   212    1
   159    83    82   ar
   160    83    81   ar
   161   208   209    1
   162   100    94   am
   163    98    97    1
   164    58    57    1
   165    94    93    1
   166    82    80   ar
   167    96    97    1
   168    96    93    1
   169    47    48    2
   170    81    79   ar
   171    88    85    1
   172    87    86    2
   173    97    99    1
   174    57    54    1
   175   209   210    2
   176   209   214   am
   177    53    54    1
   178    93    92    1
   179    85    86    1
   180    85    84    1
   181    80    77   ar
   182    79    77   ar
   183    79    78   ar
   184    54    55    1
   185   214   220    1
   186   214   215    1
   187   220   219    1
   188    77    75   ar
   189    84    72   am
   190    78    76   ar
   191    62    55   am
   192    62    63    1
   193    55    56    2
   194    73    72    2
   195   219   218    1
   196   215   216    1
   197   215   218    1
   198    66    63    1
   199    66    67    1
   200    72    71    1
   201    75    76   ar
   202    75    74    1
   203   228   226    1
   204    69    67    1
   205    63    64    1
   206   216   217    2
   207    67    68    1
   208    74    71    1
   209    71    70    1
   210   227   226    1
   211   226   225    1
   212    64    65    2
   213   225   222    1
   214   222   221    1
   215   222   223    1
   216   223   224    2
