@<TRIPOS>MOLECULE
tmp/5tndC00.pdb
 163 164 0 0 0
SMALL
GASTEIGER

@<TRIPOS>ATOM
      1  N         22.1610    0.6450  -22.9780 N.3    39  PHE39      -0.1241
      2  CA        22.2870    1.3460  -21.7060 C.3    39  PHE39       0.1605
      3  C         20.9290    1.6120  -21.0750 C.2    39  PHE39       0.2264
      4  O         19.9650    2.0000  -21.7470 O.2    39  PHE39      -0.2867
      5  CB        23.0230    2.6820  -21.8900 C.3    39  PHE39       0.0534
      6  CG        22.9490    3.5670  -20.6700 C.ar   39  PHE39      -0.0203
      7  CD1       23.7980    3.3520  -19.6010 C.ar   39  PHE39      -0.0042
      8  CD2       21.9950    4.5760  -20.5730 C.ar   39  PHE39      -0.0042
      9  CE1       23.7140    4.1360  -18.4600 C.ar   39  PHE39      -0.0003
     10  CE2       21.8990    5.3600  -19.4210 C.ar   39  PHE39      -0.0003
     11  CZ        22.7540    5.1370  -18.3700 C.ar   39  PHE39      -0.0000
     12  N         21.4950    0.3330  -29.2320 N.3   105  ASP105     -0.1225
     13  CA        22.2980    1.2770  -28.4310 C.3   105  ASP105      0.1805
     14  C         23.6940    0.6880  -28.2250 C.2   105  ASP105      0.2597
     15  O         24.3280    0.2850  -29.2140 O.2   105  ASP105     -0.2718
     16  CB        21.5190    1.6160  -27.1660 C.3   105  ASP105      0.1424
     17  CG        22.1860    2.7110  -26.3500 C.2   105  ASP105      0.3668
     18  OD1       22.1620    3.8810  -26.7920 O.co2 105  ASP105     -0.2456
     19  OD2       22.7510    2.4020  -25.2760 O.co2 105  ASP105     -0.2456
     20  N         24.2280    0.6400  -26.9970 N.am  106  ILE106     -0.1980
     21  CA        25.5960    0.1590  -26.8250 C.3   106  ILE106      0.1595
     22  C         25.7270   -1.3240  -27.1310 C.2   106  ILE106      0.2287
     23  O         26.8490   -1.8260  -27.2220 O.2   106  ILE106     -0.2864
     24  CB        26.1560    0.4670  -25.4140 C.3   106  ILE106      0.0276
     25  CG1       25.4110   -0.2900  -24.3090 C.3   106  ILE106      0.0022
     26  CG2       26.1880    1.9880  -25.1550 C.3   106  ILE106      0.0022
     27  CD1       26.1030   -0.2400  -22.9480 C.3   106  ILE106      0.0001
     28  N         27.9000   -1.1970  -30.0500 N.3   109  TRP109     -0.1241
     29  CA        29.3140   -1.0270  -29.7410 C.3   109  TRP109      0.1605
     30  C         29.9370   -2.3570  -29.3620 C.2   109  TRP109      0.2264
     31  O         31.0840   -2.6460  -29.7170 O.2   109  TRP109     -0.2867
     32  CB        29.4850   -0.0490  -28.5770 C.3   109  TRP109      0.0550
     33  CG        28.8530    1.2930  -28.7420 C.ar  109  TRP109      0.0003
     34  CD1       28.1640    1.7720  -29.8230 C.ar  109  TRP109      0.0946
     35  CD2       28.8780    2.3500  -27.7800 C.ar  109  TRP109      0.0152
     36  NE1       27.7620    3.0710  -29.5890 N.ar  109  TRP109     -0.2442
     37  CE2       28.1880    3.4470  -28.3400 C.ar  109  TRP109      0.0810
     38  CE3       29.4180    2.4730  -26.4910 C.ar  109  TRP109      0.0012
     39  CZ2       28.0110    4.6500  -27.6500 C.ar  109  TRP109      0.0191
     40  CZ3       29.2550    3.6800  -25.8120 C.ar  109  TRP109      0.0001
     41  CH2       28.5470    4.7420  -26.3900 C.ar  109  TRP109      0.0015
     42  N         19.4610    2.4840  -33.2180 N.3   129  GLN129     -0.1231
     43  CA        19.5660    3.5720  -32.2380 C.3   129  GLN129      0.1698
     44  C         20.9120    3.6330  -31.5110 C.2   129  GLN129      0.2592
     45  O         20.9810    3.6170  -30.2810 O.2   129  GLN129     -0.2718
     46  CB        18.4180    3.5010  -31.2290 C.3   129  GLN129      0.0381
     47  CG        17.1370    4.1190  -31.7790 C.3   129  GLN129      0.0905
     48  CD        17.2500    5.6140  -32.0260 C.2   129  GLN129      0.2608
     49  OE1       16.8620    6.1120  -33.0970 O.2   129  GLN129     -0.2717
     50  NE2       17.7680    6.3450  -31.0420 N.am  129  GLN129     -0.0878
     51  N         21.9760    3.7690  -32.2880 N.am  130  ALA130     -0.1966
     52  CA        23.2480    4.2550  -31.7550 C.3   130  ALA130      0.1713
     53  C         24.2530    4.3710  -32.8840 C.2   130  ALA130      0.2458
     54  O         24.2110    3.5750  -33.8310 O.2   130  ALA130     -0.2730
     55  CB        23.8420    3.3400  -30.6850 C.3   130  ALA130      0.0333
     56  N         25.1810    5.3190  -32.8060 N.am  131  PRO131     -0.2727
     57  CA        26.3170    5.3030  -33.7330 C.3   131  PRO131      0.1402
     58  C         27.2440    4.1240  -33.4550 C.2   131  PRO131      0.2269
     59  O         27.4840    3.7540  -32.3050 O.2   131  PRO131     -0.2865
     60  CB        27.0190    6.6390  -33.4530 C.3   131  PRO131      0.0296
     61  CG        26.7010    6.9110  -32.0120 C.3   131  PRO131      0.0237
     62  CD        25.3010    6.3840  -31.7960 C.3   131  PRO131      0.0939
     63  N         21.4430   14.9180  -28.1020 N.3   150  LEU150     -0.1231
     64  CA        21.2540   13.4770  -27.9790 C.3   150  LEU150      0.1693
     65  C         22.3470   12.8230  -27.1430 C.2   150  LEU150      0.2591
     66  O         22.0720   11.8790  -26.3950 O.2   150  LEU150     -0.2718
     67  CB        21.2010   12.8320  -29.3690 C.3   150  LEU150      0.0284
     68  CG        19.9430   13.0400  -30.2200 C.3   150  LEU150      0.0019
     69  CD1       20.1460   12.4960  -31.6440 C.3   150  LEU150      0.0001
     70  CD2       18.7270   12.4030  -29.5580 C.3   150  LEU150      0.0001
     71  N         23.5960   13.2840  -27.2580 N.am  151  VAL151     -0.1980
     72  CA        24.6870   12.4880  -26.7000 C.3   151  VAL151      0.1595
     73  C         25.6170   13.2930  -25.8020 C.2   151  VAL151      0.2287
     74  O         26.7610   12.8890  -25.5810 O.2   151  VAL151     -0.2864
     75  CB        25.4910   11.7780  -27.8110 C.3   151  VAL151      0.0276
     76  CG1       24.5850   10.8480  -28.6180 C.3   151  VAL151      0.0022
     77  CG2       26.2040   12.7760  -28.7160 C.3   151  VAL151      0.0022
     78  N         25.4470   13.0790  -22.8200 N.3   153  HIS153     -0.1226
     79  CA        25.7370   12.1180  -21.7630 C.3   153  HIS153      0.1752
     80  C         27.0190   11.3310  -22.0230 C.2   153  HIS153      0.2596
     81  O         27.5710   10.7510  -21.0840 O.2   153  HIS153     -0.2718
     82  CB        24.5350   11.1640  -21.5550 C.3   153  HIS153      0.0759
     83  CG        24.2390   10.2620  -22.7190 C.ar  153  HIS153      0.0818
     84  ND1       23.4330   10.6420  -23.7730 N.ar  153  HIS153     -0.2268
     85  CD2       24.6190    8.9880  -22.9770 C.ar  153  HIS153      0.1154
     86  CE1       23.3330    9.6390  -24.6320 C.ar  153  HIS153      0.1986
     87  NE2       24.0490    8.6240  -24.1760 N.ar  153  HIS153     -0.2212
     88  N         27.5100   11.2840  -23.2700 N.am  154  PHE154     -0.1976
     89  CA        28.8070   10.6470  -23.5040 C.3   154  PHE154      0.1639
     90  C         29.8760   11.2670  -22.6150 C.2   154  PHE154      0.2290
     91  O         30.6800   10.5590  -22.0000 O.2   154  PHE154     -0.2864
     92  CB        29.2570   10.7860  -24.9660 C.3   154  PHE154      0.0560
     93  CG        28.5090    9.9280  -25.9590 C.ar  154  PHE154     -0.0200
     94  CD1       27.4240    9.1430  -25.5980 C.ar  154  PHE154     -0.0042
     95  CD2       28.8990    9.9400  -27.2850 C.ar  154  PHE154     -0.0042
     96  CE1       26.7460    8.3750  -26.5490 C.ar  154  PHE154     -0.0003
     97  CE2       28.2440    9.1670  -28.2340 C.ar  154  PHE154     -0.0003
     98  CZ        27.1560    8.3890  -27.8640 C.ar  154  PHE154     -0.0000
     99  N         16.4300   10.1750  -17.8490 N.3   179  PHE179     -0.1241
    100  CA        17.1820    9.7870  -19.0390 C.3   179  PHE179      0.1605
    101  C         16.2810    9.1200  -20.0700 C.2   179  PHE179      0.2264
    102  O         16.3300    9.4430  -21.2640 O.2   179  PHE179     -0.2867
    103  CB        18.3330    8.8440  -18.6560 C.3   179  PHE179      0.0534
    104  CG        19.2170    8.4840  -19.8190 C.ar  179  PHE179     -0.0203
    105  CD1       18.9120    7.4010  -20.6430 C.ar  179  PHE179     -0.0042
    106  CD2       20.3260    9.2560  -20.1190 C.ar  179  PHE179     -0.0042
    107  CE1       19.7030    7.0950  -21.7430 C.ar  179  PHE179     -0.0003
    108  CE2       21.1400    8.9490  -21.2080 C.ar  179  PHE179     -0.0003
    109  CZ        20.8220    7.8620  -22.0260 C.ar  179  PHE179     -0.0000
    110  N         14.7990   10.8390  -23.8350 N.3   183  HIS183     -0.1241
    111  CA        15.1720   10.2130  -25.0970 C.3   183  HIS183      0.1621
    112  C         13.9960    9.5080  -25.7680 C.2   183  HIS183      0.2264
    113  O         14.2050    8.7360  -26.7100 O.2   183  HIS183     -0.2867
    114  CB        16.3360    9.2300  -24.8750 C.3   183  HIS183      0.0745
    115  CG        17.6570    9.9050  -24.6580 C.ar  183  HIS183      0.0817
    116  ND1       18.0760   10.3560  -23.4230 N.ar  183  HIS183     -0.2268
    117  CD2       18.6440   10.2190  -25.5300 C.ar  183  HIS183      0.1154
    118  CE1       19.2690   10.9230  -23.5440 C.ar  183  HIS183      0.1986
    119  NE2       19.6320   10.8580  -24.8130 N.ar  183  HIS183     -0.2212
    120  N         31.2280    3.8360  -21.5390 N.3   215  TYR215     -0.1241
    121  CA        31.4890    5.1610  -22.0900 C.3   215  TYR215      0.1605
    122  C         32.9280    5.5880  -21.8490 C.2   215  TYR215      0.2264
    123  O         33.5220    6.2570  -22.6970 O.2   215  TYR215     -0.2867
    124  CB        30.5000    6.1690  -21.4820 C.3   215  TYR215      0.0534
    125  CG        29.0840    5.8190  -21.8560 C.ar  215  TYR215     -0.0201
    126  CD1       28.3690    4.8610  -21.1490 C.ar  215  TYR215     -0.0009
    127  CD2       28.4810    6.4040  -22.9590 C.ar  215  TYR215     -0.0009
    128  CE1       27.0970    4.5030  -21.5310 C.ar  215  TYR215      0.0417
    129  CE2       27.1980    6.0500  -23.3460 C.ar  215  TYR215      0.0417
    130  CZ        26.5200    5.1020  -22.6160 C.ar  215  TYR215      0.1957
    131  OH        25.2630    4.7330  -22.9860 O.3   215  TYR215     -0.2866
    132  N         17.5860    8.7660  -33.6830 N.3   248  MET248     -0.1245
    133  CA        18.7540    9.0490  -34.5120 C.3   248  MET248      0.1570
    134  C         18.3820    9.5270  -35.9080 C.2   248  MET248      0.2261
    135  O         19.2370   10.0780  -36.6040 O.2   248  MET248     -0.2867
    136  CB        19.6500    7.8060  -34.6320 C.3   248  MET248      0.0387
    137  CG        20.3240    7.3700  -33.3370 C.3   248  MET248      0.0595
    138  SD        21.5540    8.5550  -32.7470 S.3   248  MET248     -0.1393
    139  CE        22.9070    8.2390  -33.8390 C.3   248  MET248      0.0692
    140  N         14.0890    6.8370  -28.8970 N.3   273  HIS273     -0.1226
    141  CA        15.2030    5.9110  -28.7560 C.3   273  HIS273      0.1752
    142  C         14.7600    4.4860  -28.4550 C.2   273  HIS273      0.2596
    143  O         15.4260    3.5280  -28.8750 O.2   273  HIS273     -0.2718
    144  CB        16.1160    6.4090  -27.6400 C.3   273  HIS273      0.0759
    145  CG        17.2840    5.5220  -27.3750 C.ar  273  HIS273      0.0818
    146  ND1       18.3310    5.4040  -28.2590 N.ar  273  HIS273     -0.2268
    147  CD2       17.5790    4.7230  -26.3210 C.ar  273  HIS273      0.1154
    148  CE1       19.2250    4.5640  -27.7630 C.ar  273  HIS273      0.1986
    149  NE2       18.7950    4.1390  -26.5870 N.ar  273  HIS273     -0.2212
    150  N         13.6750    4.3150  -27.7200 N.am  274  TRP274     -0.1976
    151  CA        13.3730    3.0320  -27.0790 C.3   274  TRP274      0.1640
    152  C         12.3970    2.2280  -27.9320 C.2   274  TRP274      0.2290
    153  O         11.2740    1.9320  -27.5300 O.2   274  TRP274     -0.2864
    154  CB        12.8260    3.2720  -25.6680 C.3   274  TRP274      0.0576
    155  CG        13.6690    4.2730  -24.9070 C.ar  274  TRP274      0.0006
    156  CD1       13.4240    5.6030  -24.7720 C.ar  274  TRP274      0.0946
    157  CD2       14.9080    4.0200  -24.2180 C.ar  274  TRP274      0.0152
    158  NE1       14.4310    6.2060  -24.0490 N.ar  274  TRP274     -0.2442
    159  CE2       15.3450    5.2500  -23.6840 C.ar  274  TRP274      0.0810
    160  CE3       15.6740    2.8690  -23.9830 C.ar  274  TRP274      0.0012
    161  CZ2       16.5230    5.3760  -22.9460 C.ar  274  TRP274      0.0191
    162  CZ3       16.8440    2.9930  -23.2490 C.ar  274  TRP274      0.0001
    163  CH2       17.2560    4.2380  -22.7340 C.ar  274  TRP274      0.0015
@<TRIPOS>BOND
     1   135   134    2
     2   134   133    1
     3   136   133    1
     4   136   137    1
     5   133   132    1
     6   139   138    1
     7    54    53    2
     8    57    58    1
     9    57    60    1
    10    57    56    1
    11    58    59    2
    12    60    61    1
    13   137   138    1
    14    42    43    1
    15    49    48    2
    16    53    56   am
    17    53    52    1
    18    56    62    1
    19    51    52    1
    20    51    44   am
    21    43    44    1
    22    43    46    1
    23    48    47    1
    24    48    50   am
    25    61    62    1
    26    47    46    1
    27    52    55    1
    28    69    68    1
    29    44    45    2
    30    68    70    1
    31    68    67    1
    32    28    29    1
    33    34    36   ar
    34    34    33   ar
    35    29    30    1
    36    29    32    1
    37    31    30    2
    38    36    37   ar
    39    67    64    1
    40    12    13    1
    41    15    14    2
    42   140   141    1
    43   143   142    2
    44   141   142    1
    45   141   144    1
    46    33    32    1
    47    33    35   ar
    48    77    75    1
    49    76    75    1
    50   142   150   am
    51    13    14    1
    52    13    16    1
    53    37    35   ar
    54    37    39   ar
    55   146   148   ar
    56   146   145   ar
    57    97    98   ar
    58    97    95   ar
    59    14    20   am
    60    63    64    1
    61    64    65    1
    62   152   153    2
    63   152   151    1
    64    98    96   ar
    65    75    72    1
    66    35    38   ar
    67   148   149   ar
    68   150   151    1
    69    39    41   ar
    70   144   145    1
    71   145   147   ar
    72    95    93   ar
    73    71    65   am
    74    71    72    1
    75    23    22    2
    76    16    17    1
    77    65    66    2
    78    22    21    1
    79   151   154    1
    80    20    21    1
    81    21    24    1
    82    18    17   ar
    83   113   112    2
    84    72    73    1
    85   149   147   ar
    86    96    94   ar
    87    38    40   ar
    88    41    40   ar
    89    17    19   ar
    90    93    94   ar
    91    93    92    1
    92    73    74    2
    93   112   111    1
    94   154   155    1
    95   117   119   ar
    96   117   115   ar
    97    24    26    1
    98    24    25    1
    99   111   114    1
   100   111   110    1
   101    92    89    1
   102   155   156   ar
   103   155   157   ar
   104   114   115    1
   105   119   118   ar
   106   156   158   ar
   107   115   116   ar
   108    86    87   ar
   109    86    84   ar
   110    25    27    1
   111   157   160   ar
   112   157   159   ar
   113    87    85   ar
   114   158   159   ar
   115   160   162   ar
   116    84    83   ar
   117   159   161   ar
   118   118   116   ar
   119    89    88    1
   120    89    90    1
   121   129   127   ar
   122   129   130   ar
   123    88    80   am
   124   162   163   ar
   125   131   130    1
   126     1     2    1
   127    85    83   ar
   128   127   125   ar
   129   161   163   ar
   130    78    79    1
   131    83    82    1
   132   123   122    2
   133   130   128   ar
   134    90    91    2
   135   121   122    1
   136   121   120    1
   137   121   124    1
   138   109   107   ar
   139   109   108   ar
   140    80    79    1
   141    80    81    2
   142     5     2    1
   143     5     6    1
   144   125   124    1
   145   125   126   ar
   146    79    82    1
   147     4     3    2
   148   107   105   ar
   149     2     3    1
   150   128   126   ar
   151   102   101    2
   152   108   106   ar
   153     6     8   ar
   154     6     7   ar
   155   105   104   ar
   156     8    10   ar
   157   106   104   ar
   158   101   100    1
   159   104   103    1
   160     7     9   ar
   161    10    11   ar
   162   100   103    1
   163   100    99    1
   164     9    11   ar
