@<TRIPOS>MOLECULE
tmp/5tneA00.pdb
 167 167 0 0 0
SMALL
GASTEIGER

@<TRIPOS>ATOM
      1  N         21.9960   15.6710  -23.0380 N.3    39  PHE39      -0.1241
      2  CA        22.1590   16.3610  -21.7660 C.3    39  PHE39       0.1605
      3  C         20.8180   16.5990  -21.0880 C.2    39  PHE39       0.2264
      4  O         19.8300   16.9490  -21.7380 O.2    39  PHE39      -0.2867
      5  CB        22.8690   17.6990  -21.9850 C.3    39  PHE39       0.0534
      6  CG        22.8860   18.5780  -20.7700 C.ar   39  PHE39      -0.0203
      7  CD1       23.8820   18.4520  -19.8170 C.ar   39  PHE39      -0.0042
      8  CD2       21.8980   19.5390  -20.5780 C.ar   39  PHE39      -0.0042
      9  CE1       23.8880   19.2550  -18.6880 C.ar   39  PHE39      -0.0003
     10  CE2       21.8990   20.3360  -19.4470 C.ar   39  PHE39      -0.0003
     11  CZ        22.8910   20.2020  -18.5110 C.ar   39  PHE39      -0.0000
     12  N         21.3470   15.4110  -29.2290 N.3   105  ASP105     -0.1225
     13  CA        22.1010   16.3680  -28.3940 C.3   105  ASP105      0.1805
     14  C         23.5130   15.8040  -28.2220 C.2   105  ASP105      0.2597
     15  O         24.1320   15.4070  -29.2230 O.2   105  ASP105     -0.2718
     16  CB        21.3010   16.6230  -27.1070 C.3   105  ASP105      0.1424
     17  CG        21.9520   17.6500  -26.1830 C.2   105  ASP105      0.3668
     18  OD1       21.8150   18.8810  -26.4090 O.co2 105  ASP105     -0.2456
     19  OD2       22.5650   17.2140  -25.1930 O.co2 105  ASP105     -0.2456
     20  N         24.0610   15.7220  -27.0080 N.am  106  ILE106     -0.1980
     21  CA        25.4470   15.2620  -26.8810 C.3   106  ILE106      0.1595
     22  C         25.5960   13.7730  -27.1700 C.2   106  ILE106      0.2287
     23  O         26.7270   13.2680  -27.2480 O.2   106  ILE106     -0.2864
     24  CB        26.0160   15.6170  -25.4900 C.3   106  ILE106      0.0276
     25  CG1       25.2520   14.8920  -24.3830 C.3   106  ILE106      0.0022
     26  CG2       26.0160   17.1480  -25.2720 C.3   106  ILE106      0.0022
     27  CD1       25.8630   15.0630  -23.0120 C.3   106  ILE106      0.0001
     28  N         27.7560   13.8690  -30.1180 N.3   109  TRP109     -0.1241
     29  CA        29.1720   14.0370  -29.8020 C.3   109  TRP109      0.1605
     30  C         29.8010   12.7070  -29.4280 C.2   109  TRP109      0.2264
     31  O         30.9470   12.4060  -29.7980 O.2   109  TRP109     -0.2867
     32  CB        29.3310   14.9960  -28.6250 C.3   109  TRP109      0.0550
     33  CG        28.7130   16.3350  -28.7920 C.ar  109  TRP109      0.0003
     34  CD1       28.0370   16.8140  -29.8810 C.ar  109  TRP109      0.0946
     35  CD2       28.7330   17.3870  -27.8310 C.ar  109  TRP109      0.0152
     36  NE1       27.6230   18.1100  -29.6460 N.ar  109  TRP109     -0.2442
     37  CE2       28.0450   18.4850  -28.3950 C.ar  109  TRP109      0.0810
     38  CE3       29.2660   17.5110  -26.5420 C.ar  109  TRP109      0.0012
     39  CZ2       27.8860   19.6920  -27.7160 C.ar  109  TRP109      0.0191
     40  CZ3       29.1040   18.7220  -25.8690 C.ar  109  TRP109      0.0001
     41  CH2       28.4090   19.7830  -26.4550 C.ar  109  TRP109      0.0015
     42  N         19.3330   17.5350  -33.2740 N.3   129  GLN129     -0.1231
     43  CA        19.4210   18.6200  -32.2880 C.3   129  GLN129      0.1698
     44  C         20.7710   18.6800  -31.5650 C.2   129  GLN129      0.2592
     45  O         20.8560   18.6770  -30.3300 O.2   129  GLN129     -0.2718
     46  CB        18.2780   18.5290  -31.2780 C.3   129  GLN129      0.0381
     47  CG        16.9980   19.1760  -31.7970 C.3   129  GLN129      0.0905
     48  CD        17.1520   20.6670  -32.0640 C.2   129  GLN129      0.2608
     49  OE1       16.7790   21.1610  -33.1390 O.2   129  GLN129     -0.2717
     50  NE2       17.6710   21.4030  -31.0750 N.am  129  GLN129     -0.0878
     51  N         21.8190   18.7900  -32.3500 N.am  130  ALA130     -0.1966
     52  CA        23.1020   19.2630  -31.8330 C.3   130  ALA130      0.1713
     53  C         24.1000   19.3580  -32.9660 C.2   130  ALA130      0.2458
     54  O         24.0640   18.5410  -33.8900 O.2   130  ALA130     -0.2730
     55  CB        23.6890   18.3490  -30.7580 C.3   130  ALA130      0.0333
     56  N         25.0290   20.3080  -32.9080 N.am  131  PRO131     -0.2727
     57  CA        26.1380   20.2920  -33.8620 C.3   131  PRO131      0.1402
     58  C         27.1030   19.1540  -33.5610 C.2   131  PRO131      0.2269
     59  O         27.3700   18.8130  -32.4050 O.2   131  PRO131     -0.2865
     60  CB        26.7990   21.6640  -33.6670 C.3   131  PRO131      0.0296
     61  CG        26.4650   22.0470  -32.2640 C.3   131  PRO131      0.0237
     62  CD        25.1430   21.3980  -31.9230 C.3   131  PRO131      0.0939
     63  N         21.4270   29.9290  -28.3310 N.3   150  LEU150     -0.1231
     64  CA        21.2430   28.4900  -28.1960 C.3   150  LEU150      0.1693
     65  C         22.3680   27.8230  -27.4140 C.2   150  LEU150      0.2591
     66  O         22.1280   26.8050  -26.7510 O.2   150  LEU150     -0.2718
     67  CB        21.1360   27.8390  -29.5740 C.3   150  LEU150      0.0284
     68  CG        19.8130   28.0410  -30.3280 C.3   150  LEU150      0.0019
     69  CD1       19.9130   27.3910  -31.7020 C.3   150  LEU150      0.0001
     70  CD2       18.6330   27.4830  -29.5460 C.3   150  LEU150      0.0001
     71  N         23.6020   28.3200  -27.5110 N.am  151  VAL151     -0.1980
     72  CA        24.7040   27.5470  -26.9370 C.3   151  VAL151      0.1595
     73  C         25.5840   28.3390  -25.9780 C.2   151  VAL151      0.2287
     74  O         26.7310   27.9530  -25.7340 O.2   151  VAL151     -0.2864
     75  CB        25.5810   26.9140  -28.0380 C.3   151  VAL151      0.0276
     76  CG1       24.7630   25.9840  -28.9060 C.3   151  VAL151      0.0022
     77  CG2       26.2780   27.9880  -28.8640 C.3   151  VAL151      0.0022
     78  N         25.3530   28.1440  -22.9790 N.3   153  HIS153     -0.1226
     79  CA        25.6380   27.2180  -21.8940 C.3   153  HIS153      0.1752
     80  C         26.9150   26.4120  -22.1350 C.2   153  HIS153      0.2596
     81  O         27.4410   25.8490  -21.1770 O.2   153  HIS153     -0.2718
     82  CB        24.4510   26.2690  -21.6500 C.3   153  HIS153      0.0759
     83  CG        24.1750   25.3240  -22.7800 C.ar  153  HIS153      0.0818
     84  ND1       23.4150   25.6770  -23.8730 N.ar  153  HIS153     -0.2268
     85  CD2       24.5510   24.0380  -22.9820 C.ar  153  HIS153      0.1154
     86  CE1       23.3310   24.6480  -24.6980 C.ar  153  HIS153      0.1986
     87  NE2       24.0150   23.6420  -24.1840 N.ar  153  HIS153     -0.2212
     88  N         27.4140   26.3300  -23.3830 N.am  154  PHE154     -0.1976
     89  CA        28.7260   25.7140  -23.6220 C.3   154  PHE154      0.1639
     90  C         29.7830   26.3480  -22.7310 C.2   154  PHE154      0.2290
     91  O         30.6000   25.6520  -22.1200 O.2   154  PHE154     -0.2864
     92  CB        29.1790   25.8750  -25.0820 C.3   154  PHE154      0.0560
     93  CG        28.4510   25.0110  -26.0880 C.ar  154  PHE154     -0.0200
     94  CD1       27.3280   24.2770  -25.7490 C.ar  154  PHE154     -0.0042
     95  CD2       28.9120   24.9590  -27.4050 C.ar  154  PHE154     -0.0042
     96  CE1       26.6660   23.5130  -26.7050 C.ar  154  PHE154     -0.0003
     97  CE2       28.2690   24.1750  -28.3620 C.ar  154  PHE154     -0.0003
     98  CZ        27.1420   23.4550  -28.0070 C.ar  154  PHE154     -0.0000
     99  N         16.3530   25.2080  -17.9450 N.3   179  PHE179     -0.1241
    100  CA        17.0880   24.8620  -19.1610 C.3   179  PHE179      0.1605
    101  C         16.1990   24.1260  -20.1580 C.2   179  PHE179      0.2264
    102  O         16.2540   24.3590  -21.3680 O.2   179  PHE179     -0.2867
    103  CB        18.2970   24.0000  -18.7860 C.3   179  PHE179      0.0534
    104  CG        19.1590   23.6200  -19.9480 C.ar  179  PHE179     -0.0203
    105  CD1       18.8730   22.4920  -20.7060 C.ar  179  PHE179     -0.0042
    106  CD2       20.2770   24.3730  -20.2650 C.ar  179  PHE179     -0.0042
    107  CE1       19.6690   22.1420  -21.7740 C.ar  179  PHE179     -0.0003
    108  CE2       21.0780   24.0240  -21.3300 C.ar  179  PHE179     -0.0003
    109  CZ        20.7740   22.9080  -22.0870 C.ar  179  PHE179     -0.0000
    110  N         14.6600   25.9260  -23.8630 N.3   183  HIS183     -0.1241
    111  CA        15.0310   25.3250  -25.1360 C.3   183  HIS183      0.1621
    112  C         13.8600   24.5970  -25.7880 C.2   183  HIS183      0.2264
    113  O         14.0640   23.8120  -26.7210 O.2   183  HIS183     -0.2867
    114  CB        16.2130   24.3720  -24.9320 C.3   183  HIS183      0.0745
    115  CG        17.5110   25.0750  -24.6590 C.ar  183  HIS183      0.0817
    116  ND1       18.4420   25.3320  -25.6440 N.ar  183  HIS183     -0.2268
    117  CD2       18.0270   25.5800  -23.5120 C.ar  183  HIS183      0.1154
    118  CE1       19.4740   25.9740  -25.1170 C.ar  183  HIS183      0.1986
    119  NE2       19.2480   26.1350  -23.8240 N.ar  183  HIS183     -0.2212
    120  N         31.0810   18.9430  -21.6260 N.3   215  TYR215     -0.1241
    121  CA        31.3500   20.2570  -22.2000 C.3   215  TYR215      0.1605
    122  C         32.7890   20.6860  -21.9640 C.2   215  TYR215      0.2264
    123  O         33.3620   21.3880  -22.7970 O.2   215  TYR215     -0.2867
    124  CB        30.3710   21.2930  -21.6290 C.3   215  TYR215      0.0534
    125  CG        28.9580   20.9630  -22.0450 C.ar  215  TYR215     -0.0201
    126  CD1       28.2330   19.9930  -21.3700 C.ar  215  TYR215     -0.0009
    127  CD2       28.3730   21.5760  -23.1470 C.ar  215  TYR215     -0.0009
    128  CE1       26.9520   19.6500  -21.7670 C.ar  215  TYR215      0.0417
    129  CE2       27.0690   21.2400  -23.5510 C.ar  215  TYR215      0.0417
    130  CZ        26.3820   20.2730  -22.8480 C.ar  215  TYR215      0.1957
    131  OH        25.1100   19.9150  -23.2210 O.3   215  TYR215     -0.2866
    132  N         14.2780   27.1480  -29.5820 N.3   246  GLY246     -0.1225
    133  CA        15.2300   26.1370  -29.1640 C.3   246  GLY246      0.1811
    134  C         15.6760   25.1780  -30.2540 C.2   246  GLY246      0.2280
    135  O         16.5960   24.3710  -30.0160 O.2   246  GLY246     -0.2866
    136  N         17.4460   23.8480  -33.7850 N.3   248  MET248     -0.1245
    137  CA        18.6090   24.1460  -34.6160 C.3   248  MET248      0.1570
    138  C         18.2250   24.6280  -36.0080 C.2   248  MET248      0.2261
    139  O         19.0730   25.1890  -36.7090 O.2   248  MET248     -0.2867
    140  CB        19.5040   22.9060  -34.7610 C.3   248  MET248      0.0387
    141  CG        20.1030   22.3710  -33.4790 C.3   248  MET248      0.0595
    142  SD        21.2410   23.5290  -32.7120 S.3   248  MET248     -0.1393
    143  CE        22.4640   23.7430  -33.9770 C.3   248  MET248      0.0692
    144  N         13.9450   21.9030  -28.8900 N.3   273  HIS273     -0.1226
    145  CA        15.0850   20.9970  -28.7680 C.3   273  HIS273      0.1752
    146  C         14.6630   19.5650  -28.4610 C.2   273  HIS273      0.2596
    147  O         15.3180   18.6180  -28.9150 O.2   273  HIS273     -0.2718
    148  CB        16.0300   21.4940  -27.6760 C.3   273  HIS273      0.0759
    149  CG        17.1850   20.5780  -27.4210 C.ar  273  HIS273      0.0818
    150  ND1       18.2680   20.5060  -28.2690 N.ar  273  HIS273     -0.2268
    151  CD2       17.4230   19.6890  -26.4260 C.ar  273  HIS273      0.1154
    152  CE1       19.1270   19.6130  -27.8070 C.ar  273  HIS273      0.1986
    153  NE2       18.6400   19.1050  -26.6870 N.ar  273  HIS273     -0.2212
    154  N         13.5750   19.3810  -27.7220 N.am  274  TRP274     -0.1976
    155  CA        13.2800   18.0890  -27.0960 C.3   274  TRP274      0.1640
    156  C         12.2820   17.3180  -27.9510 C.2   274  TRP274      0.2290
    157  O         11.1490   17.0670  -27.5490 O.2   274  TRP274     -0.2864
    158  CB        12.7590   18.3030  -25.6720 C.3   274  TRP274      0.0576
    159  CG        13.5790   19.3320  -24.9220 C.ar  274  TRP274      0.0006
    160  CD1       13.3000   20.6740  -24.7790 C.ar  274  TRP274      0.0946
    161  CD2       14.8230   19.1050  -24.2520 C.ar  274  TRP274      0.0152
    162  NE1       14.3020   21.2880  -24.0550 N.ar  274  TRP274     -0.2442
    163  CE2       15.2450   20.3470  -23.7150 C.ar  274  TRP274      0.0810
    164  CE3       15.6170   17.9710  -24.0410 C.ar  274  TRP274      0.0012
    165  CZ2       16.4330   20.4870  -22.9920 C.ar  274  TRP274      0.0191
    166  CZ3       16.8010   18.1070  -23.3160 C.ar  274  TRP274      0.0001
    167  CH2       17.1890   19.3480  -22.7920 C.ar  274  TRP274      0.0015
@<TRIPOS>BOND
     1   139   138    2
     2   138   137    1
     3   140   137    1
     4   140   141    1
     5   137   136    1
     6   143   142    1
     7    54    53    2
     8    57    60    1
     9    57    58    1
    10    57    56    1
    11    60    61    1
    12    58    59    2
    13   141   142    1
    14    42    43    1
    15    49    48    2
    16    53    56   am
    17    53    52    1
    18    56    62    1
    19    51    52    1
    20    51    44   am
    21    43    44    1
    22    43    46    1
    23    61    62    1
    24    48    47    1
    25    48    50   am
    26    52    55    1
    27    47    46    1
    28    69    68    1
    29    44    45    2
    30    68    67    1
    31    68    70    1
    32   134   135    2
    33   134   133    1
    34    28    29    1
    35    34    36   ar
    36    34    33   ar
    37    29    30    1
    38    29    32    1
    39    31    30    2
    40    36    37   ar
    41   132   133    1
    42    67    64    1
    43    12    13    1
    44    15    14    2
    45   147   146    2
    46    76    75    1
    47   144   145    1
    48    77    75    1
    49    33    32    1
    50    33    35   ar
    51   145   146    1
    52   145   148    1
    53   146   154   am
    54    37    35   ar
    55    37    39   ar
    56    13    14    1
    57    13    16    1
    58    97    98   ar
    59    97    95   ar
    60    63    64    1
    61   150   152   ar
    62   150   149   ar
    63    14    20   am
    64    64    65    1
    65    75    72    1
    66    98    96   ar
    67   156   157    2
    68   156   155    1
    69    35    38   ar
    70   152   153   ar
    71   154   155    1
    72    39    41   ar
    73   148   149    1
    74    71    65   am
    75    71    72    1
    76   149   151   ar
    77    65    66    2
    78    95    93   ar
    79    23    22    2
    80    22    21    1
    81    16    17    1
    82   155   158    1
    83    20    21    1
    84    72    73    1
    85    21    24    1
    86   113   112    2
    87    96    94   ar
    88   153   151   ar
    89    38    40   ar
    90    41    40   ar
    91    18    17   ar
    92    17    19   ar
    93    93    94   ar
    94    93    92    1
    95    73    74    2
    96   112   111    1
    97   158   159    1
    98   116   118   ar
    99   116   115   ar
   100    24    26    1
   101    24    25    1
   102   111   114    1
   103   111   110    1
   104   118   119   ar
   105    92    89    1
   106   114   115    1
   107   159   160   ar
   108   159   161   ar
   109   160   162   ar
   110    86    87   ar
   111    86    84   ar
   112   115   117   ar
   113    25    27    1
   114   161   164   ar
   115   161   163   ar
   116    87    85   ar
   117   162   163   ar
   118   164   166   ar
   119    84    83   ar
   120   119   117   ar
   121   163   165   ar
   122    89    88    1
   123    89    90    1
   124   129   127   ar
   125   129   130   ar
   126    88    80   am
   127   166   167   ar
   128   131   130    1
   129   127   125   ar
   130     1     2    1
   131   165   167   ar
   132    85    83   ar
   133    78    79    1
   134   130   128   ar
   135   123   122    2
   136    83    82    1
   137    90    91    2
   138   121   122    1
   139   121   124    1
   140   121   120    1
   141    80    79    1
   142    80    81    2
   143   109   107   ar
   144   109   108   ar
   145   125   124    1
   146   125   126   ar
   147     5     2    1
   148     5     6    1
   149    79    82    1
   150   107   105   ar
   151   128   126   ar
   152     2     3    1
   153     4     3    2
   154   102   101    2
   155   108   106   ar
   156     6     8   ar
   157     6     7   ar
   158   105   104   ar
   159     8    10   ar
   160   106   104   ar
   161   101   100    1
   162   104   103    1
   163     7     9   ar
   164    10    11   ar
   165   100   103    1
   166   100    99    1
   167     9    11   ar
