@<TRIPOS>MOLECULE
tmp/5tngB00.pdb
 222 224 0 0 0
SMALL
GASTEIGER

@<TRIPOS>ATOM
      1  N         29.7260   46.6080  -13.9420 N.3    39  PHE39      -0.1241
      2  CA        29.1520   45.4460  -13.2750 C.3    39  PHE39       0.1605
      3  C         30.1410   44.8170  -12.3050 C.2    39  PHE39       0.2264
      4  O         31.3390   44.7230  -12.5860 O.2    39  PHE39      -0.2867
      5  CB        28.7040   44.4020  -14.3100 C.3    39  PHE39       0.0534
      6  CG        28.3790   43.0690  -13.7040 C.ar   39  PHE39      -0.0203
      7  CD1       27.1240   42.8190  -13.1640 C.ar   39  PHE39      -0.0042
      8  CD2       29.3560   42.0730  -13.6200 C.ar   39  PHE39      -0.0042
      9  CE1       26.8330   41.5910  -12.5710 C.ar   39  PHE39      -0.0003
     10  CE2       29.0790   40.8520  -13.0280 C.ar   39  PHE39      -0.0003
     11  CZ        27.8090   40.6060  -12.4980 C.ar   39  PHE39      -0.0000
     12  N         32.8110   49.5510  -18.4530 N.3   105  ASP105     -0.1225
     13  CA        31.8760   48.4030  -18.5360 C.3   105  ASP105      0.1805
     14  C         30.4580   48.9560  -18.7170 C.2   105  ASP105      0.2597
     15  O         30.2600   49.8320  -19.5740 O.2   105  ASP105     -0.2718
     16  CB        32.1330   47.5190  -17.3140 C.3   105  ASP105      0.1424
     17  CG        31.3650   46.1960  -17.3680 C.2   105  ASP105      0.3668
     18  OD1       31.8340   45.2250  -18.0160 O.co2 105  ASP105     -0.2456
     19  OD2       30.3030   46.1380  -16.7230 O.co2 105  ASP105     -0.2456
     20  N         29.4490   48.5190  -17.9480 N.am  106  ILE106     -0.1980
     21  CA        28.0850   48.9980  -18.1990 C.3   106  ILE106      0.1595
     22  C         27.8880   50.4620  -17.8160 C.2   106  ILE106      0.2287
     23  O         26.8360   51.0430  -18.1220 O.2   106  ILE106     -0.2864
     24  CB        27.0340   48.1150  -17.4900 C.3   106  ILE106      0.0276
     25  CG1       27.2040   48.2060  -15.9730 C.3   106  ILE106      0.0022
     26  CG2       27.1770   46.6580  -17.9720 C.3   106  ILE106      0.0022
     27  CD1       26.0590   47.5780  -15.1720 C.3   106  ILE106      0.0001
     28  N         27.0510   51.7910  -21.1120 N.3   109  TRP109     -0.1241
     29  CA        25.6590   51.5780  -21.5010 C.3   109  TRP109      0.1605
     30  C         24.7500   52.6160  -20.8720 C.2   109  TRP109      0.2264
     31  O         23.7830   53.0720  -21.4910 O.2   109  TRP109     -0.2867
     32  CB        25.2020   50.1870  -21.0670 C.3   109  TRP109      0.0550
     33  CG        26.0140   49.0530  -21.5730 C.ar  109  TRP109      0.0003
     34  CD1       27.1300   49.1020  -22.3780 C.ar  109  TRP109      0.0946
     35  CD2       25.7580   47.6730  -21.3210 C.ar  109  TRP109      0.0152
     36  NE1       27.5760   47.8280  -22.6350 N.ar  109  TRP109     -0.2442
     37  CE2       26.7520   46.9330  -21.9920 C.ar  109  TRP109      0.0810
     38  CE3       24.7870   46.9900  -20.5760 C.ar  109  TRP109      0.0012
     39  CZ2       26.7980   45.5330  -21.9510 C.ar  109  TRP109      0.0191
     40  CZ3       24.8270   45.6060  -20.5370 C.ar  109  TRP109      0.0001
     41  CH2       25.8270   44.8870  -21.2160 C.ar  109  TRP109      0.0015
     42  N         36.4930   49.5030  -21.8500 N.3   129  GLN129     -0.1231
     43  CA        36.1440   48.1030  -21.5810 C.3   129  GLN129      0.1698
     44  C         34.6300   47.8650  -21.5440 C.2   129  GLN129      0.2592
     45  O         34.0820   47.3200  -20.5840 O.2   129  GLN129     -0.2718
     46  CB        36.8110   47.6020  -20.2930 C.3   129  GLN129      0.0381
     47  CG        38.2990   47.1980  -20.4870 C.3   129  GLN129      0.0905
     48  CD        38.5020   45.9790  -21.3910 C.2   129  GLN129      0.2608
     49  OE1       39.3660   45.9890  -22.2750 O.2   129  GLN129     -0.2717
     50  NE2       37.7300   44.9230  -21.1590 N.am  129  GLN129     -0.0878
     51  N         33.9610   48.2590  -22.6350 N.am  130  ALA130     -0.1966
     52  CA        32.6260   47.7310  -22.9340 C.3   130  ALA130      0.1713
     53  C         32.1790   48.1910  -24.3110 C.2   130  ALA130      0.2458
     54  O         32.4700   49.3230  -24.7090 O.2   130  ALA130     -0.2730
     55  CB        31.5700   48.1640  -21.9150 C.3   130  ALA130      0.0333
     56  N         31.4650   47.3540  -25.0560 N.am  131  PRO131     -0.2727
     57  CA        30.8550   47.8290  -26.2960 C.3   131  PRO131      0.1402
     58  C         29.7270   48.7810  -25.9700 C.2   131  PRO131      0.2269
     59  O         28.9770   48.5760  -25.0100 O.2   131  PRO131     -0.2865
     60  CB        30.3170   46.5460  -26.9430 C.3   131  PRO131      0.0296
     61  CG        29.9590   45.6770  -25.7490 C.3   131  PRO131      0.0237
     62  CD        31.0450   45.9810  -24.7140 C.3   131  PRO131      0.0939
     63  N         27.3260   39.5000  -32.8040 N.3   139  ARG139     -0.1231
     64  CA        28.3110   38.6780  -33.4860 C.3   139  ARG139      0.1694
     65  C         29.3160   38.0360  -32.5420 C.2   139  ARG139      0.2592
     66  O         30.0100   37.1010  -32.9590 O.2   139  ARG139     -0.2718
     67  CB        29.0670   39.5180  -34.5300 C.3   139  ARG139      0.0321
     68  CG        28.1990   39.9650  -35.7030 C.3   139  ARG139      0.0489
     69  CD        28.9910   40.7780  -36.7190 C.3   139  ARG139      0.2205
     70  NE        30.3990   40.3960  -36.7370 N.pl3 139  ARG139     -0.0865
     71  CZ        31.3900   41.1780  -36.3160 C.cat 139  ARG139      0.5346
     72  NH1       31.1260   42.3990  -35.8630 N.pl3 139  ARG139      0.1354
     73  NH2       32.6450   40.7480  -36.3640 N.pl3 139  ARG139      0.1354
     74  N         29.4080   38.5080  -31.2950 N.am  140  PHE140     -0.1963
     75  CA        30.4000   37.9780  -30.3610 C.3   140  PHE140      0.1756
     76  C         30.1550   36.4840  -30.1610 C.2   140  PHE140      0.2461
     77  O         29.0380   36.0940  -29.8200 O.2   140  PHE140     -0.2730
     78  CB        30.3160   38.6810  -29.0040 C.3   140  PHE140      0.0574
     79  CG        30.5700   40.1690  -29.0460 C.ar  140  PHE140     -0.0200
     80  CD1       31.3410   40.7420  -30.0390 C.ar  140  PHE140     -0.0042
     81  CD2       30.0470   40.9810  -28.0500 C.ar  140  PHE140     -0.0042
     82  CE1       31.5750   42.1150  -30.0510 C.ar  140  PHE140     -0.0003
     83  CE2       30.2810   42.3440  -28.0460 C.ar  140  PHE140     -0.0003
     84  CZ        31.0480   42.9140  -29.0500 C.ar  140  PHE140     -0.0000
     85  N         31.1570   35.6300  -30.3590 N.am  141  PRO141     -0.2727
     86  CA        30.9390   34.1830  -30.2260 C.3   141  PRO141      0.1402
     87  C         30.6620   33.7260  -28.7970 C.2   141  PRO141      0.2269
     88  O         31.2390   34.2240  -27.8270 O.2   141  PRO141     -0.2865
     89  CB        32.2600   33.5930  -30.7400 C.3   141  PRO141      0.0296
     90  CG        32.6890   34.5720  -31.7700 C.3   141  PRO141      0.0237
     91  CD        32.3710   35.9180  -31.1400 C.3   141  PRO141      0.0939
     92  N         34.3410   35.6480  -23.3100 N.3   150  LEU150     -0.1231
     93  CA        34.2040   36.7890  -22.4150 C.3   150  LEU150      0.1693
     94  C         32.7900   37.3410  -22.3650 C.2   150  LEU150      0.2591
     95  O         32.5350   38.2540  -21.5710 O.2   150  LEU150     -0.2718
     96  CB        35.1380   37.9210  -22.8450 C.3   150  LEU150      0.0284
     97  CG        36.6370   37.5980  -22.8320 C.3   150  LEU150      0.0019
     98  CD1       37.4340   38.7130  -23.5000 C.3   150  LEU150      0.0001
     99  CD2       37.0980   37.3930  -21.4020 C.3   150  LEU150      0.0001
    100  N         31.8820   36.8290  -23.1950 N.am  151  VAL151     -0.1980
    101  CA        30.5980   37.4750  -23.4290 C.3   151  VAL151      0.1595
    102  C         29.4060   36.5960  -23.0940 C.2   151  VAL151      0.2287
    103  O         28.2770   37.0830  -23.1800 O.2   151  VAL151     -0.2864
    104  CB        30.4750   37.9730  -24.8860 C.3   151  VAL151      0.0276
    105  CG1       31.4160   39.1390  -25.1280 C.3   151  VAL151      0.0022
    106  CG2       30.7840   36.8440  -25.8450 C.3   151  VAL151      0.0022
    107  N         28.2300   35.7640  -20.4160 N.3   153  HIS153     -0.1226
    108  CA        27.4670   36.3260  -19.3120 C.3   153  HIS153      0.1752
    109  C         26.3380   37.2360  -19.7820 C.2   153  HIS153      0.2596
    110  O         25.3770   37.4160  -19.0320 O.2   153  HIS153     -0.2718
    111  CB        28.3860   37.0890  -18.3480 C.3   153  HIS153      0.0759
    112  CG        28.9300   38.3650  -18.9060 C.ar  153  HIS153      0.0818
    113  ND1       30.0380   38.4030  -19.7270 N.ar  153  HIS153     -0.2268
    114  CD2       28.5260   39.6530  -18.7520 C.ar  153  HIS153      0.1154
    115  CE1       30.2860   39.6580  -20.0650 C.ar  153  HIS153      0.1986
    116  NE2       29.3850   40.4350  -19.4850 N.ar  153  HIS153     -0.2212
    117  N         26.4120   37.8040  -20.9970 N.am  154  PHE154     -0.1976
    118  CA        25.2650   38.5620  -21.5100 C.3   154  PHE154      0.1639
    119  C         23.9920   37.7310  -21.4140 C.2   154  PHE154      0.2290
    120  O         22.9510   38.2060  -20.9450 O.2   154  PHE154     -0.2864
    121  CB        25.4570   38.9770  -22.9670 C.3   154  PHE154      0.0560
    122  CG        26.4370   40.1050  -23.1810 C.ar  154  PHE154     -0.0200
    123  CD1       27.2160   40.5900  -22.1510 C.ar  154  PHE154     -0.0042
    124  CD2       26.5390   40.6960  -24.4260 C.ar  154  PHE154     -0.0042
    125  CE1       28.1100   41.6360  -22.3710 C.ar  154  PHE154     -0.0003
    126  CE2       27.4190   41.7470  -24.6530 C.ar  154  PHE154     -0.0003
    127  CZ        28.2100   42.2130  -23.6170 C.ar  154  PHE154     -0.0000
    128  N         22.9990   36.5280  -17.6440 N.3   157  PHE157     -0.1241
    129  CA        22.3960   37.5910  -16.8490 C.3   157  PHE157      0.1605
    130  C         21.0390   38.0300  -17.4070 C.2   157  PHE157      0.2264
    131  O         20.1570   38.4460  -16.6380 O.2   157  PHE157     -0.2867
    132  CB        23.3480   38.7960  -16.7830 C.3   157  PHE157      0.0534
    133  CG        24.6690   38.5200  -16.0910 C.ar  157  PHE157     -0.0203
    134  CD1       24.8830   37.3390  -15.3730 C.ar  157  PHE157     -0.0042
    135  CD2       25.6920   39.4650  -16.1450 C.ar  157  PHE157     -0.0042
    136  CE1       26.1090   37.0860  -14.7370 C.ar  157  PHE157     -0.0003
    137  CE2       26.9150   39.2390  -15.5120 C.ar  157  PHE157     -0.0003
    138  CZ        27.1250   38.0380  -14.8020 C.ar  157  PHE157     -0.0000
    139  N         34.2400   35.5900  -11.8180 N.3   179  PHE179     -0.1241
    140  CA        34.1590   36.4330  -13.0090 C.3   179  PHE179      0.1605
    141  C         35.1800   37.5540  -12.9770 C.2   179  PHE179      0.2264
    142  O         35.5640   38.0460  -14.0390 O.2   179  PHE179     -0.2867
    143  CB        32.7380   36.9910  -13.2620 C.3   179  PHE179      0.0534
    144  CG        32.2290   37.9940  -12.2530 C.ar  179  PHE179     -0.0203
    145  CD1       32.7670   39.2760  -12.1590 C.ar  179  PHE179     -0.0042
    146  CD2       31.1230   37.6920  -11.4770 C.ar  179  PHE179     -0.0042
    147  CE1       32.2680   40.1970  -11.2560 C.ar  179  PHE179     -0.0003
    148  CE2       30.6080   38.6090  -10.5790 C.ar  179  PHE179     -0.0003
    149  CZ        31.1820   39.8660  -10.4640 C.ar  179  PHE179     -0.0000
    150  N         37.9840   37.5250  -16.2100 N.3   183  HIS183     -0.1241
    151  CA        38.1400   38.6930  -17.0600 C.3   183  HIS183      0.1621
    152  C         39.3910   39.4930  -16.7350 C.2   183  HIS183      0.2264
    153  O         39.5510   40.5900  -17.2690 O.2   183  HIS183     -0.2867
    154  CB        36.9030   39.5760  -16.9510 C.3   183  HIS183      0.0745
    155  CG        35.7140   38.9750  -17.6260 C.ar  183  HIS183      0.0817
    156  ND1       35.0300   37.9020  -17.0960 N.ar  183  HIS183     -0.2268
    157  CD2       35.1220   39.2560  -18.8120 C.ar  183  HIS183      0.1154
    158  CE1       34.0480   37.5610  -17.9160 C.ar  183  HIS183      0.1986
    159  NE2       34.0870   38.3630  -18.9670 N.ar  183  HIS183     -0.2212
    160  N         21.2450   43.7920  -17.7860 N.3   215  TYR215     -0.1241
    161  CA        21.3750   42.8930  -18.9360 C.3   215  TYR215      0.1605
    162  C         20.0180   42.4720  -19.4950 C.2   215  TYR215      0.2264
    163  O         19.8800   42.2670  -20.7100 O.2   215  TYR215     -0.2867
    164  CB        22.2190   41.6750  -18.5370 C.3   215  TYR215      0.0534
    165  CG        23.6310   42.0880  -18.1650 C.ar  215  TYR215     -0.0201
    166  CD1       23.9180   42.5860  -16.8930 C.ar  215  TYR215     -0.0009
    167  CD2       24.6690   42.0160  -19.0920 C.ar  215  TYR215     -0.0009
    168  CE1       25.2070   42.9980  -16.5560 C.ar  215  TYR215      0.0417
    169  CE2       25.9770   42.4220  -18.7550 C.ar  215  TYR215      0.0417
    170  CZ        26.2290   42.9110  -17.4940 C.ar  215  TYR215      0.1957
    171  OH        27.5100   43.3160  -17.1430 O.3   215  TYR215     -0.2866
    172  N         41.0380   38.9850  -20.9560 N.3   246  GLY246     -0.1210
    173  CA        39.9320   39.8010  -20.4870 C.3   246  GLY246      0.1956
    174  C         39.7960   41.1400  -21.1830 C.2   246  GLY246      0.2612
    175  O         38.7660   41.8170  -21.0120 O.2   246  GLY246     -0.2717
    176  N         40.8080   41.5600  -21.9430 N.am  247  GLY247     -0.1942
    177  CA        40.7540   42.8560  -22.5860 C.3   247  GLY247      0.2014
    178  C         40.0070   42.8260  -23.9090 C.2   247  GLY247      0.2638
    179  O         39.9270   41.8080  -24.5970 O.2   247  GLY247     -0.2714
    180  N         39.4670   43.9820  -24.2810 N.am  248  MET248     -0.1976
    181  CA        38.7610   44.0900  -25.5500 C.3   248  MET248      0.1605
    182  C         39.6660   44.3870  -26.7330 C.2   248  MET248      0.2287
    183  O         39.1960   44.3300  -27.8740 O.2   248  MET248     -0.2864
    184  CB        37.6690   45.1480  -25.4460 C.3   248  MET248      0.0413
    185  CG        36.4810   44.5780  -24.6980 C.3   248  MET248      0.0598
    186  SD        35.1900   45.7530  -24.3420 S.3   248  MET248     -0.1393
    187  CE        34.8210   46.3820  -25.9720 C.3   248  MET248      0.0692
    188  N         38.8460   46.3460  -30.3520 N.3   251  PHE251     -0.1241
    189  CA        37.4130   46.5410  -30.5790 C.3   251  PHE251      0.1605
    190  C         36.9430   47.8880  -30.0450 C.2   251  PHE251      0.2264
    191  O         36.1020   48.5490  -30.6690 O.2   251  PHE251     -0.2867
    192  CB        36.5900   45.4190  -29.9470 C.3   251  PHE251      0.0534
    193  CG        35.1050   45.5690  -30.1860 C.ar  251  PHE251     -0.0203
    194  CD1       34.3330   46.3690  -29.3610 C.ar  251  PHE251     -0.0042
    195  CD2       34.4960   44.9380  -31.2580 C.ar  251  PHE251     -0.0042
    196  CE1       32.9710   46.5260  -29.5870 C.ar  251  PHE251     -0.0003
    197  CE2       33.1410   45.0830  -31.4870 C.ar  251  PHE251     -0.0003
    198  CZ        32.3810   45.8840  -30.6540 C.ar  251  PHE251     -0.0000
    199  N         40.4010   43.3070  -18.0770 N.3   273  HIS273     -0.1226
    200  CA        39.1770   44.1040  -18.0740 C.3   273  HIS273      0.1752
    201  C         39.1790   45.1860  -17.0020 C.2   273  HIS273      0.2596
    202  O         38.6310   46.2760  -17.2130 O.2   273  HIS273     -0.2718
    203  CB        37.9770   43.1850  -17.8530 C.3   273  HIS273      0.0759
    204  CG        36.6810   43.9130  -17.6840 C.ar  273  HIS273      0.0818
    205  ND1       36.0500   44.5590  -18.7270 N.ar  273  HIS273     -0.2268
    206  CD2       35.8810   44.0710  -16.6000 C.ar  273  HIS273      0.1154
    207  CE1       34.9230   45.0970  -18.2890 C.ar  273  HIS273      0.1986
    208  NE2       34.7950   44.8100  -17.0040 N.ar  273  HIS273     -0.2212
    209  N         39.7560   44.8880  -15.8410 N.am  274  TRP274     -0.1976
    210  CA        39.5450   45.6980  -14.6390 C.3   274  TRP274      0.1640
    211  C         40.5870   46.8130  -14.5550 C.2   274  TRP274      0.2290
    212  O         41.3380   46.9170  -13.5940 O.2   274  TRP274     -0.2864
    213  CB        39.5810   44.7970  -13.4040 C.3   274  TRP274      0.0576
    214  CG        38.6790   43.5840  -13.5580 C.ar  274  TRP274      0.0006
    215  CD1       39.0520   42.3150  -13.9050 C.ar  274  TRP274      0.0946
    216  CD2       37.2560   43.5600  -13.4220 C.ar  274  TRP274      0.0152
    217  NE1       37.9450   41.4940  -13.9730 N.ar  274  TRP274     -0.2442
    218  CE2       36.8310   42.2360  -13.6740 C.ar  274  TRP274      0.0810
    219  CE3       36.2980   44.5340  -13.1010 C.ar  274  TRP274      0.0012
    220  CZ2       35.4870   41.8640  -13.6190 C.ar  274  TRP274      0.0191
    221  CZ3       34.9740   44.1670  -13.0330 C.ar  274  TRP274      0.0001
    222  CH2       34.5780   42.8390  -13.3040 C.ar  274  TRP274      0.0015
@<TRIPOS>BOND
     1    70    69    1
     2    70    71    2
     3    69    68    1
     4    73    71    1
     5    71    72    1
     6    68    67    1
     7    67    64    1
     8    64    63    1
     9    64    65    1
    10    66    65    2
    11    65    74   am
    12    90    91    1
    13    90    89    1
    14   197   195   ar
    15   197   198   ar
    16    74    75    1
    17   195   193   ar
    18    91    85    1
    19    89    86    1
    20   191   190    2
    21   198   196   ar
    22   189   188    1
    23   189   190    1
    24   189   192    1
    25    75    76    1
    26    75    78    1
    27    85    86    1
    28    85    76   am
    29    86    87    1
    30   193   192    1
    31   193   194   ar
    32    76    77    2
    33    82    80   ar
    34    82    84   ar
    35    80    79   ar
    36   196   194   ar
    37    84    83   ar
    38    79    78    1
    39    79    81   ar
    40    87    88    2
    41    81    83   ar
    42   183   182    2
    43    60    57    1
    44    60    61    1
    45   182   181    1
    46    57    58    1
    47    57    56    1
    48   187   186    1
    49    58    59    2
    50   106   104    1
    51    61    62    1
    52   181   184    1
    53   181   180    1
    54   184   185    1
    55   105   104    1
    56    56    62    1
    57    56    53   am
    58   104   101    1
    59    54    53    2
    60   185   186    1
    61   126   124   ar
    62   126   127   ar
    63   179   178    2
    64   124   122   ar
    65    53    52    1
    66   180   178   am
    67   178   177    1
    68   127   125   ar
    69    98    97    1
    70   101   100    1
    71   101   102    1
    72    92    93    1
    73   100    94   am
    74   122   121    1
    75   122   123   ar
    76   103   102    2
    77   121   118    1
    78    52    51    1
    79    52    55    1
    80    96    97    1
    81    96    93    1
    82    97    99    1
    83    51    44   am
    84    36    34   ar
    85    36    37   ar
    86   177   176    1
    87    93    94    1
    88    34    33   ar
    89   125   123   ar
    90    94    95    2
    91    49    48    2
    92    37    39   ar
    93    37    35   ar
    94    39    41   ar
    95   176   174   am
    96    42    43    1
    97    43    44    1
    98    43    46    1
    99    33    35   ar
   100    33    32    1
   101    44    45    2
   102   118   119    1
   103   118   117    1
   104    29    28    1
   105    29    32    1
   106    29    30    1
   107    31    30    2
   108   119   120    2
   109    48    50   am
   110    48    47    1
   111    35    38   ar
   112    41    40   ar
   113   174   175    2
   114   174   173    1
   115   117   109   am
   116   172   173    1
   117   163   162    2
   118    38    40   ar
   119    47    46    1
   120   107   108    1
   121   115   113   ar
   122   115   116   ar
   123   109   108    1
   124   109   110    2
   125   113   112   ar
   126    15    14    2
   127   162   161    1
   128   116   114   ar
   129   108   111    1
   130   167   169   ar
   131   167   165   ar
   132   159   157   ar
   133   159   158   ar
   134   161   164    1
   135   161   160    1
   136   112   114   ar
   137   112   111    1
   138   157   155   ar
   139   169   170   ar
   140   205   207   ar
   141   205   204   ar
   142    14    13    1
   143    14    20   am
   144   164   165    1
   145    13    12    1
   146    13    16    1
   147   207   208   ar
   148    21    20    1
   149    21    22    1
   150    21    24    1
   151   165   166   ar
   152    23    22    2
   153   199   200    1
   154   200   203    1
   155   200   201    1
   156    18    17   ar
   157    26    24    1
   158   158   156   ar
   159   203   204    1
   160   204   206   ar
   161   128   129    1
   162   155   156   ar
   163   155   154    1
   164   170   171    1
   165   170   168   ar
   166    24    25    1
   167   130   129    1
   168   130   131    2
   169    17    16    1
   170    17    19   ar
   171   153   152    2
   172   202   201    2
   173   151   154    1
   174   151   152    1
   175   151   150    1
   176   208   206   ar
   177   201   209   am
   178   166   168   ar
   179   129   132    1
   180   132   133    1
   181   135   133   ar
   182   135   137   ar
   183   133   134   ar
   184    25    27    1
   185   209   210    1
   186   137   138   ar
   187   134   136   ar
   188   138   136   ar
   189   210   211    1
   190   210   213    1
   191   211   212    2
   192     5     6    1
   193     5     2    1
   194   142   141    2
   195   217   215   ar
   196   217   218   ar
   197     1     2    1
   198   215   214   ar
   199     6     8   ar
   200     6     7   ar
   201   218   220   ar
   202   218   216   ar
   203     8    10   ar
   204   220   222   ar
   205   214   216   ar
   206   214   213    1
   207   216   219   ar
   208   222   221   ar
   209     2     3    1
   210   143   140    1
   211   143   144    1
   212     7     9   ar
   213   219   221   ar
   214    10    11   ar
   215   140   141    1
   216   140   139    1
   217     4     3    2
   218     9    11   ar
   219   144   145   ar
   220   144   146   ar
   221   145   147   ar
   222   146   148   ar
   223   147   149   ar
   224   148   149   ar
