@<TRIPOS>MOLECULE
tmp/5tniB00.pdb
 167 167 0 0 0
SMALL
GASTEIGER

@<TRIPOS>ATOM
      1  N         54.3120   88.3720   13.7110 N.3    39  PHE39      -0.1241
      2  CA        54.8430   87.1860   13.0480 C.3    39  PHE39       0.1605
      3  C         53.8380   86.5880   12.0740 C.2    39  PHE39       0.2264
      4  O         52.6440   86.5190   12.3620 O.2    39  PHE39      -0.2867
      5  CB        55.2210   86.1190   14.0770 C.3    39  PHE39       0.0534
      6  CG        55.4990   84.7800   13.4520 C.ar   39  PHE39      -0.0203
      7  CD1       56.7340   84.5260   12.8780 C.ar   39  PHE39      -0.0042
      8  CD2       54.5110   83.8040   13.3800 C.ar   39  PHE39      -0.0042
      9  CE1       56.9920   83.3060   12.2600 C.ar   39  PHE39      -0.0003
     10  CE2       54.7700   82.5850   12.7720 C.ar   39  PHE39      -0.0003
     11  CZ        56.0150   82.3410   12.2130 C.ar   39  PHE39      -0.0000
     12  N         51.3380   91.4610   18.2660 N.3   105  ASP105     -0.1225
     13  CA        52.2760   90.3180   18.3800 C.3   105  ASP105      0.1805
     14  C         53.7080   90.8460   18.5030 C.2   105  ASP105      0.2597
     15  O         53.9670   91.7020   19.3630 O.2   105  ASP105     -0.2718
     16  CB        52.0050   89.3810   17.2090 C.3   105  ASP105      0.1424
     17  CG        52.7800   88.0800   17.3210 C.2   105  ASP105      0.3668
     18  OD1       52.4550   87.2790   18.2360 O.co2 105  ASP105     -0.2456
     19  OD2       53.7170   87.8990   16.5090 O.co2 105  ASP105     -0.2456
     20  N         54.6700   90.3780   17.6990 N.am  106  ILE106     -0.1980
     21  CA        56.0550   90.8140   17.8980 C.3   106  ILE106      0.1595
     22  C         56.2590   92.2820   17.5460 C.2   106  ILE106      0.2287
     23  O         57.3220   92.8400   17.8480 O.2   106  ILE106     -0.2864
     24  CB        57.0610   89.9450   17.1100 C.3   106  ILE106      0.0276
     25  CG1       56.8100   90.0690   15.6050 C.3   106  ILE106      0.0022
     26  CG2       56.9540   88.4890   17.5680 C.3   106  ILE106      0.0022
     27  CD1       57.9410   89.5310   14.7400 C.3   106  ILE106      0.0001
     28  N         57.1100   93.6280   20.8070 N.3   109  TRP109     -0.1241
     29  CA        58.5120   93.4210   21.1670 C.3   109  TRP109      0.1605
     30  C         59.3990   94.4640   20.5170 C.2   109  TRP109      0.2264
     31  O         60.3760   94.9440   21.1120 O.2   109  TRP109     -0.2867
     32  CB        58.9740   92.0360   20.7110 C.3   109  TRP109      0.0550
     33  CG        58.1540   90.8980   21.1960 C.ar  109  TRP109      0.0003
     34  CD1       57.0380   90.9570   21.9830 C.ar  109  TRP109      0.0946
     35  CD2       58.3850   89.5080   20.9280 C.ar  109  TRP109      0.0152
     36  NE1       56.5660   89.6840   22.2260 N.ar  109  TRP109     -0.2442
     37  CE2       57.3740   88.7810   21.5860 C.ar  109  TRP109      0.0810
     38  CE3       59.3500   88.8100   20.1920 C.ar  109  TRP109      0.0012
     39  CZ2       57.2950   87.3830   21.5300 C.ar  109  TRP109      0.0191
     40  CZ3       59.2740   87.4230   20.1350 C.ar  109  TRP109      0.0001
     41  CH2       58.2550   86.7250   20.8040 C.ar  109  TRP109      0.0015
     42  N         47.7060   91.3040   21.6880 N.3   129  GLN129     -0.1231
     43  CA        47.9730   89.8960   21.3820 C.3   129  GLN129      0.1698
     44  C         49.4690   89.5560   21.3360 C.2   129  GLN129      0.2592
     45  O         49.9930   89.0770   20.3340 O.2   129  GLN129     -0.2718
     46  CB        47.2670   89.4890   20.0780 C.3   129  GLN129      0.0381
     47  CG        45.8170   89.0280   20.2950 C.3   129  GLN129      0.0905
     48  CD        45.7080   87.8140   21.2270 C.2   129  GLN129      0.2608
     49  OE1       44.9240   87.8140   22.1770 O.2   129  GLN129     -0.2717
     50  NE2       46.4980   86.7780   20.9540 N.am  129  GLN129     -0.0878
     51  N         50.1440   89.7980   22.4630 N.am  130  ALA130     -0.1966
     52  CA        51.4290   89.1760   22.7960 C.3   130  ALA130      0.1713
     53  C         51.9730   89.7890   24.0740 C.2   130  ALA130      0.2458
     54  O         51.7930   90.9830   24.3180 O.2   130  ALA130     -0.2730
     55  CB        52.4970   89.3300   21.7060 C.3   130  ALA130      0.0333
     56  N         52.6810   89.0150   24.8840 N.am  131  PRO131     -0.2727
     57  CA        53.3360   89.6000   26.0560 C.3   131  PRO131      0.1402
     58  C         54.4400   90.5500   25.6300 C.2   131  PRO131      0.2269
     59  O         55.1380   90.3130   24.6410 O.2   131  PRO131     -0.2865
     60  CB        53.9080   88.3850   26.8020 C.3   131  PRO131      0.0296
     61  CG        53.9810   87.2910   25.7790 C.3   131  PRO131      0.0237
     62  CD        52.9500   87.5720   24.7260 C.3   131  PRO131      0.0939
     63  N         49.7730   77.4580   23.6620 N.3   150  LEU150     -0.1231
     64  CA        49.7450   78.7070   22.9100 C.3   150  LEU150      0.1693
     65  C         51.1240   79.1220   22.4030 C.2   150  LEU150      0.2591
     66  O         51.2460   79.5980   21.2670 O.2   150  LEU150     -0.2718
     67  CB        49.1610   79.8100   23.7880 C.3   150  LEU150      0.0284
     68  CG        48.7950   81.1370   23.1300 C.3   150  LEU150      0.0019
     69  CD1       47.5200   80.9930   22.2860 C.3   150  LEU150      0.0001
     70  CD2       48.6250   82.2030   24.2090 C.3   150  LEU150      0.0001
     71  N         52.1710   79.0000   23.2230 N.am  151  VAL151     -0.1980
     72  CA        53.4410   79.6060   22.8190 C.3   151  VAL151      0.1595
     73  C         54.6070   78.6270   22.8540 C.2   151  VAL151      0.2287
     74  O         55.7570   79.0410   23.0280 O.2   151  VAL151     -0.2864
     75  CB        53.7890   80.8550   23.6590 C.3   151  VAL151      0.0276
     76  CG1       52.7240   81.9500   23.5120 C.3   151  VAL151      0.0022
     77  CG2       53.9990   80.5050   25.1160 C.3   151  VAL151      0.0022
     78  N         55.7270   77.6000   20.2840 N.3   153  HIS153     -0.1226
     79  CA        56.5080   78.0860   19.1520 C.3   153  HIS153      0.1752
     80  C         57.6530   79.0020   19.5750 C.2   153  HIS153      0.2596
     81  O         58.6080   79.1550   18.8050 O.2   153  HIS153     -0.2718
     82  CB        55.6030   78.7940   18.1260 C.3   153  HIS153      0.0759
     83  CG        55.0010   80.0860   18.6060 C.ar  153  HIS153      0.0818
     84  ND1       53.8010   80.1450   19.2880 N.ar  153  HIS153     -0.2268
     85  CD2       55.3950   81.3720   18.4280 C.ar  153  HIS153      0.1154
     86  CE1       53.5050   81.4110   19.5410 C.ar  153  HIS153      0.1986
     87  NE2       54.4580   82.1750   19.0330 N.ar  153  HIS153     -0.2212
     88  N         57.6040   79.5910   20.7820 N.am  154  PHE154     -0.1976
     89  CA        58.7500   80.3690   21.2690 C.3   154  PHE154      0.1639
     90  C         60.0240   79.5280   21.2420 C.2   154  PHE154      0.2290
     91  O         61.0820   79.9850   20.7920 O.2   154  PHE154     -0.2864
     92  CB        58.5240   80.8700   22.7020 C.3   154  PHE154      0.0560
     93  CG        57.5540   82.0260   22.8360 C.ar  154  PHE154     -0.0200
     94  CD1       56.8490   82.5220   21.7480 C.ar  154  PHE154     -0.0042
     95  CD2       57.3670   82.6190   24.0730 C.ar  154  PHE154     -0.0042
     96  CE1       55.9620   83.5800   21.9070 C.ar  154  PHE154     -0.0003
     97  CE2       56.4880   83.6770   24.2380 C.ar  154  PHE154     -0.0003
     98  CZ        55.7880   84.1550   23.1600 C.ar  154  PHE154     -0.0000
     99  N         49.8120   77.2450   11.6140 N.3   179  PHE179     -0.1241
    100  CA        50.0930   78.1880   12.6980 C.3   179  PHE179      0.1605
    101  C         48.9600   79.1870   12.8550 C.2   179  PHE179      0.2264
    102  O         48.5270   79.4820   13.9750 O.2   179  PHE179     -0.2867
    103  CB        51.4070   78.9280   12.4480 C.3   179  PHE179      0.0534
    104  CG        51.8270   79.8110   13.5940 C.ar  179  PHE179     -0.0203
    105  CD1       51.4180   81.1450   13.6490 C.ar  179  PHE179     -0.0042
    106  CD2       52.6350   79.3170   14.6050 C.ar  179  PHE179     -0.0042
    107  CE1       51.7970   81.9660   14.7120 C.ar  179  PHE179     -0.0003
    108  CE2       53.0250   80.1250   15.6690 C.ar  179  PHE179     -0.0003
    109  CZ        52.6100   81.4510   15.7210 C.ar  179  PHE179     -0.0000
    110  N         45.9540   79.1750   16.1270 N.3   183  HIS183     -0.1241
    111  CA        45.8590   80.3300   17.0050 C.3   183  HIS183      0.1621
    112  C         44.6650   81.2090   16.6550 C.2   183  HIS183      0.2264
    113  O         44.6110   82.3630   17.0800 O.2   183  HIS183     -0.2867
    114  CB        47.1550   81.1410   16.9500 C.3   183  HIS183      0.0745
    115  CG        48.3490   80.4100   17.4900 C.ar  183  HIS183      0.0817
    116  ND1       49.1350   79.5840   16.7130 N.ar  183  HIS183     -0.2268
    117  CD2       48.8880   80.3770   18.7340 C.ar  183  HIS183      0.1154
    118  CE1       50.1050   79.0750   17.4540 C.ar  183  HIS183      0.1986
    119  NE2       49.9790   79.5410   18.6840 N.ar  183  HIS183     -0.2212
    120  N         62.7940   85.5860   17.4420 N.3   215  TYR215     -0.1241
    121  CA        62.6500   84.6890   18.5900 C.3   215  TYR215      0.1605
    122  C         63.9920   84.2830   19.1630 C.2   215  TYR215      0.2264
    123  O         64.1150   84.1120   20.3830 O.2   215  TYR215     -0.2867
    124  CB        61.8320   83.4560   18.1820 C.3   215  TYR215      0.0534
    125  CG        60.4090   83.8570   17.8270 C.ar  215  TYR215     -0.0201
    126  CD1       60.1080   84.3880   16.5770 C.ar  215  TYR215     -0.0009
    127  CD2       59.3770   83.7570   18.7700 C.ar  215  TYR215     -0.0009
    128  CE1       58.8060   84.7860   16.2550 C.ar  215  TYR215      0.0417
    129  CE2       58.0760   84.1530   18.4550 C.ar  215  TYR215      0.0417
    130  CZ        57.8060   84.6630   17.1920 C.ar  215  TYR215      0.1957
    131  OH        56.5330   85.0690   16.8600 O.3   215  TYR215     -0.2866
    132  N         43.2400   80.7420   20.9220 N.3   246  GLY246     -0.1225
    133  CA        44.3530   81.5250   20.4180 C.3   246  GLY246      0.1811
    134  C         44.5330   82.8740   21.0910 C.2   246  GLY246      0.2280
    135  O         45.5710   83.5180   20.8950 O.2   246  GLY246     -0.2866
    136  N         45.0130   85.8040   24.1170 N.3   248  MET248     -0.1245
    137  CA        45.7210   85.9770   25.3880 C.3   248  MET248      0.1570
    138  C         44.7840   86.1510   26.5820 C.2   248  MET248      0.2261
    139  O         45.2460   86.0620   27.7270 O.2   248  MET248     -0.2867
    140  CB        46.6580   87.1890   25.3280 C.3   248  MET248      0.0387
    141  CG        47.7160   87.1580   24.2450 C.3   248  MET248      0.0595
    142  SD        49.0210   85.9320   24.5030 S.3   248  MET248     -0.1393
    143  CE        49.5610   86.3040   26.1490 C.3   248  MET248      0.0692
    144  N         43.8490   84.9910   17.9670 N.3   273  HIS273     -0.1226
    145  CA        45.0620   85.8040   17.9500 C.3   273  HIS273      0.1752
    146  C         45.0290   86.8960   16.8940 C.2   273  HIS273      0.2596
    147  O         45.5840   87.9820   17.1100 O.2   273  HIS273     -0.2718
    148  CB        46.2750   84.9110   17.7000 C.3   273  HIS273      0.0759
    149  CG        47.5560   85.6620   17.5460 C.ar  273  HIS273      0.0818
    150  ND1       48.1420   86.3540   18.5850 N.ar  273  HIS273     -0.2268
    151  CD2       48.3760   85.8170   16.4770 C.ar  273  HIS273      0.1154
    152  CE1       49.2650   86.9090   18.1600 C.ar  273  HIS273      0.1986
    153  NE2       49.4230   86.6090   16.8820 N.ar  273  HIS273     -0.2212
    154  N         44.4020   86.6300   15.7510 N.am  274  TRP274     -0.1976
    155  CA        44.5780   87.4620   14.5610 C.3   274  TRP274      0.1640
    156  C         43.4900   88.5360   14.4900 C.2   274  TRP274      0.2290
    157  O         42.6870   88.5790   13.5590 O.2   274  TRP274     -0.2864
    158  CB        44.5690   86.5750   13.3180 C.3   274  TRP274      0.0576
    159  CG        45.4470   85.3700   13.4850 C.ar  274  TRP274      0.0006
    160  CD1       45.0680   84.1070   13.8690 C.ar  274  TRP274      0.0946
    161  CD2       46.8620   85.3320   13.3130 C.ar  274  TRP274      0.0152
    162  NE1       46.1740   83.2820   13.9330 N.ar  274  TRP274     -0.2442
    163  CE2       47.2870   84.0150   13.5960 C.ar  274  TRP274      0.0810
    164  CE3       47.8160   86.2910   12.9400 C.ar  274  TRP274      0.0012
    165  CZ2       48.6280   83.6300   13.5170 C.ar  274  TRP274      0.0191
    166  CZ3       49.1480   85.9090   12.8640 C.ar  274  TRP274      0.0001
    167  CH2       49.5380   84.5890   13.1510 C.ar  274  TRP274      0.0015
@<TRIPOS>BOND
     1    99   100    1
     2     3     4    2
     3     3     2    1
     4    11     9   ar
     5    11    10   ar
     6     9     7   ar
     7   103   100    1
     8   103   104    1
     9   100   101    1
    10    10     8   ar
    11   101   102    2
    12   166   164   ar
    13   166   167   ar
    14     7     6   ar
    15   164   161   ar
    16     2     1    1
    17     2     5    1
    18   167   165   ar
    19   161   159   ar
    20   161   163   ar
    21   158   159    1
    22   158   155    1
    23     8     6   ar
    24     6     5    1
    25   159   160   ar
    26   165   163   ar
    27   157   156    2
    28   104   105   ar
    29   104   106   ar
    30   163   162   ar
    31   105   107   ar
    32   160   162   ar
    33   156   155    1
    34   155   154    1
    35   106   108   ar
    36   107   109   ar
    37    27    25    1
    38    25    24    1
    39   108   109   ar
    40   154   146   am
    41   110   111    1
    42   128   126   ar
    43   128   130   ar
    44   151   153   ar
    45   151   149   ar
    46    19    17   ar
    47   126   125   ar
    48   112   111    1
    49   112   113    2
    50   116   118   ar
    51   116   115   ar
    52   131   130    1
    53   153   152   ar
    54   146   147    2
    55   146   145    1
    56   114   111    1
    57   114   115    1
    58    24    26    1
    59    24    21    1
    60   130   129   ar
    61    16    17    1
    62    16    13    1
    63    17    18   ar
    64   120   121    1
    65   118   119   ar
    66   115   117   ar
    67   149   148    1
    68   149   150   ar
    69    22    23    2
    70    22    21    1
    71    20    21    1
    72    20    14   am
    73   148   145    1
    74   125   124    1
    75   125   127   ar
    76   145   144    1
    77    82    83    1
    78    82    79    1
    79   152   150   ar
    80   124   121    1
    81    12    13    1
    82    13    14    1
    83    85    83   ar
    84    85    87   ar
    85   129   127   ar
    86    14    15    2
    87   121   122    1
    88    83    84   ar
    89   119   117   ar
    90    81    80    2
    91    87    86   ar
    92    79    80    1
    93    79    78    1
    94   122   123    2
    95    84    86   ar
    96    80    88   am
    97    46    47    1
    98    46    43    1
    99    40    38   ar
   100    40    41   ar
   101    38    35   ar
   102    47    48    1
   103    45    44    2
   104   133   132    1
   105   133   134    1
   106    30    31    2
   107    30    29    1
   108    32    29    1
   109    32    33    1
   110    88    89    1
   111    91    90    2
   112    41    39   ar
   113    28    29    1
   114   135   134    2
   115    35    33   ar
   116    35    37   ar
   117    50    48   am
   118    33    34   ar
   119    48    49    2
   120    90    89    1
   121    66    65    2
   122    89    92    1
   123    44    43    1
   124    44    51   am
   125    43    42    1
   126    39    37   ar
   127    37    36   ar
   128    55    52    1
   129    94    96   ar
   130    94    93   ar
   131    96    98   ar
   132    34    36   ar
   133    69    68    1
   134    65    64    1
   135    65    71   am
   136    51    52    1
   137    92    93    1
   138    52    53    1
   139    72    73    1
   140    72    71    1
   141    72    75    1
   142    93    95   ar
   143    73    74    2
   144    64    63    1
   145    64    67    1
   146    68    67    1
   147    68    70    1
   148    98    97   ar
   149    76    75    1
   150    75    77    1
   151    95    97   ar
   152    53    54    2
   153    53    56   am
   154   136   137    1
   155   141   142    1
   156   141   140    1
   157   142   143    1
   158    59    58    2
   159    62    56    1
   160    62    61    1
   161    56    57    1
   162   140   137    1
   163   137   138    1
   164    58    57    1
   165    61    60    1
   166    57    60    1
   167   138   139    2
