@<TRIPOS>MOLECULE
tmp/5tnjD00.pdb
 153 151 0 0 0
SMALL
GASTEIGER

@<TRIPOS>ATOM
      1  N         97.6630   52.3260   13.9440 N.3    39  PHE39      -0.1241
      2  CA        97.1650   53.5230   13.2810 C.3    39  PHE39       0.1605
      3  C         98.1970   54.1380   12.3440 C.2    39  PHE39       0.2264
      4  O         99.3880   54.2270   12.6650 O.2    39  PHE39      -0.2867
      5  CB        96.7420   54.5810   14.3130 C.3    39  PHE39       0.0534
      6  CG        96.4700   55.9230   13.6930 C.ar   39  PHE39      -0.0203
      7  CD1       95.2750   56.1610   13.0310 C.ar   39  PHE39      -0.0042
      8  CD2       97.4400   56.9220   13.7060 C.ar   39  PHE39      -0.0042
      9  CE1       95.0300   57.3760   12.4080 C.ar   39  PHE39      -0.0003
     10  CE2       97.2060   58.1460   13.0760 C.ar   39  PHE39      -0.0003
     11  CZ        95.9900   58.3690   12.4290 C.ar   39  PHE39      -0.0000
     12  N        100.6740   49.2480   18.5040 N.3   105  ASP105     -0.1225
     13  CA        99.7410   50.3910   18.6080 C.3   105  ASP105      0.1805
     14  C         98.3170   49.8530   18.7550 C.2   105  ASP105      0.2597
     15  O         98.0840   49.0020   19.6290 O.2   105  ASP105     -0.2718
     16  CB        99.9980   51.3050   17.4210 C.3   105  ASP105      0.1424
     17  CG        99.2490   52.6090   17.5250 C.2   105  ASP105      0.3668
     18  OD1       99.6410   53.4440   18.3620 O.co2 105  ASP105     -0.2456
     19  OD2       98.2540   52.7950   16.8030 O.co2 105  ASP105     -0.2456
     20  N         97.3390   50.3050   17.9550 N.am  106  ILE106     -0.1980
     21  CA        95.9630   49.8600   18.1660 C.3   106  ILE106      0.1595
     22  C         95.7630   48.3960   17.7980 C.2   106  ILE106      0.2287
     23  O         94.6920   47.8350   18.0690 O.2   106  ILE106     -0.2864
     24  CB        94.9460   50.7290   17.3910 C.3   106  ILE106      0.0276
     25  CG1       95.1340   50.5920   15.8760 C.3   106  ILE106      0.0022
     26  CG2       95.0330   52.1940   17.8320 C.3   106  ILE106      0.0022
     27  CD1       93.9890   51.2680   15.0770 C.3   106  ILE106      0.0001
     28  N         94.9040   47.0230   21.0130 N.3   109  TRP109     -0.1241
     29  CA        93.5140   47.2460   21.3820 C.3   109  TRP109      0.1605
     30  C         92.6150   46.2140   20.7440 C.2   109  TRP109      0.2264
     31  O         91.6210   45.7760   21.3400 O.2   109  TRP109     -0.2867
     32  CB        93.0620   48.6330   20.9250 C.3   109  TRP109      0.0550
     33  CG        93.8690   49.7500   21.4530 C.ar  109  TRP109      0.0003
     34  CD1       94.9610   49.6760   22.2800 C.ar  109  TRP109      0.0946
     35  CD2       93.6400   51.1390   21.2030 C.ar  109  TRP109      0.0152
     36  NE1       95.4260   50.9460   22.5570 N.ar  109  TRP109     -0.2442
     37  CE2       94.6350   51.8590   21.9000 C.ar  109  TRP109      0.0810
     38  CE3       92.6930   51.8460   20.4420 C.ar  109  TRP109      0.0012
     39  CZ2       94.7120   53.2630   21.8680 C.ar  109  TRP109      0.0191
     40  CZ3       92.7640   53.2400   20.4100 C.ar  109  TRP109      0.0001
     41  CH2       93.7720   53.9320   21.1230 C.ar  109  TRP109      0.0015
     42  N        104.3430   49.3420   21.9280 N.3   129  GLN129     -0.1231
     43  CA       104.0350   50.7530   21.6460 C.3   129  GLN129      0.1698
     44  C        102.5300   51.0560   21.6190 C.2   129  GLN129      0.2592
     45  O        101.9880   51.5520   20.6280 O.2   129  GLN129     -0.2718
     46  CB       104.7080   51.1880   20.3350 C.3   129  GLN129      0.0381
     47  CG       106.1720   51.6290   20.5310 C.3   129  GLN129      0.0905
     48  CD       106.3130   52.8000   21.5090 C.2   129  GLN129      0.2608
     49  OE1      107.1320   52.7500   22.4270 O.2   129  GLN129     -0.2717
     50  NE2      105.5230   53.8610   21.3050 N.am  129  GLN129     -0.0878
     51  N        101.8670   50.7690   22.7440 N.am  130  ALA130     -0.1966
     52  CA       100.5510   51.3160   23.0580 C.3   130  ALA130      0.1713
     53  C        100.0730   50.7950   24.3970 C.2   130  ALA130      0.2458
     54  O        100.3300   49.6400   24.7470 O.2   130  ALA130     -0.2730
     55  CB        99.4840   50.9620   22.0160 C.3   130  ALA130      0.0333
     56  N         99.3070   51.5810   25.1330 N.am  131  PRO131     -0.2727
     57  CA        98.6460   51.0290   26.3140 C.3   131  PRO131      0.1402
     58  C         97.5500   50.0560   25.9070 C.2   131  PRO131      0.2269
     59  O         96.8390   50.2740   24.9220 O.2   131  PRO131     -0.2865
     60  CB        98.0610   52.2700   26.9980 C.3   131  PRO131      0.0296
     61  CG        97.7890   53.2180   25.8490 C.3   131  PRO131      0.0237
     62  CD        98.9310   52.9800   24.8710 C.3   131  PRO131      0.0939
     63  N        102.0850   63.2510   23.8880 N.3   150  LEU150     -0.1231
     64  CA       102.0920   61.9790   23.1670 C.3   150  LEU150      0.1693
     65  C        100.7040   61.5970   22.6580 C.2   150  LEU150      0.2591
     66  O        100.5680   61.0870   21.5370 O.2   150  LEU150     -0.2718
     67  CB       102.6340   60.8770   24.0790 C.3   150  LEU150      0.0284
     68  CG       103.1860   59.6180   23.4140 C.3   150  LEU150      0.0019
     69  CD1      104.4720   59.9430   22.6640 C.3   150  LEU150      0.0001
     70  CD2      103.4280   58.5240   24.4560 C.3   150  LEU150      0.0001
     71  N         99.6600   61.8010   23.4650 N.am  151  VAL151     -0.1980
     72  CA        98.3880   61.1890   23.0870 C.3   151  VAL151      0.1595
     73  C         97.2270   62.1740   23.0860 C.2   151  VAL151      0.2287
     74  O         96.0680   61.7630   23.2020 O.2   151  VAL151     -0.2864
     75  CB        98.0480   59.9740   23.9710 C.3   151  VAL151      0.0276
     76  CG1       99.1510   58.9110   23.8950 C.3   151  VAL151      0.0022
     77  CG2       97.7970   60.4020   25.3770 C.3   151  VAL151      0.0022
     78  N         96.1560   63.1560   20.5080 N.3   153  HIS153     -0.1226
     79  CA        95.4020   62.6680   19.3630 C.3   153  HIS153      0.1752
     80  C         94.2620   61.7380   19.7610 C.2   153  HIS153      0.2596
     81  O         93.3210   61.5940   18.9760 O.2   153  HIS153     -0.2718
     82  CB        96.3310   61.9710   18.3450 C.3   153  HIS153      0.0759
     83  CG        96.9730   60.7060   18.8380 C.ar  153  HIS153      0.0818
     84  ND1       98.1710   60.6990   19.5250 N.ar  153  HIS153     -0.2268
     85  CD2       96.6130   59.4050   18.6980 C.ar  153  HIS153      0.1154
     86  CE1       98.5050   59.4500   19.8090 C.ar  153  HIS153      0.1986
     87  NE2       97.5820   58.6450   19.3130 N.ar  153  HIS153     -0.2212
     88  N         94.2970   61.1200   20.9540 N.am  154  PHE154     -0.1976
     89  CA        93.1390   60.3290   21.3820 C.3   154  PHE154      0.1639
     90  C         91.8690   61.1720   21.3290 C.2   154  PHE154      0.2290
     91  O         90.8280   60.7220   20.8370 O.2   154  PHE154     -0.2864
     92  CB        93.3010   59.7920   22.8100 C.3   154  PHE154      0.0560
     93  CG        94.2930   58.6590   22.9670 C.ar  154  PHE154     -0.0200
     94  CD1       95.0430   58.1890   21.9100 C.ar  154  PHE154     -0.0042
     95  CD2       94.4520   58.0670   24.2130 C.ar  154  PHE154     -0.0042
     96  CE1       95.9510   57.1410   22.0990 C.ar  154  PHE154     -0.0003
     97  CE2       95.3550   57.0210   24.4100 C.ar  154  PHE154     -0.0003
     98  CZ        96.1040   56.5600   23.3460 C.ar  154  PHE154     -0.0000
     99  N        102.1830   63.5260   12.0380 N.3   179  PHE179     -0.1241
    100  CA       101.8890   62.5430   13.0790 C.3   179  PHE179      0.1605
    101  C        103.0440   61.5670   13.2510 C.2   179  PHE179      0.2264
    102  O        103.4720   61.2850   14.3730 O.2   179  PHE179     -0.2867
    103  CB       100.6020   61.7800   12.7630 C.3   179  PHE179      0.0534
    104  CG       100.1820   60.8590   13.8680 C.ar  179  PHE179     -0.0203
    105  CD1      100.6510   59.5520   13.9110 C.ar  179  PHE179     -0.0042
    106  CD2       99.3390   61.3030   14.8820 C.ar  179  PHE179     -0.0042
    107  CE1      100.2910   58.6920   14.9480 C.ar  179  PHE179     -0.0003
    108  CE2       98.9630   60.4500   15.9240 C.ar  179  PHE179     -0.0003
    109  CZ        99.4380   59.1430   15.9590 C.ar  179  PHE179     -0.0000
    110  N        105.9260   61.4640   16.5460 N.3   183  HIS183     -0.1241
    111  CA       106.0160   60.2890   17.4010 C.3   183  HIS183      0.1621
    112  C        107.2630   59.4660   17.1380 C.2   183  HIS183      0.2264
    113  O        107.3470   58.3230   17.6010 O.2   183  HIS183     -0.2867
    114  CB       104.7780   59.4200   17.2170 C.3   183  HIS183      0.0745
    115  CG       103.5470   60.0600   17.7580 C.ar  183  HIS183      0.0817
    116  ND1      102.8300   61.0020   17.0510 N.ar  183  HIS183     -0.2268
    117  CD2      102.9510   59.9550   18.9670 C.ar  183  HIS183      0.1154
    118  CE1      101.8190   61.4220   17.7930 C.ar  183  HIS183      0.1986
    119  NE2      101.8780   60.8120   18.9630 N.ar  183  HIS183     -0.2212
    120  N         89.1960   55.1010   17.7320 N.3   215  TYR215     -0.1241
    121  CA        89.3220   55.9880   18.8840 C.3   215  TYR215      0.1605
    122  C         87.9630   56.4090   19.4220 C.2   215  TYR215      0.2264
    123  O         87.8150   56.6090   20.6390 O.2   215  TYR215     -0.2867
    124  CB        90.1660   57.2120   18.5010 C.3   215  TYR215      0.0534
    125  CG        91.5820   56.8220   18.1050 C.ar  215  TYR215     -0.0201
    126  CD1       91.8660   56.3260   16.8250 C.ar  215  TYR215     -0.0009
    127  CD2       92.6260   56.9060   19.0280 C.ar  215  TYR215     -0.0009
    128  CE1       93.1610   55.9310   16.4870 C.ar  215  TYR215      0.0417
    129  CE2       93.9190   56.5240   18.6930 C.ar  215  TYR215      0.0417
    130  CZ        94.1690   56.0330   17.4210 C.ar  215  TYR215      0.1957
    131  OH        95.4400   55.6530   17.0840 O.3   215  TYR215     -0.2866
    132  N        108.6320   59.8080   21.4190 N.3   246  GLY246     -0.1225
    133  CA       107.5540   59.0060   20.8790 C.3   246  GLY246      0.1811
    134  C        107.4160   57.6390   21.5050 C.2   246  GLY246      0.2280
    135  O        106.3850   56.9790   21.3030 O.2   246  GLY246     -0.2866
    136  N        107.0360   54.6640   24.4590 N.3   248  MET248     -0.1245
    137  CA       106.3420   54.4880   25.7340 C.3   248  MET248      0.1570
    138  C        107.2940   54.2920   26.9050 C.2   248  MET248      0.2261
    139  O        106.8540   54.3790   28.0610 O.2   248  MET248     -0.2867
    140  CB       105.3830   53.2920   25.6690 C.3   248  MET248      0.0387
    141  CG       104.3030   53.4100   24.6270 C.3   248  MET248      0.0595
    142  SD       103.0740   54.6860   24.9990 S.3   248  MET248     -0.1393
    143  CE       102.2050   53.9430   26.3530 C.3   248  MET248      0.0692
    144  N        108.1660   55.6090   18.3890 N.3   273  HIS273     -0.1241
    145  CA       106.9680   54.7910   18.3050 C.3   273  HIS273      0.1621
    146  C        107.0590   53.7280   17.2170 C.2   273  HIS273      0.2264
    147  O        106.5020   52.6320   17.3660 O.2   273  HIS273     -0.2867
    148  CB       105.7590   55.6920   18.0430 C.3   273  HIS273      0.0745
    149  CG       104.4870   54.9430   17.8220 C.ar  273  HIS273      0.0817
    150  ND1      103.8770   54.2080   18.8170 N.ar  273  HIS273     -0.2268
    151  CD2      103.7140   54.8010   16.7180 C.ar  273  HIS273      0.1154
    152  CE1      102.7690   53.6610   18.3390 C.ar  273  HIS273      0.1986
    153  NE2      102.6420   54.0150   17.0700 N.ar  273  HIS273     -0.2212
@<TRIPOS>BOND
     1    99   100    1
     2     3     4    2
     3     3     2    1
     4     9    11   ar
     5     9     7   ar
     6    11    10   ar
     7   103   100    1
     8   103   104    1
     9     7     6   ar
    10    10     8   ar
    11   100   101    1
    12   101   102    2
    13     2     1    1
    14     2     5    1
    15     6     8   ar
    16     6     5    1
    17   104   105   ar
    18   104   106   ar
    19   105   107   ar
    20   106   108   ar
    21   107   109   ar
    22    27    25    1
    23    25    24    1
    24   108   109   ar
    25   128   126   ar
    26   128   130   ar
    27   110   111    1
    28   151   153   ar
    29   151   149   ar
    30    19    17   ar
    31   126   125   ar
    32   116   115   ar
    33   116   118   ar
    34   153   152   ar
    35   131   130    1
    36   112   111    1
    37   112   113    2
    38   114   111    1
    39   114   115    1
    40   146   147    2
    41   146   145    1
    42    24    26    1
    43    24    21    1
    44    16    17    1
    45    16    13    1
    46   130   129   ar
    47    17    18   ar
    48   120   121    1
    49   115   117   ar
    50   118   119   ar
    51    22    23    2
    52    22    21    1
    53   149   148    1
    54   149   150   ar
    55    20    21    1
    56    20    14   am
    57   148   145    1
    58   125   124    1
    59   125   127   ar
    60   145   144    1
    61   152   150   ar
    62    82    83    1
    63    82    79    1
    64   124   121    1
    65    12    13    1
    66    13    14    1
    67   129   127   ar
    68    85    83   ar
    69    85    87   ar
    70    14    15    2
    71    83    84   ar
    72   121   122    1
    73   119   117   ar
    74    81    80    2
    75    87    86   ar
    76    79    80    1
    77    79    78    1
    78   122   123    2
    79    84    86   ar
    80    80    88   am
    81    46    47    1
    82    46    43    1
    83    40    38   ar
    84    40    41   ar
    85    38    35   ar
    86    47    48    1
    87    45    44    2
    88    30    31    2
    89    30    29    1
    90    91    90    2
    91   133   132    1
    92   133   134    1
    93    32    29    1
    94    32    33    1
    95    88    89    1
    96    28    29    1
    97    41    39   ar
    98    35    33   ar
    99    35    37   ar
   100   135   134    2
   101    50    48   am
   102    90    89    1
   103    89    92    1
   104    33    34   ar
   105    48    49    2
   106    66    65    2
   107    44    43    1
   108    44    51   am
   109    43    42    1
   110    39    37   ar
   111    37    36   ar
   112    94    96   ar
   113    94    93   ar
   114    55    52    1
   115    96    98   ar
   116    34    36   ar
   117    65    64    1
   118    65    71   am
   119    69    68    1
   120    51    52    1
   121    92    93    1
   122    93    95   ar
   123    52    53    1
   124    73    72    1
   125    73    74    2
   126    72    71    1
   127    72    75    1
   128    64    63    1
   129    64    67    1
   130    98    97   ar
   131    68    67    1
   132    68    70    1
   133    76    75    1
   134    75    77    1
   135    95    97   ar
   136    53    54    2
   137    53    56   am
   138   136   137    1
   139   141   142    1
   140   141   140    1
   141    62    56    1
   142    62    61    1
   143    59    58    2
   144   142   143    1
   145    56    57    1
   146   140   137    1
   147   137   138    1
   148    61    60    1
   149    58    57    1
   150    57    60    1
   151   138   139    2
