@<TRIPOS>MOLECULE
tmp/5tnjA00.pdb
 153 151 0 0 0
SMALL
GASTEIGER

@<TRIPOS>ATOM
      1  N         62.0750   57.5240   23.0200 N.3    39  PHE39      -0.1241
      2  CA        61.9360   58.2120   21.7450 C.3    39  PHE39       0.1605
      3  C         63.2940   58.4940   21.1190 C.2    39  PHE39       0.2264
      4  O         64.2470   58.8800   21.8030 O.2    39  PHE39      -0.2867
      5  CB        61.1840   59.5330   21.9280 C.3    39  PHE39       0.0534
      6  CG        61.2820   60.4310   20.7280 C.ar   39  PHE39      -0.0203
      7  CD1       60.4480   60.2430   19.6380 C.ar   39  PHE39      -0.0042
      8  CD2       62.2420   61.4360   20.6720 C.ar   39  PHE39      -0.0042
      9  CE1       60.5640   61.0540   18.5070 C.ar   39  PHE39      -0.0003
     10  CE2       62.3610   62.2420   19.5430 C.ar   39  PHE39      -0.0003
     11  CZ        61.5270   62.0510   18.4720 C.ar   39  PHE39      -0.0000
     12  N         62.7330   57.1880   29.2660 N.3   105  ASP105     -0.1225
     13  CA        61.9580   58.1410   28.4490 C.3   105  ASP105      0.1805
     14  C         60.5530   57.5710   28.2590 C.2   105  ASP105      0.2597
     15  O         59.9310   57.1800   29.2590 O.2   105  ASP105     -0.2718
     16  CB        62.7300   58.4490   27.1740 C.3   105  ASP105      0.1424
     17  CG        62.0880   59.5670   26.3610 C.2   105  ASP105      0.3668
     18  OD1       62.1660   60.7560   26.7730 O.co2 105  ASP105     -0.2456
     19  OD2       61.4790   59.2690   25.3150 O.co2 105  ASP105     -0.2456
     20  N         60.0190   57.4980   27.0320 N.am  106  ILE106     -0.1980
     21  CA        58.6510   57.0170   26.8640 C.3   106  ILE106      0.1595
     22  C         58.5090   55.5350   27.1790 C.2   106  ILE106      0.2287
     23  O         57.3800   55.0400   27.2860 O.2   106  ILE106     -0.2864
     24  CB        58.0960   57.3080   25.4540 C.3   106  ILE106      0.0276
     25  CG1       58.8480   56.5270   24.3660 C.3   106  ILE106      0.0022
     26  CG2       58.0910   58.8250   25.1800 C.3   106  ILE106      0.0022
     27  CD1       58.1430   56.5870   22.9990 C.3   106  ILE106      0.0001
     28  N         56.3430   55.6860   30.1040 N.3   109  TRP109     -0.1241
     29  CA        54.9290   55.8540   29.8010 C.3   109  TRP109      0.1605
     30  C         54.3000   54.5270   29.4190 C.2   109  TRP109      0.2264
     31  O         53.1460   54.2420   29.7610 O.2   109  TRP109     -0.2867
     32  CB        54.7590   56.8280   28.6420 C.3   109  TRP109      0.0550
     33  CG        55.4050   58.1600   28.8070 C.ar  109  TRP109      0.0003
     34  CD1       56.0760   58.6430   29.8990 C.ar  109  TRP109      0.0946
     35  CD2       55.4040   59.2050   27.8390 C.ar  109  TRP109      0.0152
     36  NE1       56.4920   59.9300   29.6600 N.ar  109  TRP109     -0.2442
     37  CE2       56.0880   60.2970   28.4010 C.ar  109  TRP109      0.0810
     38  CE3       54.8760   59.3250   26.5460 C.ar  109  TRP109      0.0012
     39  CZ2       56.2780   61.4950   27.7040 C.ar  109  TRP109      0.0191
     40  CZ3       55.0530   60.5110   25.8640 C.ar  109  TRP109      0.0001
     41  CH2       55.7460   61.5770   26.4410 C.ar  109  TRP109      0.0015
     42  N         64.7650   59.3370   33.2730 N.3   129  GLN129     -0.1231
     43  CA        64.6740   60.4210   32.2870 C.3   129  GLN129      0.1698
     44  C         63.3280   60.4870   31.5600 C.2   129  GLN129      0.2592
     45  O         63.2490   60.4320   30.3300 O.2   129  GLN129     -0.2718
     46  CB        65.8340   60.3230   31.2930 C.3   129  GLN129      0.0381
     47  CG        67.1050   60.9580   31.8560 C.3   129  GLN129      0.0905
     48  CD        66.9740   62.4620   32.0510 C.2   129  GLN129      0.2608
     49  OE1       67.3730   62.9970   33.0950 O.2   129  GLN129     -0.2717
     50  NE2       66.4330   63.1560   31.0420 N.am  129  GLN129     -0.0878
     51  N         62.2700   60.6660   32.3410 N.am  130  ALA130     -0.1966
     52  CA        60.9770   61.0940   31.8120 C.3   130  ALA130      0.1713
     53  C         59.9830   61.2210   32.9440 C.2   130  ALA130      0.2458
     54  O         60.0090   60.4170   33.8830 O.2   130  ALA130     -0.2730
     55  CB        60.3930   60.1160   30.7930 C.3   130  ALA130      0.0333
     56  N         59.0580   62.1710   32.8650 N.am  131  PRO131     -0.2727
     57  CA        57.9320   62.1520   33.7980 C.3   131  PRO131      0.1402
     58  C         57.0040   60.9780   33.5110 C.2   131  PRO131      0.2269
     59  O         56.7560   60.6140   32.3590 O.2   131  PRO131     -0.2865
     60  CB        57.2350   63.4960   33.5420 C.3   131  PRO131      0.0296
     61  CG        57.5420   63.8050   32.1000 C.3   131  PRO131      0.0237
     62  CD        58.9130   63.2030   31.8220 C.3   131  PRO131      0.0939
     63  N         62.8230   71.8590   28.1200 N.3   150  LEU150     -0.1231
     64  CA        63.0200   70.4180   27.9900 C.3   150  LEU150      0.1693
     65  C         61.9350   69.7700   27.1390 C.2   150  LEU150      0.2591
     66  O         62.2170   68.8340   26.3820 O.2   150  LEU150     -0.2718
     67  CB        63.0640   69.7570   29.3690 C.3   150  LEU150      0.0284
     68  CG        64.3530   69.8220   30.2060 C.3   150  LEU150      0.0019
     69  CD1       64.1880   69.0380   31.5030 C.3   150  LEU150      0.0001
     70  CD2       65.5550   69.3040   29.4290 C.3   150  LEU150      0.0001
     71  N         60.6880   70.2290   27.2490 N.am  151  VAL151     -0.1980
     72  CA        59.6150   69.4090   26.6960 C.3   151  VAL151      0.1595
     73  C         58.6740   70.1870   25.7860 C.2   151  VAL151      0.2287
     74  O         57.5270   69.7760   25.5880 O.2   151  VAL151     -0.2864
     75  CB        58.8160   68.7060   27.8120 C.3   151  VAL151      0.0276
     76  CG1       59.7100   67.8030   28.6390 C.3   151  VAL151      0.0022
     77  CG2       58.0940   69.7080   28.6940 C.3   151  VAL151      0.0022
     78  N         58.8430   69.9230   22.7970 N.3   153  HIS153     -0.1226
     79  CA        58.5540   68.9330   21.7670 C.3   153  HIS153      0.1752
     80  C         57.2620   68.1670   22.0430 C.2   153  HIS153      0.2596
     81  O         56.6910   67.6160   21.1000 O.2   153  HIS153     -0.2718
     82  CB        59.7420   67.9540   21.5820 C.3   153  HIS153      0.0759
     83  CG        60.0410   67.0870   22.7730 C.ar  153  HIS153      0.0818
     84  ND1       60.8580   67.4970   23.8060 N.ar  153  HIS153     -0.2268
     85  CD2       59.6690   65.8160   23.0700 C.ar  153  HIS153      0.1154
     86  CE1       60.9730   66.5160   24.6900 C.ar  153  HIS153      0.1986
     87  NE2       60.2560   65.4870   24.2710 N.ar  153  HIS153     -0.2212
     88  N         56.7810   68.1270   23.2980 N.am  154  PHE154     -0.1976
     89  CA        55.4810   67.5140   23.5720 C.3   154  PHE154      0.1639
     90  C         54.4070   68.1130   22.6770 C.2   154  PHE154      0.2290
     91  O         53.6120   67.3890   22.0670 O.2   154  PHE154     -0.2864
     92  CB        55.0710   67.7040   25.0400 C.3   154  PHE154      0.0560
     93  CG        55.8050   66.8260   26.0340 C.ar  154  PHE154     -0.0200
     94  CD1       56.8940   66.0490   25.6720 C.ar  154  PHE154     -0.0042
     95  CD2       55.3920   66.8120   27.3560 C.ar  154  PHE154     -0.0042
     96  CE1       57.5670   65.2590   26.6260 C.ar  154  PHE154     -0.0003
     97  CE2       56.0370   66.0160   28.3110 C.ar  154  PHE154     -0.0003
     98  CZ        57.1320   65.2450   27.9460 C.ar  154  PHE154     -0.0000
     99  N         67.7960   67.0390   17.9220 N.3   179  PHE179     -0.1241
    100  CA        67.0500   66.6450   19.1110 C.3   179  PHE179      0.1605
    101  C         67.9600   65.9740   20.1290 C.2   179  PHE179      0.2264
    102  O         67.9190   66.2870   21.3230 O.2   179  PHE179     -0.2867
    103  CB        65.9060   65.7010   18.7360 C.3   179  PHE179      0.0534
    104  CG        65.0270   65.3390   19.9020 C.ar  179  PHE179     -0.0203
    105  CD1       65.3210   64.2440   20.7030 C.ar  179  PHE179     -0.0042
    106  CD2       63.8990   66.0930   20.1950 C.ar  179  PHE179     -0.0042
    107  CE1       64.5190   63.9200   21.7980 C.ar  179  PHE179     -0.0003
    108  CE2       63.0860   65.7760   21.2770 C.ar  179  PHE179     -0.0003
    109  CZ        63.3920   64.6820   22.0830 C.ar  179  PHE179     -0.0000
    110  N         69.4120   67.6790   23.8770 N.3   183  HIS183     -0.1241
    111  CA        69.0580   67.0560   25.1450 C.3   183  HIS183      0.1621
    112  C         70.2400   66.3480   25.7990 C.2   183  HIS183      0.2264
    113  O         70.0380   65.5410   26.7140 O.2   183  HIS183     -0.2867
    114  CB        67.8950   66.0780   24.9300 C.3   183  HIS183      0.0745
    115  CG        66.5880   66.7680   24.6860 C.ar  183  HIS183      0.0817
    116  ND1       66.2010   67.2150   23.4410 N.ar  183  HIS183     -0.2268
    117  CD2       65.6020   67.1310   25.5420 C.ar  183  HIS183      0.1154
    118  CE1       65.0180   67.8060   23.5350 C.ar  183  HIS183      0.1986
    119  NE2       64.6380   67.7780   24.8000 N.ar  183  HIS183     -0.2212
    120  N         53.0220   60.7420   21.5810 N.3   215  TYR215     -0.1241
    121  CA        52.7610   62.0590   22.1500 C.3   215  TYR215      0.1605
    122  C         51.3240   62.4850   21.9160 C.2   215  TYR215      0.2264
    123  O         50.7370   63.1640   22.7610 O.2   215  TYR215     -0.2867
    124  CB        53.7460   63.0720   21.5540 C.3   215  TYR215      0.0534
    125  CG        55.1550   62.7150   21.9340 C.ar  215  TYR215     -0.0201
    126  CD1       55.8670   61.7590   21.2240 C.ar  215  TYR215     -0.0009
    127  CD2       55.7510   63.2880   23.0540 C.ar  215  TYR215     -0.0009
    128  CE1       57.1480   61.3980   21.6050 C.ar  215  TYR215      0.0417
    129  CE2       57.0370   62.9410   23.4350 C.ar  215  TYR215      0.0417
    130  CZ        57.7180   61.9810   22.7100 C.ar  215  TYR215      0.1957
    131  OH        58.9830   61.6120   23.0790 O.3   215  TYR215     -0.2866
    132  N         69.8190   68.8390   29.5190 N.3   246  GLY246     -0.1225
    133  CA        68.9060   67.8080   29.0670 C.3   246  GLY246      0.1811
    134  C         68.4070   66.8960   30.1640 C.2   246  GLY246      0.2280
    135  O         67.4650   66.1130   29.9290 O.2   246  GLY246     -0.2866
    136  N         66.6580   65.6170   33.7540 N.3   248  MET248     -0.1245
    137  CA        65.4890   65.9280   34.5660 C.3   248  MET248      0.1570
    138  C         65.8560   66.4110   35.9560 C.2   248  MET248      0.2261
    139  O         64.9870   66.9460   36.6510 O.2   248  MET248     -0.2867
    140  CB        64.5820   64.7010   34.7110 C.3   248  MET248      0.0387
    141  CG        64.0460   64.1300   33.4150 C.3   248  MET248      0.0595
    142  SD        62.8670   65.2250   32.6140 S.3   248  MET248     -0.1393
    143  CE        61.6710   65.4660   33.9080 C.3   248  MET248      0.0692
    144  N         70.1440   63.6820   28.9430 N.3   273  HIS273     -0.1241
    145  CA        69.0410   62.7430   28.7980 C.3   273  HIS273      0.1621
    146  C         69.5000   61.3220   28.4820 C.2   273  HIS273      0.2264
    147  O         68.8590   60.3540   28.9220 O.2   273  HIS273     -0.2867
    148  CB        68.1110   63.2340   27.6900 C.3   273  HIS273      0.0745
    149  CG        66.9790   62.3100   27.4000 C.ar  273  HIS273      0.0817
    150  ND1       65.9660   62.0730   28.3050 N.ar  273  HIS273     -0.2268
    151  CD2       66.6850   61.5770   26.3000 C.ar  273  HIS273      0.1154
    152  CE1       65.1030   61.2240   27.7780 C.ar  273  HIS273      0.1986
    153  NE2       65.5170   60.9080   26.5610 N.ar  273  HIS273     -0.2212
@<TRIPOS>BOND
     1    99   100    1
     2    11     9   ar
     3    11    10   ar
     4     9     7   ar
     5   103   100    1
     6   103   104    1
     7   100   101    1
     8    10     8   ar
     9     7     6   ar
    10   104   106   ar
    11   104   105   ar
    12   101   102    2
    13   106   108   ar
    14     8     6   ar
    15   105   107   ar
    16     6     5    1
    17    81    80    2
    18     3     2    1
    19     3     4    2
    20   126   128   ar
    21   126   125   ar
    22   108   109   ar
    23   124   125    1
    24   124   121    1
    25   120   121    1
    26    82    79    1
    27    82    83    1
    28   128   130   ar
    29     2     5    1
    30     2     1    1
    31    79    80    1
    32    79    78    1
    33   107   109   ar
    34   122   121    1
    35   122   123    2
    36   125   127   ar
    37    80    88   am
    38    91    90    2
    39    90    89    1
    40   130   131    1
    41   130   129   ar
    42    83    85   ar
    43    83    84   ar
    44    27    25    1
    45   127   129   ar
    46    85    87   ar
    47    88    89    1
    48   116   118   ar
    49   116   115   ar
    50   118   119   ar
    51    89    92    1
    52    84    86   ar
    53   110   111    1
    54    87    86   ar
    55    25    24    1
    56   115   114    1
    57   115   117   ar
    58   119   117   ar
    59   114   111    1
    60    92    93    1
    61   111   112    1
    62    26    24    1
    63    19    17   ar
    64    24    21    1
    65    74    73    2
    66    94    93   ar
    67    94    96   ar
    68    73    72    1
    69   112   113    2
    70    40    41   ar
    71    40    38   ar
    72    93    95   ar
    73   151   153   ar
    74   151   149   ar
    75    17    18   ar
    76    17    16    1
    77    66    65    2
    78    41    39   ar
    79    38    35   ar
    80   153   152   ar
    81    96    98   ar
    82    72    71    1
    83    72    75    1
    84    21    20    1
    85    21    22    1
    86    20    14   am
    87    65    71   am
    88    65    64    1
    89    16    13    1
    90    22    23    2
    91    95    97   ar
    92   149   148    1
    93   149   150   ar
    94   148   145    1
    95    39    37   ar
    96   152   150   ar
    97    75    76    1
    98    75    77    1
    99    35    37   ar
   100    35    33   ar
   101    98    97   ar
   102    64    63    1
   103    64    67    1
   104    14    13    1
   105    14    15    2
   106    37    36   ar
   107    13    12    1
   108   146   145    1
   109   146   147    2
   110    32    33    1
   111    32    29    1
   112   145   144    1
   113    33    34   ar
   114   133   132    1
   115   133   134    1
   116    67    68    1
   117    30    31    2
   118    30    29    1
   119    70    68    1
   120    36    34   ar
   121    29    28    1
   122   135   134    2
   123    68    69    1
   124    45    44    2
   125    55    52    1
   126    50    48   am
   127    46    47    1
   128    46    43    1
   129    44    43    1
   130    44    51   am
   131    52    51    1
   132    52    53    1
   133    62    61    1
   134    62    56    1
   135    47    48    1
   136    48    49    2
   137    61    60    1
   138    43    42    1
   139    59    58    2
   140   142   141    1
   141   142   143    1
   142    56    53   am
   143    56    57    1
   144    53    54    2
   145   141   140    1
   146    58    57    1
   147    60    57    1
   148   136   137    1
   149   137   140    1
   150   137   138    1
   151   138   139    2
