@<TRIPOS>MOLECULE
tmp/5tnmB00.pdb
 164 162 0 0 0
SMALL
GASTEIGER

@<TRIPOS>ATOM
      1  N        -29.7180   46.2430   13.6440 N.3    39  PHE39      -0.1241
      2  CA       -29.1890   45.0630   12.9760 C.3    39  PHE39       0.1605
      3  C        -30.2160   44.4620   12.0330 C.2    39  PHE39       0.2264
      4  O        -31.4120   44.4030   12.3410 O.2    39  PHE39      -0.2867
      5  CB       -28.7680   44.0030   14.0010 C.3    39  PHE39       0.0534
      6  CG       -28.5340   42.6570   13.3890 C.ar   39  PHE39      -0.0203
      7  CD1      -27.3050   42.3510   12.8230 C.ar   39  PHE39      -0.0042
      8  CD2      -29.5500   41.7060   13.3480 C.ar   39  PHE39      -0.0042
      9  CE1      -27.0850   41.1210   12.2290 C.ar   39  PHE39      -0.0003
     10  CE2      -29.3340   40.4700   12.7590 C.ar   39  PHE39      -0.0003
     11  CZ       -28.1030   40.1810   12.1970 C.ar   39  PHE39      -0.0000
     12  N        -32.7810   49.2910   18.2300 N.3   105  ASP105     -0.1225
     13  CA       -31.8410   48.1480   18.2850 C.3   105  ASP105      0.1805
     14  C        -30.4200   48.6910   18.4560 C.2   105  ASP105      0.2597
     15  O        -30.2030   49.5440   19.3330 O.2   105  ASP105     -0.2718
     16  CB       -32.0970   47.2810   17.0530 C.3   105  ASP105      0.1424
     17  CG       -31.3460   45.9690   17.0950 C.2   105  ASP105      0.3668
     18  OD1      -31.8040   45.0440   17.8060 O.co2 105  ASP105     -0.2456
     19  OD2      -30.3080   45.8790   16.4130 O.co2 105  ASP105     -0.2456
     20  N        -29.4310   48.2510   17.6650 N.am  106  ILE106     -0.1980
     21  CA       -28.0570   48.6890   17.9100 C.3   106  ILE106      0.1595
     22  C        -27.8510   50.1550   17.5590 C.2   106  ILE106      0.2287
     23  O        -26.7820   50.7140   17.8460 O.2   106  ILE106     -0.2864
     24  CB       -27.0220   47.8150   17.1690 C.3   106  ILE106      0.0276
     25  CG1      -27.1750   47.9450   15.6520 C.3   106  ILE106      0.0022
     26  CG2      -27.1300   46.3420   17.6260 C.3   106  ILE106      0.0022
     27  CD1      -25.9840   47.3480   14.8730 C.3   106  ILE106      0.0001
     28  N        -26.9660   51.4990   20.8270 N.3   109  TRP109     -0.1241
     29  CA       -25.5710   51.2990   21.2100 C.3   109  TRP109      0.1605
     30  C        -24.6740   52.3450   20.5680 C.2   109  TRP109      0.2264
     31  O        -23.7010   52.8170   21.1750 O.2   109  TRP109     -0.2867
     32  CB       -25.1040   49.9140   20.7780 C.3   109  TRP109      0.0550
     33  CG       -25.9370   48.7780   21.2770 C.ar  109  TRP109      0.0003
     34  CD1      -27.0300   48.8430   22.0970 C.ar  109  TRP109      0.0946
     35  CD2      -25.7200   47.3930   21.0010 C.ar  109  TRP109      0.0152
     36  NE1      -27.5110   47.5730   22.3400 N.ar  109  TRP109     -0.2442
     37  CE2      -26.7150   46.6670   21.6870 C.ar  109  TRP109      0.0810
     38  CE3      -24.7770   46.6950   20.2350 C.ar  109  TRP109      0.0012
     39  CZ2      -26.8020   45.2740   21.6240 C.ar  109  TRP109      0.0191
     40  CZ3      -24.8580   45.3140   20.1750 C.ar  109  TRP109      0.0001
     41  CH2      -25.8600   44.6150   20.8700 C.ar  109  TRP109      0.0015
     42  N        -36.3350   49.1100   21.7350 N.3   129  GLN129     -0.1231
     43  CA       -36.0100   47.7030   21.4470 C.3   129  GLN129      0.1698
     44  C        -34.5040   47.4170   21.3780 C.2   129  GLN129      0.2592
     45  O        -33.9980   46.8380   20.4120 O.2   129  GLN129     -0.2718
     46  CB       -36.7190   47.2310   20.1700 C.3   129  GLN129      0.0381
     47  CG       -38.1930   46.8270   20.3830 C.3   129  GLN129      0.0905
     48  CD       -38.3750   45.6240   21.3230 C.2   129  GLN129      0.2608
     49  OE1      -39.2040   45.6570   22.2350 O.2   129  GLN129     -0.2717
     50  NE2      -37.6040   44.5560   21.0930 N.am  129  GLN129     -0.0878
     51  N        -33.7830   47.8110   22.4350 N.am  130  ALA130     -0.1966
     52  CA       -32.4730   47.2330   22.7510 C.3   130  ALA130      0.1713
     53  C        -32.0080   47.7800   24.0900 C.2   130  ALA130      0.2458
     54  O        -32.2910   48.9360   24.4200 O.2   130  ALA130     -0.2730
     55  CB       -31.4070   47.5420   21.6940 C.3   130  ALA130      0.0333
     56  N        -31.2750   47.0010   24.8740 N.am  131  PRO131     -0.2727
     57  CA       -30.6770   47.5570   26.0900 C.3   131  PRO131      0.1402
     58  C        -29.5600   48.5230   25.7270 C.2   131  PRO131      0.2269
     59  O        -28.8060   48.2870   24.7760 O.2   131  PRO131     -0.2865
     60  CB       -30.1280   46.3210   26.8130 C.3   131  PRO131      0.0296
     61  CG       -29.8610   45.3210   25.6900 C.3   131  PRO131      0.0237
     62  CD       -30.9500   45.5750   24.6720 C.3   131  PRO131      0.0939
     63  N        -29.7060   38.1830   30.8600 N.3   140  PHE140     -0.1241
     64  CA       -30.6330   37.5540   29.9320 C.3   140  PHE140      0.1605
     65  C        -30.2970   36.0710   29.7870 C.2   140  PHE140      0.2264
     66  O        -29.1180   35.7050   29.7170 O.2   140  PHE140     -0.2867
     67  CB       -30.5570   38.2270   28.5690 C.3   140  PHE140      0.0534
     68  CG       -31.2300   39.5660   28.5060 C.ar  140  PHE140     -0.0203
     69  CD1      -32.6060   39.6530   28.3690 C.ar  140  PHE140     -0.0042
     70  CD2      -30.4860   40.7330   28.5350 C.ar  140  PHE140     -0.0042
     71  CE1      -33.2380   40.8880   28.2950 C.ar  140  PHE140     -0.0003
     72  CE2      -31.1130   41.9770   28.4730 C.ar  140  PHE140     -0.0003
     73  CZ       -32.4870   42.0500   28.3510 C.ar  140  PHE140     -0.0000
     74  N        -34.2790   35.1800   23.3380 N.3   150  LEU150     -0.1231
     75  CA       -34.2250   36.3630   22.4910 C.3   150  LEU150      0.1693
     76  C        -32.8150   36.8840   22.2560 C.2   150  LEU150      0.2591
     77  O        -32.6000   37.5980   21.2700 O.2   150  LEU150     -0.2718
     78  CB       -35.0550   37.4910   23.1020 C.3   150  LEU150      0.0284
     79  CG       -36.5770   37.3240   23.0350 C.3   150  LEU150      0.0019
     80  CD1      -37.2540   38.5560   23.6070 C.3   150  LEU150      0.0001
     81  CD2      -37.0240   37.0770   21.6040 C.3   150  LEU150      0.0001
     82  N        -31.8510   36.5220   23.1040 N.am  151  VAL151     -0.1980
     83  CA       -30.5710   37.2170   23.1030 C.3   151  VAL151      0.1595
     84  C        -29.3890   36.2840   22.8840 C.2   151  VAL151      0.2287
     85  O        -28.2390   36.7330   22.9200 O.2   151  VAL151     -0.2864
     86  CB       -30.3880   38.0120   24.4050 C.3   151  VAL151      0.0276
     87  CG1      -31.3500   39.1930   24.4420 C.3   151  VAL151      0.0022
     88  CG2      -30.6400   37.0800   25.5330 C.3   151  VAL151      0.0022
     89  N        -28.2840   35.3840   20.2570 N.3   153  HIS153     -0.1226
     90  CA       -27.5390   35.9080   19.1210 C.3   153  HIS153      0.1752
     91  C        -26.3940   36.8220   19.5450 C.2   153  HIS153      0.2596
     92  O        -25.4360   36.9720   18.7790 O.2   153  HIS153     -0.2718
     93  CB       -28.4740   36.6360   18.1310 C.3   153  HIS153      0.0759
     94  CG       -29.0770   37.9140   18.6370 C.ar  153  HIS153      0.0818
     95  ND1      -30.2410   37.9530   19.3800 N.ar  153  HIS153     -0.2268
     96  CD2      -28.7140   39.2050   18.4360 C.ar  153  HIS153      0.1154
     97  CE1      -30.5530   39.2150   19.6350 C.ar  153  HIS153      0.1986
     98  NE2      -29.6430   39.9940   19.0740 N.ar  153  HIS153     -0.2212
     99  N        -26.4440   37.4110   20.7490 N.am  154  PHE154     -0.1976
    100  CA       -25.2990   38.2000   21.2250 C.3   154  PHE154      0.1639
    101  C        -24.0200   37.3690   21.1870 C.2   154  PHE154      0.2290
    102  O        -22.9690   37.8420   20.7440 O.2   154  PHE154     -0.2864
    103  CB       -25.5060   38.7030   22.6620 C.3   154  PHE154      0.0560
    104  CG       -26.4630   39.8750   22.8110 C.ar  154  PHE154     -0.0200
    105  CD1      -27.3570   40.2280   21.8090 C.ar  154  PHE154     -0.0042
    106  CD2      -26.4640   40.6130   23.9880 C.ar  154  PHE154     -0.0042
    107  CE1      -28.2310   41.3040   21.9850 C.ar  154  PHE154     -0.0003
    108  CE2      -27.3380   41.6850   24.1740 C.ar  154  PHE154     -0.0003
    109  CZ       -28.2270   42.0270   23.1600 C.ar  154  PHE154     -0.0000
    110  N        -34.2600   35.0900   11.6260 N.3   179  PHE179     -0.1241
    111  CA       -33.9670   36.0210   12.7160 C.3   179  PHE179      0.1605
    112  C        -35.1100   37.0010   12.9000 C.2   179  PHE179      0.2264
    113  O        -35.5470   37.2600   14.0260 O.2   179  PHE179     -0.2867
    114  CB       -32.6770   36.7890   12.4480 C.3   179  PHE179      0.0534
    115  CG       -32.2540   37.6790   13.5920 C.ar  179  PHE179     -0.0203
    116  CD1      -31.4510   37.1860   14.6090 C.ar  179  PHE179     -0.0042
    117  CD2      -32.6670   39.0000   13.6530 C.ar  179  PHE179     -0.0042
    118  CE1      -31.0640   37.9920   15.6680 C.ar  179  PHE179     -0.0003
    119  CE2      -32.2880   39.8220   14.7060 C.ar  179  PHE179     -0.0003
    120  CZ       -31.4790   39.3200   15.7170 C.ar  179  PHE179     -0.0000
    121  N        -38.0050   37.0230   16.1910 N.3   183  HIS183     -0.1241
    122  CA       -38.1040   38.1860   17.0580 C.3   183  HIS183      0.1621
    123  C        -39.3500   39.0180   16.7720 C.2   183  HIS183      0.2264
    124  O        -39.4650   40.1370   17.2840 O.2   183  HIS183     -0.2867
    125  CB       -36.8350   39.0360   16.9320 C.3   183  HIS183      0.0745
    126  CG       -35.6190   38.3670   17.5080 C.ar  183  HIS183      0.0817
    127  ND1      -34.8630   37.4530   16.8030 N.ar  183  HIS183     -0.2268
    128  CD2      -35.0610   38.4400   18.7420 C.ar  183  HIS183      0.1154
    129  CE1      -33.8840   37.0030   17.5730 C.ar  183  HIS183      0.1986
    130  NE2      -33.9790   37.5900   18.7530 N.ar  183  HIS183     -0.2212
    131  N        -21.3080   43.4820   17.4790 N.3   215  TYR215     -0.1241
    132  CA       -21.4380   42.5800   18.6260 C.3   215  TYR215      0.1605
    133  C        -20.0790   42.1550   19.1770 C.2   215  TYR215      0.2264
    134  O        -19.9390   41.9380   20.3880 O.2   215  TYR215     -0.2867
    135  CB       -22.2730   41.3570   18.2280 C.3   215  TYR215      0.0534
    136  CG       -23.6970   41.7450   17.8730 C.ar  215  TYR215     -0.0201
    137  CD1      -24.0110   42.2360   16.6010 C.ar  215  TYR215     -0.0009
    138  CD2      -24.7230   41.6580   18.8180 C.ar  215  TYR215     -0.0009
    139  CE1      -25.3290   42.6280   16.2860 C.ar  215  TYR215      0.0417
    140  CE2      -26.0490   42.0420   18.5040 C.ar  215  TYR215      0.0417
    141  CZ       -26.3230   42.5220   17.2330 C.ar  215  TYR215      0.1957
    142  OH       -27.6070   42.9080   16.8970 O.3   215  TYR215     -0.2866
    143  N        -40.8690   38.6390   21.0970 N.3   246  GLY246     -0.1225
    144  CA       -39.7680   39.4540   20.6130 C.3   246  GLY246      0.1811
    145  C        -39.6480   40.8180   21.2640 C.2   246  GLY246      0.2280
    146  O        -38.6330   41.5110   21.0620 O.2   246  GLY246     -0.2866
    147  N        -39.1950   43.6750   24.2590 N.3   248  MET248     -0.1245
    148  CA       -38.4760   43.8300   25.5200 C.3   248  MET248      0.1570
    149  C        -39.3750   44.0970   26.7210 C.2   248  MET248      0.2261
    150  O        -38.8800   44.0770   27.8530 O.2   248  MET248     -0.2867
    151  CB       -37.4610   44.9520   25.3800 C.3   248  MET248      0.0387
    152  CG       -36.5490   44.7270   24.2190 C.3   248  MET248      0.0595
    153  SD       -34.9340   45.3930   24.5760 S.3   248  MET248     -0.1393
    154  CE       -34.5820   44.5630   26.1230 C.3   248  MET248      0.0692
    155  N        -40.2640   42.8950   18.0890 N.3   273  HIS273     -0.1241
    156  CA       -39.0380   43.6840   18.0370 C.3   273  HIS273      0.1621
    157  C        -39.0740   44.7740   16.9740 C.2   273  HIS273      0.2264
    158  O        -38.4990   45.8590   17.1710 O.2   273  HIS273     -0.2867
    159  CB       -37.8620   42.7500   17.7640 C.3   273  HIS273      0.0745
    160  CG       -36.5500   43.4500   17.6030 C.ar  273  HIS273      0.0817
    161  ND1      -35.8870   44.0460   18.6540 N.ar  273  HIS273     -0.2268
    162  CD2      -35.7730   43.6370   16.5090 C.ar  273  HIS273      0.1154
    163  CE1      -34.7550   44.5690   18.2150 C.ar  273  HIS273      0.1986
    164  NE2      -34.6690   44.3480   16.9130 N.ar  273  HIS273     -0.2212
@<TRIPOS>BOND
     1   110   111    1
     2     3     4    2
     3     3     2    1
     4    11     9   ar
     5    11    10   ar
     6     9     7   ar
     7   114   111    1
     8   114   115    1
     9   111   112    1
    10    10     8   ar
    11     7     6   ar
    12   112   113    2
    13     2     1    1
    14     2     5    1
    15     8     6   ar
    16     6     5    1
    17   115   117   ar
    18   115   116   ar
    19   117   119   ar
    20   116   118   ar
    21   119   120   ar
    22    27    25    1
    23    25    24    1
    24   118   120   ar
    25   121   122    1
    26   139   137   ar
    27   139   141   ar
    28    19    17   ar
    29   162   164   ar
    30   162   160   ar
    31   137   136   ar
    32   123   122    1
    33   123   124    2
    34   127   126   ar
    35   127   129   ar
    36   142   141    1
    37   164   163   ar
    38   125   122    1
    39   125   126    1
    40   157   158    2
    41   157   156    1
    42    16    17    1
    43    16    13    1
    44    17    18   ar
    45    24    26    1
    46    24    21    1
    47   141   140   ar
    48   131   132    1
    49   126   128   ar
    50    22    23    2
    51    22    21    1
    52   129   130   ar
    53   160   159    1
    54   160   161   ar
    55    20    21    1
    56    20    14   am
    57   159   156    1
    58   136   135    1
    59   136   138   ar
    60   156   155    1
    61    93    94    1
    62    93    90    1
    63   163   161   ar
    64   135   132    1
    65    12    13    1
    66    13    14    1
    67    96    94   ar
    68    96    98   ar
    69    14    15    2
    70   140   138   ar
    71   132   133    1
    72    94    95   ar
    73   128   130   ar
    74    92    91    2
    75    98    97   ar
    76    90    91    1
    77    90    89    1
    78   133   134    2
    79    95    97   ar
    80    91    99   am
    81    46    47    1
    82    46    43    1
    83    40    38   ar
    84    40    41   ar
    85    38    35   ar
    86    47    48    1
    87    45    44    2
    88    30    31    2
    89    30    29    1
    90   144   143    1
    91   144   145    1
    92   102   101    2
    93    99   100    1
    94    32    29    1
    95    32    33    1
    96    28    29    1
    97    41    39   ar
    98    35    33   ar
    99    35    37   ar
   100   146   145    2
   101    50    48   am
   102   101   100    1
   103   100   103    1
   104    77    76    2
   105    33    34   ar
   106    48    49    2
   107    44    43    1
   108    44    51   am
   109    43    42    1
   110    81    79    1
   111    39    37   ar
   112    37    36   ar
   113    55    52    1
   114   105   107   ar
   115   105   104   ar
   116   107   109   ar
   117    34    36   ar
   118    76    75    1
   119    76    82   am
   120    51    52    1
   121    75    78    1
   122    75    74    1
   123   103   104    1
   124    52    53    1
   125   104   106   ar
   126    84    85    2
   127    84    83    1
   128    79    78    1
   129    79    80    1
   130    83    82    1
   131    83    86    1
   132   109   108   ar
   133   106   108   ar
   134    53    54    2
   135    53    56   am
   136   152   153    1
   137   152   151    1
   138   147   148    1
   139    86    87    1
   140    86    88    1
   141   153   154    1
   142    62    56    1
   143    62    61    1
   144    59    58    2
   145    56    57    1
   146   151   148    1
   147   148   149    1
   148    61    60    1
   149    58    57    1
   150    57    60    1
   151   149   150    2
   152    71    73   ar
   153    71    69   ar
   154    73    72   ar
   155    69    68   ar
   156    72    70   ar
   157    68    70   ar
   158    68    67    1
   159    67    64    1
   160    66    65    2
   161    65    64    1
   162    64    63    1
