@<TRIPOS>MOLECULE
tmp/5tnnD00.pdb
 178 178 0 0 0
SMALL
GASTEIGER

@<TRIPOS>ATOM
      1  N         13.5990   10.9340   13.9900 N.3    39  PHE39      -0.1241
      2  CA        13.0500   12.1050   13.3130 C.3    39  PHE39       0.1605
      3  C         14.0690   12.7200   12.3640 C.2    39  PHE39       0.2264
      4  O         15.2720   12.7590   12.6420 O.2    39  PHE39      -0.2867
      5  CB        12.6060   13.1770   14.3120 C.3    39  PHE39       0.0534
      6  CG        12.3390   14.5210   13.6650 C.ar   39  PHE39      -0.0203
      7  CD1       11.1090   14.7930   13.0940 C.ar   39  PHE39      -0.0042
      8  CD2       13.3310   15.5020   13.6110 C.ar   39  PHE39      -0.0042
      9  CE1       10.8520   16.0260   12.4850 C.ar   39  PHE39      -0.0003
     10  CE2       13.0830   16.7300   12.9960 C.ar   39  PHE39      -0.0003
     11  CZ        11.8400   16.9820   12.4300 C.ar   39  PHE39      -0.0000
     12  N         16.5700    7.8690   18.5920 N.3   105  ASP105     -0.1225
     13  CA        15.6610    9.0360   18.6600 C.3   105  ASP105      0.1805
     14  C         14.2230    8.5280   18.8010 C.2   105  ASP105      0.2597
     15  O         13.9570    7.6840   19.6740 O.2   105  ASP105     -0.2718
     16  CB        15.9560    9.9190   17.4570 C.3   105  ASP105      0.1424
     17  CG        15.1650   11.2210   17.4740 C.2   105  ASP105      0.3668
     18  OD1       15.5530   12.1680   18.2050 O.co2 105  ASP105     -0.2456
     19  OD2       14.1780   11.2970   16.7210 O.co2 105  ASP105     -0.2456
     20  N         13.2610    8.9890   17.9970 N.am  106  ILE106     -0.1980
     21  CA        11.8860    8.5210   18.2140 C.3   106  ILE106      0.1595
     22  C         11.7000    7.0520   17.8570 C.2   106  ILE106      0.2287
     23  O         10.6420    6.4710   18.1630 O.2   106  ILE106     -0.2864
     24  CB        10.8400    9.3500   17.4430 C.3   106  ILE106      0.0276
     25  CG1       11.0230    9.1860   15.9370 C.3   106  ILE106      0.0022
     26  CG2       10.9390   10.8260   17.8410 C.3   106  ILE106      0.0022
     27  CD1        9.9460    9.9140   15.1080 C.3   106  ILE106      0.0001
     28  N         10.8080    5.6940   21.0680 N.3   109  TRP109     -0.1241
     29  CA         9.4160    5.9010   21.4570 C.3   109  TRP109      0.1605
     30  C          8.5190    4.8540   20.8370 C.2   109  TRP109      0.2264
     31  O          7.5410    4.4090   21.4520 O.2   109  TRP109     -0.2867
     32  CB         8.9340    7.2820   21.0150 C.3   109  TRP109      0.0550
     33  CG         9.7450    8.4280   21.5020 C.ar  109  TRP109      0.0003
     34  CD1       10.8600    8.3810   22.2960 C.ar  109  TRP109      0.0946
     35  CD2        9.4970    9.8090   21.2320 C.ar  109  TRP109      0.0152
     36  NE1       11.3210    9.6590   22.5310 N.ar  109  TRP109     -0.2442
     37  CE2       10.5030   10.5510   21.8850 C.ar  109  TRP109      0.0810
     38  CE3        8.5220   10.4910   20.4870 C.ar  109  TRP109      0.0012
     39  CZ2       10.5650   11.9480   21.8240 C.ar  109  TRP109      0.0191
     40  CZ3        8.5780   11.8830   20.4300 C.ar  109  TRP109      0.0001
     41  CH2        9.5960   12.5940   21.0940 C.ar  109  TRP109      0.0015
     42  N         20.2540    7.9390   22.0520 N.3   129  GLN129     -0.1231
     43  CA        19.9830    9.3600   21.7830 C.3   129  GLN129      0.1698
     44  C         18.4880    9.6930   21.6970 C.2   129  GLN129      0.2592
     45  O         18.0080   10.2470   20.7090 O.2   129  GLN129     -0.2718
     46  CB        20.7160    9.8220   20.5120 C.3   129  GLN129      0.0381
     47  CG        22.2080   10.2370   20.7590 C.3   129  GLN129      0.0905
     48  CD        22.3400   11.4750   21.6740 C.2   129  GLN129      0.2608
     49  OE1       23.1600   11.4920   22.5940 O.2   129  GLN129     -0.2717
     50  NE2       21.5260   12.5130   21.4160 N.am  129  GLN129     -0.0878
     51  N         17.7650    9.3850   22.7740 N.am  130  ALA130     -0.1966
     52  CA        16.4680    9.9910   23.0770 C.3   130  ALA130      0.1713
     53  C         15.9470    9.4130   24.3790 C.2   130  ALA130      0.2458
     54  O         16.2150    8.2470   24.6850 O.2   130  ALA130     -0.2730
     55  CB        15.4200    9.7580   21.9900 C.3   130  ALA130      0.0333
     56  N         15.1990   10.1790   25.1630 N.am  131  PRO131     -0.2727
     57  CA        14.6060    9.6060   26.3680 C.3   131  PRO131      0.1402
     58  C         13.4880    8.6580   25.9870 C.2   131  PRO131      0.2269
     59  O         12.8050    8.8380   24.9740 O.2   131  PRO131     -0.2865
     60  CB        14.0670   10.8310   27.1210 C.3   131  PRO131      0.0296
     61  CG        13.7320   11.7960   26.0420 C.3   131  PRO131      0.0237
     62  CD        14.7800   11.5770   24.9500 C.3   131  PRO131      0.0939
     63  N         13.5660   19.0380   31.1070 N.3   140  PHE140     -0.1241
     64  CA        14.4970   19.6920   30.1940 C.3   140  PHE140      0.1605
     65  C         14.1510   21.1760   30.0670 C.2   140  PHE140      0.2264
     66  O         12.9690   21.5330   30.0060 O.2   140  PHE140     -0.2867
     67  CB        14.4510   19.0300   28.8230 C.3   140  PHE140      0.0534
     68  CG        15.0920   17.6750   28.7870 C.ar  140  PHE140     -0.0203
     69  CD1       16.4730   17.5540   28.7440 C.ar  140  PHE140     -0.0042
     70  CD2       14.3230   16.5260   28.7870 C.ar  140  PHE140     -0.0042
     71  CE1       17.0690   16.3080   28.7140 C.ar  140  PHE140     -0.0003
     72  CE2       14.9150   15.2800   28.7570 C.ar  140  PHE140     -0.0003
     73  CZ        16.2880   15.1700   28.7260 C.ar  140  PHE140     -0.0000
     74  N         18.0610   22.0020   23.8170 N.3   150  LEU150     -0.1231
     75  CA        18.0780   20.7900   23.0110 C.3   150  LEU150      0.1693
     76  C         16.6880   20.2980   22.6330 C.2   150  LEU150      0.2591
     77  O         16.5450   19.6580   21.5870 O.2   150  LEU150     -0.2718
     78  CB        18.8040   19.6700   23.7530 C.3   150  LEU150      0.0284
     79  CG        20.3220   19.7890   23.8830 C.3   150  LEU150      0.0019
     80  CD1       20.8640   18.5480   24.5570 C.3   150  LEU150      0.0001
     81  CD2       20.9980   20.0120   22.5270 C.3   150  LEU150      0.0001
     82  N         15.6670   20.5300   23.4620 N.am  151  VAL151     -0.1980
     83  CA        14.3930   19.8530   23.2080 C.3   151  VAL151      0.1595
     84  C         13.2270   20.8300   23.1330 C.2   151  VAL151      0.2287
     85  O         12.0630   20.4240   23.2350 O.2   151  VAL151     -0.2864
     86  CB        14.1090   18.7620   24.2580 C.3   151  VAL151      0.0276
     87  CG1       15.2930   17.8120   24.3820 C.3   151  VAL151      0.0022
     88  CG2       13.7880   19.3690   25.5790 C.3   151  VAL151      0.0022
     89  N         12.1270   21.7890   20.5790 N.3   153  HIS153     -0.1226
     90  CA        11.3730   21.2930   19.4370 C.3   153  HIS153      0.1752
     91  C         10.2320   20.3630   19.8320 C.2   153  HIS153      0.2596
     92  O          9.2890   20.2210   19.0430 O.2   153  HIS153     -0.2718
     93  CB        12.3250   20.5990   18.4340 C.3   153  HIS153      0.0759
     94  CG        12.9130   19.3040   18.9170 C.ar  153  HIS153      0.0818
     95  ND1       14.1260   19.2300   19.5730 N.ar  153  HIS153     -0.2268
     96  CD2       12.4850   18.0220   18.7770 C.ar  153  HIS153      0.1154
     97  CE1       14.4000   17.9670   19.8480 C.ar  153  HIS153      0.1986
     98  NE2       13.4190   17.2140   19.3780 N.ar  153  HIS153     -0.2212
     99  N         10.2620   19.7560   21.0310 N.am  154  PHE154     -0.1976
    100  CA         9.1100   18.9650   21.4770 C.3   154  PHE154      0.1639
    101  C          7.8350   19.8080   21.4310 C.2   154  PHE154      0.2290
    102  O          6.8020   19.3670   20.9260 O.2   154  PHE154     -0.2864
    103  CB         9.2940   18.4310   22.9070 C.3   154  PHE154      0.0560
    104  CG        10.2950   17.2950   23.0660 C.ar  154  PHE154     -0.0200
    105  CD1       11.0910   16.8570   22.0250 C.ar  154  PHE154     -0.0042
    106  CD2       10.4080   16.6610   24.2940 C.ar  154  PHE154     -0.0042
    107  CE1       11.9950   15.8010   22.2190 C.ar  154  PHE154     -0.0003
    108  CE2       11.3100   15.6100   24.4900 C.ar  154  PHE154     -0.0003
    109  CZ        12.0970   15.1780   23.4520 C.ar  154  PHE154     -0.0000
    110  N         18.1540   22.1580   12.0070 N.3   179  PHE179     -0.1241
    111  CA        17.8600   21.1970   13.0680 C.3   179  PHE179      0.1605
    112  C         19.0060   20.2060   13.2510 C.2   179  PHE179      0.2264
    113  O         19.4320   19.9360   14.3800 O.2   179  PHE179     -0.2867
    114  CB        16.5580   20.4480   12.7620 C.3   179  PHE179      0.0534
    115  CG        16.1090   19.5360   13.8720 C.ar  179  PHE179     -0.0203
    116  CD1       15.3010   20.0280   14.9030 C.ar  179  PHE179     -0.0042
    117  CD2       16.4810   18.1970   13.8910 C.ar  179  PHE179     -0.0042
    118  CE1       14.8780   19.1970   15.9470 C.ar  179  PHE179     -0.0003
    119  CE2       16.0640   17.3510   14.9310 C.ar  179  PHE179     -0.0003
    120  CZ        15.2530   17.8570   15.9600 C.ar  179  PHE179     -0.0000
    121  N         21.9240   20.1310   16.5290 N.3   183  HIS183     -0.1241
    122  CA        22.0240   18.9800   17.4290 C.3   183  HIS183      0.1621
    123  C         23.2640   18.1380   17.1560 C.2   183  HIS183      0.2264
    124  O         23.3770   17.0150   17.6670 O.2   183  HIS183     -0.2867
    125  CB        20.7580   18.1250   17.3370 C.3   183  HIS183      0.0745
    126  CG        19.5230   18.8500   17.7920 C.ar  183  HIS183      0.0817
    127  ND1       18.7490   19.6110   16.9410 N.ar  183  HIS183     -0.2268
    128  CD2       18.9600   18.9710   19.0190 C.ar  183  HIS183      0.1154
    129  CE1       17.7480   20.1510   17.6190 C.ar  183  HIS183      0.1986
    130  NE2       17.8530   19.7800   18.8830 N.ar  183  HIS183     -0.2212
    131  N          5.1280   13.7290   17.7710 N.3   215  TYR215     -0.1241
    132  CA         5.2380   14.6270   18.9170 C.3   215  TYR215      0.1605
    133  C          3.8770   15.0320   19.4650 C.2   215  TYR215      0.2264
    134  O          3.7220   15.2230   20.6820 O.2   215  TYR215     -0.2867
    135  CB         6.0390   15.8590   18.5080 C.3   215  TYR215      0.0534
    136  CG         7.4660   15.4770   18.1370 C.ar  215  TYR215     -0.0201
    137  CD1        7.7590   14.9210   16.8980 C.ar  215  TYR215     -0.0009
    138  CD2        8.5050   15.6350   19.0400 C.ar  215  TYR215     -0.0009
    139  CE1        9.0530   14.5350   16.5760 C.ar  215  TYR215      0.0417
    140  CE2        9.8080   15.2690   18.7130 C.ar  215  TYR215      0.0417
    141  CZ        10.0640   14.7200   17.4790 C.ar  215  TYR215      0.1957
    142  OH        11.3460   14.3430   17.1360 O.3   215  TYR215     -0.2866
    143  N         24.7760   18.5320   21.5090 N.3   246  GLY246     -0.1225
    144  CA        23.6510   17.7580   21.0170 C.3   246  GLY246      0.1811
    145  C         23.5150   16.3720   21.6090 C.2   246  GLY246      0.2280
    146  O         22.5010   15.7020   21.3580 O.2   246  GLY246     -0.2866
    147  N         23.1060   13.3630   24.5500 N.3   248  MET248     -0.1245
    148  CA        22.4180   13.1750   25.8300 C.3   248  MET248      0.1570
    149  C         23.3730   12.9920   27.0120 C.2   248  MET248      0.2261
    150  O         22.9420   13.1080   28.1650 O.2   248  MET248     -0.2867
    151  CB        21.4730   11.9720   25.7450 C.3   248  MET248      0.0387
    152  CG        20.3640   12.1410   24.7360 C.3   248  MET248      0.0595
    153  SD        18.8210   12.6600   25.5230 S.3   248  MET248     -0.1393
    154  CE        18.2910   11.0810   26.1560 C.3   248  MET248      0.0692
    155  N         24.1250   14.2990   18.4330 N.3   273  HIS273     -0.1226
    156  CA        22.9240   13.4690   18.3900 C.3   273  HIS273      0.1752
    157  C         22.9610   12.4090   17.2910 C.2   273  HIS273      0.2596
    158  O         22.4130   11.3180   17.4700 O.2   273  HIS273     -0.2718
    159  CB        21.6980   14.3650   18.2010 C.3   273  HIS273      0.0759
    160  CG        20.4250   13.6140   18.0020 C.ar  273  HIS273      0.0818
    161  ND1       19.8370   12.8670   19.0000 N.ar  273  HIS273     -0.2268
    162  CD2       19.6170   13.5030   16.9200 C.ar  273  HIS273      0.1154
    163  CE1       18.7190   12.3300   18.5430 C.ar  273  HIS273      0.1986
    164  NE2       18.5650   12.6960   17.2820 N.ar  273  HIS273     -0.2212
    165  N         23.5830   12.7010   16.1530 N.am  274  TRP274     -0.1976
    166  CA        23.4580   11.8630   14.9620 C.3   274  TRP274      0.1640
    167  C         24.5570   10.7910   14.9240 C.2   274  TRP274      0.2290
    168  O         25.3680   10.7140   13.9990 O.2   274  TRP274     -0.2864
    169  CB        23.4830   12.7460   13.7220 C.3   274  TRP274      0.0576
    170  CG        22.6090   13.9600   13.8870 C.ar  274  TRP274      0.0006
    171  CD1       22.9950   15.2270   14.2460 C.ar  274  TRP274      0.0946
    172  CD2       21.1800   14.0030   13.7450 C.ar  274  TRP274      0.0152
    173  NE1       21.8870   16.0540   14.3180 N.ar  274  TRP274     -0.2442
    174  CE2       20.7680   15.3280   14.0100 C.ar  274  TRP274      0.0810
    175  CE3       20.2180   13.0530   13.4000 C.ar  274  TRP274      0.0012
    176  CZ2       19.4250   15.7260   13.9450 C.ar  274  TRP274      0.0191
    177  CZ3       18.8810   13.4410   13.3360 C.ar  274  TRP274      0.0001
    178  CH2       18.4960   14.7680   13.6190 C.ar  274  TRP274      0.0015
@<TRIPOS>BOND
     1   110   111    1
     2     3     4    2
     3     3     2    1
     4    11     9   ar
     5    11    10   ar
     6     9     7   ar
     7   114   111    1
     8   114   115    1
     9    10     8   ar
    10   111   112    1
    11     7     6   ar
    12   112   113    2
    13     2     1    1
    14     2     5    1
    15   177   175   ar
    16   177   178   ar
    17   175   172   ar
    18     8     6   ar
    19   178   176   ar
    20     6     5    1
    21   169   170    1
    22   169   166    1
    23   172   170   ar
    24   172   174   ar
    25   115   117   ar
    26   115   116   ar
    27   170   171   ar
    28   117   119   ar
    29   176   174   ar
    30   168   167    2
    31   174   173   ar
    32   171   173   ar
    33   116   118   ar
    34   167   166    1
    35   119   120   ar
    36   166   165    1
    37    27    25    1
    38    25    24    1
    39   118   120   ar
    40   165   157   am
    41   121   122    1
    42   139   137   ar
    43   139   141   ar
    44    19    17   ar
    45   137   136   ar
    46   162   164   ar
    47   162   160   ar
    48   127   129   ar
    49   127   126   ar
    50   142   141    1
    51   123   122    1
    52   123   124    2
    53   164   163   ar
    54   157   158    2
    55   157   156    1
    56   125   122    1
    57   125   126    1
    58    24    26    1
    59    24    21    1
    60    16    17    1
    61    16    13    1
    62    17    18   ar
    63   141   140   ar
    64   129   130   ar
    65   131   132    1
    66   126   128   ar
    67    22    23    2
    68    22    21    1
    69    20    21    1
    70    20    14   am
    71   160   159    1
    72   160   161   ar
    73   136   135    1
    74   136   138   ar
    75   159   156    1
    76   156   155    1
    77    93    94    1
    78    93    90    1
    79   135   132    1
    80   163   161   ar
    81    12    13    1
    82    13    14    1
    83   140   138   ar
    84    96    94   ar
    85    96    98   ar
    86    14    15    2
    87   130   128   ar
    88   132   133    1
    89    94    95   ar
    90    92    91    2
    91    98    97   ar
    92    90    91    1
    93    90    89    1
    94   133   134    2
    95    95    97   ar
    96    91    99   am
    97    40    38   ar
    98    40    41   ar
    99    38    35   ar
   100    46    47    1
   101    46    43    1
   102    45    44    2
   103    47    48    1
   104    30    31    2
   105    30    29    1
   106   102   101    2
   107    32    29    1
   108    32    33    1
   109   144   143    1
   110   144   145    1
   111    99   100    1
   112    28    29    1
   113    41    39   ar
   114    35    33   ar
   115    35    37   ar
   116   146   145    2
   117    50    48   am
   118   101   100    1
   119   100   103    1
   120    33    34   ar
   121    77    76    2
   122    48    49    2
   123    44    43    1
   124    44    51   am
   125    43    42    1
   126    39    37   ar
   127    37    36   ar
   128    55    52    1
   129   105   107   ar
   130   105   104   ar
   131   107   109   ar
   132    34    36   ar
   133    81    79    1
   134    76    75    1
   135    76    82   am
   136    51    52    1
   137   103   104    1
   138    75    78    1
   139    75    74    1
   140   104   106   ar
   141    52    53    1
   142    84    83    1
   143    84    85    2
   144    83    82    1
   145    83    86    1
   146   109   108   ar
   147    78    79    1
   148    79    80    1
   149    86    87    1
   150    86    88    1
   151   106   108   ar
   152    53    54    2
   153    53    56   am
   154   147   148    1
   155   152   153    1
   156   152   151    1
   157    62    56    1
   158    62    61    1
   159    59    58    2
   160    56    57    1
   161   153   154    1
   162   151   148    1
   163   148   149    1
   164    58    57    1
   165    61    60    1
   166    57    60    1
   167   149   150    2
   168    71    73   ar
   169    71    69   ar
   170    73    72   ar
   171    69    68   ar
   172    72    70   ar
   173    70    68   ar
   174    68    67    1
   175    67    64    1
   176    66    65    2
   177    65    64    1
   178    64    63    1
