@<TRIPOS>MOLECULE
tmp/5tnoA00.pdb
 165 164 0 0 0
SMALL
GASTEIGER

@<TRIPOS>ATOM
      1  N         -3.7390  -42.5340   -9.3780 N.3    41  HIS41      -0.1241
      2  CA        -4.4320  -42.4910  -10.6690 C.3    41  HIS41       0.1621
      3  C         -3.8610  -41.4240  -11.5990 C.2    41  HIS41       0.2264
      4  O         -4.0710  -41.4890  -12.8030 O.2    41  HIS41      -0.2867
      5  CB        -5.9440  -42.3500  -10.5010 C.3    41  HIS41       0.0745
      6  CG        -6.4650  -40.9800  -10.3020 C.ar   41  HIS41       0.0817
      7  ND1       -6.7070  -40.4770   -9.0390 N.ar   41  HIS41      -0.2268
      8  CD2       -6.7860  -40.0370  -11.2210 C.ar   41  HIS41       0.1154
      9  CE1       -7.1370  -39.2350   -9.2230 C.ar   41  HIS41       0.1986
     10  NE2       -7.2320  -38.9440  -10.5310 N.ar   41  HIS41      -0.2212
     11  N         -9.7480  -50.9460   -9.0740 N.3    81  ASN81      -0.1240
     12  CA       -10.3990  -49.6930   -8.8060 C.3    81  ASN81       0.1653
     13  C         -9.3370  -48.5900   -8.9060 C.2    81  ASN81       0.2266
     14  O         -8.3970  -48.5910   -8.1320 O.2    81  ASN81      -0.2867
     15  CB       -11.0670  -49.6650   -7.4400 C.3    81  ASN81       0.1155
     16  CG       -11.9010  -48.4160   -7.1540 C.2    81  ASN81       0.2627
     17  OD1      -11.8100  -47.3710   -7.8230 O.2    81  ASN81      -0.2716
     18  ND2      -12.7380  -48.4880   -6.1380 N.am   81  ASN81      -0.0877
     19  N         -9.4260  -45.6510   -8.0040 N.3    83  TYR83      -0.1241
     20  CA        -9.4570  -44.6960   -6.9050 C.3    83  TYR83       0.1605
     21  C         -9.3160  -45.3030   -5.4760 C.2    83  TYR83       0.2264
     22  O         -9.4480  -44.5570   -4.5050 O.2    83  TYR83      -0.2867
     23  CB       -10.7510  -43.8960   -7.0550 C.3    83  TYR83       0.0534
     24  CG       -10.8470  -43.2260   -8.4110 C.ar   83  TYR83      -0.0201
     25  CD1      -10.1300  -42.0640   -8.6890 C.ar   83  TYR83      -0.0009
     26  CD2      -11.5820  -43.7970   -9.4430 C.ar   83  TYR83      -0.0009
     27  CE1      -10.1860  -41.4630   -9.9430 C.ar   83  TYR83       0.0417
     28  CE2      -11.6180  -43.2220  -10.7130 C.ar   83  TYR83       0.0417
     29  CZ       -10.9150  -42.0560  -10.9620 C.ar   83  TYR83       0.1957
     30  OH       -10.9880  -41.4800  -12.2120 O.3    83  TYR83      -0.2866
     31  N        -17.1290  -26.8980  -12.7660 N.3   132  HIS132     -0.1241
     32  CA       -17.2810  -28.2560  -13.2950 C.3   132  HIS132      0.1621
     33  C        -17.2470  -28.1570  -14.8260 C.2   132  HIS132      0.2264
     34  O        -17.9520  -27.3420  -15.4040 O.2   132  HIS132     -0.2867
     35  CB       -18.6020  -28.8780  -12.8390 C.3   132  HIS132      0.0745
     36  CG       -18.8300  -30.2610  -13.3810 C.ar  132  HIS132      0.0817
     37  ND1      -17.9900  -31.3260  -13.0540 N.ar  132  HIS132     -0.2268
     38  CD2      -19.7730  -30.7010  -14.2410 C.ar  132  HIS132      0.1154
     39  CE1      -18.4630  -32.3670  -13.7330 C.ar  132  HIS132      0.1986
     40  NE2      -19.5270  -32.0370  -14.4530 N.ar  132  HIS132     -0.2212
     41  N        -21.2290  -44.8580   -5.5550 N.3   159  PHE159     -0.1227
     42  CA       -19.9570  -45.5760   -5.4450 C.3   159  PHE159      0.1736
     43  C        -19.6050  -45.8740   -3.9850 C.2   159  PHE159      0.2596
     44  O        -20.0510  -45.1650   -3.0850 O.2   159  PHE159     -0.2718
     45  CB       -18.8300  -44.7880   -6.1270 C.3   159  PHE159      0.0547
     46  CG       -19.0790  -44.5290   -7.5970 C.ar  159  PHE159     -0.0202
     47  CD1      -19.0050  -45.5620   -8.5230 C.ar  159  PHE159     -0.0042
     48  CD2      -19.4460  -43.2670   -8.0460 C.ar  159  PHE159     -0.0042
     49  CE1      -19.2730  -45.3340   -9.8750 C.ar  159  PHE159     -0.0003
     50  CE2      -19.7040  -43.0380   -9.4000 C.ar  159  PHE159     -0.0003
     51  CZ       -19.6220  -44.0730  -10.3060 C.ar  159  PHE159     -0.0000
     52  N        -18.8420  -46.9540   -3.7490 N.am  160  THR160     -0.1953
     53  CA       -18.4620  -47.3640   -2.4000 C.3   160  THR160      0.1897
     54  C        -17.2890  -46.5010   -1.9100 C.2   160  THR160      0.2313
     55  O        -16.3070  -46.3430   -2.6330 O.2   160  THR160     -0.2863
     56  CB       -18.1180  -48.8690   -2.3590 C.3   160  THR160      0.1794
     57  OG1      -19.2780  -49.6240   -2.7350 O.3   160  THR160     -0.2208
     58  CG2      -17.6510  -49.3220   -0.9780 C.3   160  THR160      0.0378
     59  N        -15.4910  -26.5710   -3.9430 N.3   176  ASP176     -0.1225
     60  CA       -15.0200  -27.9530   -3.9520 C.3   176  ASP176      0.1805
     61  C        -13.6710  -28.0230   -4.6690 C.2   176  ASP176      0.2598
     62  O        -13.2800  -27.1150   -5.3830 O.2   176  ASP176     -0.2718
     63  CB       -16.0250  -28.7590   -4.7920 C.3   176  ASP176      0.1424
     64  CG       -16.1330  -30.2410   -4.5930 C.2   176  ASP176      0.3668
     65  OD1      -15.3710  -30.7900   -3.7780 O.co2 176  ASP176     -0.2456
     66  OD2      -17.0270  -30.8380   -5.2030 O.co2 176  ASP176     -0.2456
     67  N        -13.0410  -29.1880   -4.5830 N.am  177  SER177     -0.1938
     68  CA       -11.9080  -29.5260   -5.4240 C.3   177  SER177      0.2055
     69  C        -12.5420  -29.8680   -6.8060 C.2   177  SER177      0.2643
     70  O        -13.7680  -29.9610   -6.9440 O.2   177  SER177     -0.2714
     71  CB       -11.1920  -30.7650   -4.8800 C.3   177  SER177      0.2130
     72  OG       -12.1500  -31.8080   -4.7980 O.3   177  SER177     -0.2179
     73  N        -11.7150  -29.9860   -7.8500 N.am  178  CYS178     -0.1953
     74  CA       -12.2110  -30.3510   -9.1580 C.3   178  CYS178      0.1843
     75  C        -11.1150  -31.0160   -9.9730 C.2   178  CYS178      0.2625
     76  O         -9.9980  -31.1770   -9.4940 O.2   178  CYS178     -0.2714
     77  CB       -12.7870  -29.1250   -9.8550 C.3   178  CYS178      0.0997
     78  SG       -13.9260  -29.4750  -11.2300 S.3   178  CYS178     -0.0797
     79  N        -11.4580  -31.4380  -11.1810 N.am  179  GLN179     -0.1977
     80  CA       -10.5270  -32.1450  -12.0490 C.3   179  GLN179      0.1601
     81  C         -9.2800  -31.3170  -12.2930 C.2   179  GLN179      0.2287
     82  O         -9.3670  -30.1350  -12.5130 O.2   179  GLN179     -0.2864
     83  CB       -11.2050  -32.4540  -13.3680 C.3   179  GLN179      0.0394
     84  CG       -10.4560  -33.4910  -14.1650 C.3   179  GLN179      0.0908
     85  CD       -11.1830  -33.8350  -15.4240 C.2   179  GLN179      0.2608
     86  OE1      -11.8210  -32.9840  -16.0470 O.2   179  GLN179     -0.2717
     87  NE2      -11.1550  -35.1110  -15.7910 N.am  179  GLN179     -0.0878
     88  N         -6.6660  -33.2230   -8.4510 N.3   182  SER182     -0.1217
     89  CA        -6.3400  -34.5450   -7.9320 C.3   182  SER182      0.1889
     90  C         -4.8520  -34.7130   -7.7460 C.2   182  SER182      0.2288
     91  O         -4.0500  -34.2640   -8.5700 O.2   182  SER182     -0.2866
     92  CB        -6.8760  -35.6430   -8.8290 C.3   182  SER182      0.2089
     93  OG        -8.2740  -35.4920   -8.9470 O.3   182  SER182     -0.2183
     94  N         -6.0640  -35.1460   -2.4620 N.3   200  ILE200     -0.1231
     95  CA        -7.2650  -34.8760   -3.2800 C.3   200  ILE200      0.1692
     96  C         -7.4030  -36.0550   -4.2560 C.2   200  ILE200      0.2593
     97  O         -6.4640  -36.3710   -4.9660 O.2   200  ILE200     -0.2718
     98  CB        -7.1050  -33.5630   -4.0270 C.3   200  ILE200      0.0266
     99  CG1       -6.8650  -32.3820   -3.0470 C.3   200  ILE200      0.0019
    100  CG2       -8.3590  -33.2960   -4.9030 C.3   200  ILE200      0.0020
    101  CD1       -6.4560  -31.1010   -3.7000 C.3   200  ILE200      0.0001
    102  N         -8.5580  -36.7110   -4.2840 N.am  201  SER201     -0.1938
    103  CA        -8.6970  -37.9260   -5.1060 C.3   201  SER201      0.2055
    104  C         -9.6930  -37.7690   -6.2250 C.2   201  SER201      0.2643
    105  O         -9.2830  -37.6360   -7.3820 O.2   201  SER201     -0.2714
    106  CB        -9.0240  -39.1230   -4.2250 C.3   201  SER201      0.2130
    107  OG        -8.9540  -40.3510   -4.9370 O.3   201  SER201     -0.2179
    108  N        -10.9920  -37.7200   -5.9160 N.am  202  TRP202     -0.1959
    109  CA       -11.9900  -37.6660   -6.9700 C.3   202  TRP202      0.1771
    110  C        -13.2950  -37.0930   -6.4810 C.2   202  TRP202      0.2620
    111  O        -13.4250  -36.6680   -5.3440 O.2   202  TRP202     -0.2715
    112  CB       -12.2040  -39.0960   -7.5250 C.3   202  TRP202      0.0590
    113  CG       -12.7620  -40.0680   -6.5250 C.ar  202  TRP202      0.0006
    114  CD1      -12.0570  -40.7930   -5.6180 C.ar  202  TRP202      0.0946
    115  CD2      -14.1380  -40.4980   -6.3950 C.ar  202  TRP202      0.0152
    116  NE1      -12.8910  -41.6740   -4.9620 N.ar  202  TRP202     -0.2442
    117  CE2      -14.1800  -41.4390   -5.3480 C.ar  202  TRP202      0.0810
    118  CE3      -15.3470  -40.0850   -6.9720 C.ar  202  TRP202      0.0012
    119  CZ2      -15.3650  -42.0290   -4.9210 C.ar  202  TRP202      0.0191
    120  CZ3      -16.5270  -40.6790   -6.5460 C.ar  202  TRP202      0.0001
    121  CH2      -16.5250  -41.6390   -5.5390 C.ar  202  TRP202      0.0015
    122  N        -14.2120  -36.9900   -7.4170 N.am  203  GLY203     -0.1940
    123  CA       -15.5880  -36.6000   -7.1880 C.3   203  GLY203      0.2014
    124  C        -16.3620  -36.8440   -8.4670 C.2   203  GLY203      0.2639
    125  O        -15.7640  -37.2520   -9.4660 O.2   203  GLY203     -0.2714
    126  N        -17.6700  -36.5950   -8.4540 N.am  204  GLU204     -0.1963
    127  CA       -18.5630  -36.8480   -9.6140 C.3   204  GLU204      0.1733
    128  C        -18.9730  -35.6050  -10.3470 C.2   204  GLU204      0.2616
    129  O        -19.0750  -35.6370  -11.5690 O.2   204  GLU204     -0.2715
    130  CB       -19.7990  -37.5790   -9.1460 C.3   204  GLU204      0.0429
    131  CG       -19.4850  -39.0180   -8.8210 C.3   204  GLU204      0.1163
    132  CD       -20.5950  -39.6940   -8.0610 C.2   204  GLU204      0.3649
    133  OE1      -20.5270  -39.6920   -6.8140 O.co2 204  GLU204     -0.2457
    134  OE2      -21.5780  -40.1340   -8.6980 O.co2 204  GLU204     -0.2457
    135  N        -19.2260  -34.5150   -9.6280 N.am  205  GLU205     -0.1963
    136  CA       -19.6090  -33.2560  -10.2470 C.3   205  GLU205      0.1733
    137  C        -19.1240  -32.1540   -9.3350 C.2   205  GLU205      0.2616
    138  O        -19.5940  -32.0460   -8.1840 O.2   205  GLU205     -0.2715
    139  CB       -21.1170  -33.2020  -10.4140 C.3   205  GLU205      0.0429
    140  CG       -21.5710  -32.0850  -11.3330 C.3   205  GLU205      0.1163
    141  CD       -23.0390  -32.1090  -11.7120 C.2   205  GLU205      0.3649
    142  OE1      -23.7750  -32.9980  -11.2250 O.co2 205  GLU205     -0.2457
    143  OE2      -23.4490  -31.2380  -12.5120 O.co2 205  GLU205     -0.2457
    144  N        -18.1370  -31.3770   -9.7950 N.am  206  CYS206     -0.1968
    145  CA       -17.5250  -30.4170   -8.8860 C.3   206  CYS206      0.1712
    146  C        -18.4930  -29.4170   -8.3740 C.2   206  CYS206      0.2296
    147  O        -19.1910  -28.8030   -9.1700 O.2   206  CYS206     -0.2864
    148  CB       -16.3580  -29.7060   -9.5630 C.3   206  CYS206      0.0983
    149  SG       -15.2260  -30.8180  -10.4270 S.3   206  CYS206     -0.0798
    150  N        -19.9090  -34.3090   -2.7490 N.3   212  TYR212     -0.1227
    151  CA       -18.7180  -33.9110   -2.0080 C.3   212  TYR212      0.1736
    152  C        -17.4890  -34.3910   -2.6810 C.2   212  TYR212      0.2596
    153  O        -17.5260  -35.3960   -3.4040 O.2   212  TYR212     -0.2718
    154  CB       -18.7130  -34.5430   -0.6210 C.3   212  TYR212      0.0548
    155  CG       -19.9080  -34.1210    0.1870 C.ar  212  TYR212     -0.0200
    156  CD1      -19.9530  -32.8720    0.7960 C.ar  212  TYR212     -0.0009
    157  CD2      -21.0190  -34.9400    0.2950 C.ar  212  TYR212     -0.0009
    158  CE1      -21.0610  -32.4680    1.5270 C.ar  212  TYR212      0.0417
    159  CE2      -22.1450  -34.5380    0.9970 C.ar  212  TYR212      0.0417
    160  CZ       -22.1720  -33.2900    1.5920 C.ar  212  TYR212      0.1957
    161  OH       -23.2800  -32.8910    2.2810 O.3   212  TYR212     -0.2866
    162  N        -16.3790  -33.7760   -2.3130 N.am  213  GLY213     -0.1957
    163  CA       -15.0820  -34.2010   -2.7910 C.3   213  GLY213      0.1869
    164  C        -14.6200  -35.3790   -1.9570 C.2   213  GLY213      0.2309
    165  O        -14.8830  -35.4490   -0.7500 O.2   213  GLY213     -0.2863
@<TRIPOS>BOND
     1    86    85    2
     2    87    85   am
     3    85    84    1
     4    34    33    2
     5    33    32    1
     6    40    38   ar
     7    40    39   ar
     8    38    36   ar
     9    84    83    1
    10    39    37   ar
    11    36    37   ar
    12    36    35    1
    13    83    80    1
    14    32    35    1
    15    32    31    1
    16     4     3    2
    17    82    81    2
    18   143   141   ar
    19    81    80    1
    20    30    29    1
    21    80    79    1
    22   141   140    1
    23   141   142   ar
    24     3     2    1
    25   129   128    2
    26   140   139    1
    27    78   149    1
    28    78    77    1
    29     8    10   ar
    30     8     6   ar
    31    79    75   am
    32    29    28   ar
    33    29    27   ar
    34    28    26   ar
    35     2     5    1
    36     2     1    1
    37    10     9   ar
    38     5     6    1
    39   149   148    1
    40   139   136    1
    41   128   135   am
    42   128   127    1
    43    51    49   ar
    44    51    50   ar
    45     6     7   ar
    46   136   135    1
    47   136   137    1
    48    75    76    2
    49    75    74    1
    50    27    25   ar
    51    49    47   ar
    52    77    74    1
    53   144   137   am
    54   144   145    1
    55   127   130    1
    56   127   126    1
    57   148   145    1
    58   125   124    2
    59    26    24   ar
    60    50    48   ar
    61   137   138    2
    62     9     7   ar
    63   147   146    2
    64    74    73    1
    65   130   131    1
    66    11    12    1
    67    93    92    1
    68    13    12    1
    69    13    14    2
    70   145   146    1
    71    92    89    1
    72   131   132    1
    73    12    15    1
    74   134   132   ar
    75    25    24   ar
    76    91    90    2
    77    47    46   ar
    78   124   126   am
    79   124   123    1
    80    88    89    1
    81    24    23    1
    82   132   133   ar
    83    48    46   ar
    84    19    20    1
    85    89    90    1
    86    73    69   am
    87    17    16    2
    88    46    45    1
    89   112   109    1
    90   112   113    1
    91    15    16    1
    92   122   123    1
    93   122   110   am
    94   105   104    2
    95    16    18   am
    96    23    20    1
    97   118   120   ar
    98   118   115   ar
    99   109   110    1
   100   109   108    1
   101    70    69    2
   102    20    21    1
   103    69    68    1
   104   120   121   ar
   105   113   115   ar
   106   113   114   ar
   107   110   111    2
   108   115   117   ar
   109   104   108   am
   110   104   103    1
   111    45    42    1
   112   114   116   ar
   113    41    42    1
   114   121   119   ar
   115    21    22    2
   116    42    43    1
   117    68    71    1
   118    68    67    1
   119    62    61    2
   120   117   116   ar
   121   117   119   ar
   122    66    64   ar
   123   103   102    1
   124   103   106    1
   125    97    96    2
   126   107   106    1
   127   100    98    1
   128    71    72    1
   129    63    64    1
   130    63    60    1
   131    61    67   am
   132    61    60    1
   133    64    65   ar
   134   102    96   am
   135    96    95    1
   136    98    95    1
   137    98    99    1
   138    43    52   am
   139    43    44    2
   140    60    59    1
   141    52    53    1
   142   101    99    1
   143   153   152    2
   144    95    94    1
   145   163   162    1
   146   163   164    1
   147   150   151    1
   148    57    56    1
   149   152   162   am
   150   152   151    1
   151    55    54    2
   152    53    56    1
   153    53    54    1
   154    56    58    1
   155   151   154    1
   156   164   165    2
   157   154   155    1
   158   155   157   ar
   159   155   156   ar
   160   157   159   ar
   161   156   158   ar
   162   159   160   ar
   163   158   160   ar
   164   160   161    1
