@<TRIPOS>MOLECULE
tmp/5tnoA02.pdb
 81 76 0 0 0
SMALL
GASTEIGER

@<TRIPOS>ATOM
      1  N         -0.9750  -32.7750  -21.2520 N.3    22  VAL22      -0.1231
      2  CA        -1.8440  -31.6800  -20.8960 C.3    22  VAL22       0.1692
      3  C         -1.1320  -31.0670  -19.6940 C.2    22  VAL22       0.2592
      4  O         -0.5520  -31.8180  -18.9030 O.2    22  VAL22      -0.2718
      5  CB        -3.2410  -32.2300  -20.5170 C.3    22  VAL22       0.0266
      6  CG1       -4.1280  -31.1300  -19.9690 C.3    22  VAL22       0.0020
      7  CG2       -3.9060  -32.8840  -21.7300 C.3    22  VAL22       0.0020
      8  N         -1.1360  -29.7450  -19.5650 N.am   23  ASP23      -0.1960
      9  CA        -0.5260  -29.1230  -18.3810 C.3    23  ASP23       0.1840
     10  C         -1.4690  -29.1390  -17.2040 C.2    23  ASP23       0.2622
     11  O         -2.6840  -29.1270  -17.3870 O.2    23  ASP23      -0.2715
     12  CB        -0.1330  -27.6700  -18.6810 C.3    23  ASP23       0.1450
     13  CG         1.0550  -27.5870  -19.6300 C.2    23  ASP23       0.3671
     14  OD1        1.9530  -28.4640  -19.5440 O.co2  23  ASP23      -0.2456
     15  OD2        1.0570  -26.6940  -20.4950 O.co2  23  ASP23      -0.2456
     16  N         -0.9250  -29.1600  -15.9440 N.am   24  ALA24      -0.1963
     17  CA        -1.7470  -29.1200  -14.7840 C.3    24  ALA24       0.1728
     18  C         -2.7940  -30.1780  -14.8050 C.2    24  ALA24       0.2616
     19  O         -3.9630  -29.9460  -14.4470 O.2    24  ALA24      -0.2715
     20  CB        -2.3560  -27.7320  -14.6110 C.3    24  ALA24       0.0334
     21  N         -2.3560  -31.4060  -15.1040 N.am   25  PHE25      -0.1974
     22  CA        -3.3000  -32.5110  -15.1320 C.3    25  PHE25       0.1639
     23  C         -3.5680  -33.0430  -13.7350 C.2    25  PHE25       0.2290
     24  O         -4.5930  -33.6840  -13.4980 O.2    25  PHE25      -0.2864
     25  CB        -2.9040  -33.6320  -16.0930 C.3    25  PHE25       0.0560
     26  CG        -1.7290  -34.4680  -15.6790 C.ar   25  PHE25      -0.0200
     27  CD1       -1.8810  -35.5120  -14.7720 C.ar   25  PHE25      -0.0042
     28  CD2       -0.4580  -34.1630  -16.1080 C.ar   25  PHE25      -0.0042
     29  CE1       -0.7760  -36.2800  -14.3860 C.ar   25  PHE25      -0.0003
     30  CE2        0.6360  -34.9100  -15.7020 C.ar   25  PHE25      -0.0003
     31  CZ         0.4760  -35.9550  -14.8320 C.ar   25  PHE25      -0.0000
     32  N          0.5830  -20.5340  -13.7990 N.3    55  ILE55      -0.1245
     33  CA         1.0590  -21.5270  -14.7610 C.3    55  ILE55       0.1561
     34  C          1.2000  -21.0050  -16.1930 C.2    55  ILE55       0.2260
     35  O          1.8190  -21.7040  -16.9860 O.2    55  ILE55      -0.2867
     36  CB         0.2430  -22.8620  -14.7370 C.3    55  ILE55       0.0252
     37  CG1       -1.2700  -22.6570  -15.0340 C.3    55  ILE55       0.0019
     38  CG2        0.4730  -23.6260  -13.4450 C.3    55  ILE55       0.0019
     39  CD1       -2.0550  -24.0120  -15.1800 C.3    55  ILE55       0.0001
     40  N         -6.6190  -26.9460  -10.7640 N.3   128  GLY128     -0.1210
     41  CA        -7.7050  -27.6460  -11.4330 C.3   128  GLY128      0.1956
     42  C         -8.7720  -26.7070  -11.9540 C.2   128  GLY128      0.2611
     43  O         -8.7040  -25.4850  -11.7880 O.2   128  GLY128     -0.2717
     44  N         -9.7940  -27.3010  -12.5310 N.am  129  ARG129     -0.1979
     45  CA       -10.8840  -26.5320  -13.1200 C.3   129  ARG129      0.1597
     46  C        -11.5120  -25.6400  -12.0610 C.2   129  ARG129      0.2287
     47  O        -11.7060  -26.0590  -10.9280 O.2   129  ARG129     -0.2864
     48  CB       -11.9230  -27.4720  -13.6950 C.3   129  ARG129      0.0334
     49  CG       -11.4230  -28.3740  -14.8240 C.3   129  ARG129      0.0492
     50  CD       -12.6210  -29.1410  -15.3420 C.3   129  ARG129      0.2205
     51  NE       -12.2680  -30.1840  -16.3050 N.pl3 129  ARG129     -0.0865
     52  CZ       -12.2650  -30.0520  -17.6240 C.cat 129  ARG129      0.5346
     53  NH1      -12.5110  -28.8690  -18.1850 N.pl3 129  ARG129      0.1354
     54  NH2      -12.0030  -31.1000  -18.4000 N.pl3 129  ARG129      0.1354
     55  N         -9.2180  -24.5750  -16.5030 N.3   136  SER136     -0.1217
     56  CA        -8.2320  -24.7030  -15.4410 C.3   136  SER136      0.1889
     57  C         -7.8800  -23.3030  -14.9050 C.2   136  SER136      0.2288
     58  O         -7.9840  -22.2980  -15.6250 O.2   136  SER136     -0.2866
     59  CB        -6.9370  -25.2700  -16.0220 C.3   136  SER136      0.2089
     60  OG        -7.1530  -26.5980  -16.4280 O.3   136  SER136     -0.2183
     61  N         -5.3210  -20.2930  -13.7050 N.3   138  LEU138     -0.1245
     62  CA        -4.0010  -19.7650  -14.0710 C.3   138  LEU138      0.1561
     63  C         -3.2120  -19.5810  -12.7840 C.2   138  LEU138      0.2260
     64  O         -2.1410  -20.1400  -12.6490 O.2   138  LEU138     -0.2867
     65  CB        -4.0900  -18.4500  -14.8410 C.3   138  LEU138      0.0270
     66  CG        -4.7480  -18.5120  -16.2300 C.3   138  LEU138      0.0019
     67  CD1       -4.3620  -17.2930  -17.0170 C.3   138  LEU138      0.0001
     68  CD2       -4.3770  -19.7460  -16.9890 C.3   138  LEU138      0.0001
     69  N        -11.4580  -31.4380  -11.1810 N.3   179  GLN179     -0.1231
     70  CA       -10.5270  -32.1450  -12.0490 C.3   179  GLN179      0.1698
     71  C         -9.2800  -31.3170  -12.2930 C.2   179  GLN179      0.2592
     72  O         -9.3670  -30.1350  -12.5130 O.2   179  GLN179     -0.2718
     73  CB       -11.2050  -32.4540  -13.3680 C.3   179  GLN179      0.0381
     74  CG       -10.4560  -33.4910  -14.1650 C.3   179  GLN179      0.0905
     75  CD       -11.1830  -33.8350  -15.4240 C.2   179  GLN179      0.2608
     76  OE1      -11.8210  -32.9840  -16.0470 O.2   179  GLN179     -0.2717
     77  NE2      -11.1550  -35.1110  -15.7910 N.am  179  GLN179     -0.0878
     78  N         -8.1180  -31.9380  -12.1770 N.am  180  GLY180     -0.1957
     79  CA        -6.8410  -31.2420  -12.2820 C.3   180  GLY180      0.1869
     80  C         -6.2360  -30.9660  -10.9090 C.2   180  GLY180      0.2309
     81  O         -5.0270  -30.7220  -10.7980 O.2   180  GLY180     -0.2863
@<TRIPOS>BOND
     1     7     5    1
     2     1     2    1
     3     2     5    1
     4     2     3    1
     5     5     6    1
     6    15    13   ar
     7     3     8   am
     8     3     4    2
     9    13    14   ar
    10    13    12    1
    11     8     9    1
    12    12     9    1
    13    54    52    1
    14     9    10    1
    15    53    52    1
    16    52    51    2
    17    11    10    2
    18    10    16   am
    19    67    66    1
    20    68    66    1
    21    35    34    2
    22    55    56    1
    23    60    59    1
    24    51    50    1
    25    66    65    1
    26    34    33    1
    27    28    30   ar
    28    28    26   ar
    29    25    26    1
    30    25    22    1
    31    76    75    2
    32    59    56    1
    33    16    17    1
    34    77    75   am
    35    30    31   ar
    36    26    27   ar
    37    58    57    2
    38    56    57    1
    39    75    74    1
    40    50    49    1
    41    39    37    1
    42    22    21    1
    43    22    23    1
    44    21    18   am
    45    37    36    1
    46    65    62    1
    47    31    29   ar
    48    49    48    1
    49    18    17    1
    50    18    19    2
    51    17    20    1
    52    27    29   ar
    53    33    36    1
    54    33    32    1
    55    36    38    1
    56    74    73    1
    57    62    61    1
    58    62    63    1
    59    23    24    2
    60    48    45    1
    61    73    70    1
    62    45    44    1
    63    45    46    1
    64    63    64    2
    65    44    42   am
    66    72    71    2
    67    71    78   am
    68    71    70    1
    69    79    78    1
    70    79    80    1
    71    46    47    2
    72    70    69    1
    73    42    43    2
    74    42    41    1
    75    41    40    1
    76    80    81    2
