@<TRIPOS>MOLECULE
tmp/5tnpC00.pdb
 167 167 0 0 0
SMALL
GASTEIGER

@<TRIPOS>ATOM
      1  N          5.9820   -2.9890   23.0140 N.3    39  PHE39      -0.1241
      2  CA         6.1320   -3.6710   21.7380 C.3    39  PHE39       0.1605
      3  C          4.7860   -3.9080   21.0550 C.2    39  PHE39       0.2264
      4  O          3.7830   -4.2090   21.7050 O.2    39  PHE39      -0.2867
      5  CB         6.8480   -5.0100   21.9380 C.3    39  PHE39       0.0534
      6  CG         6.7860   -5.8910   20.7330 C.ar   39  PHE39      -0.0203
      7  CD1        7.6730   -5.7190   19.6850 C.ar   39  PHE39      -0.0042
      8  CD2        5.8130   -6.8750   20.6300 C.ar   39  PHE39      -0.0042
      9  CE1        7.5990   -6.5230   18.5610 C.ar   39  PHE39      -0.0003
     10  CE2        5.7330   -7.6720   19.4940 C.ar   39  PHE39      -0.0003
     11  CZ         6.6270   -7.4860   18.4720 C.ar   39  PHE39      -0.0000
     12  N          5.3330   -2.6140   29.2280 N.3   105  ASP105     -0.1225
     13  CA         6.1250   -3.5800   28.4460 C.3   105  ASP105      0.1805
     14  C          7.5270   -3.0040   28.2450 C.2   105  ASP105      0.2597
     15  O          8.1690   -2.6090   29.2300 O.2   105  ASP105     -0.2718
     16  CB         5.3690   -3.9390   27.1740 C.3   105  ASP105      0.1424
     17  CG         6.0790   -4.9990   26.3660 C.2   105  ASP105      0.3668
     18  OD1        6.1920   -6.1440   26.8710 O.co2 105  ASP105     -0.2456
     19  OD2        6.5440   -4.6730   25.2530 O.co2 105  ASP105     -0.2456
     20  N          8.0550   -2.9420   27.0170 N.am  106  ILE106     -0.1980
     21  CA         9.4350   -2.4970   26.8490 C.3   106  ILE106      0.1595
     22  C          9.5950   -1.0100   27.1150 C.2   106  ILE106      0.2287
     23  O         10.7270   -0.5210   27.2110 O.2   106  ILE106     -0.2864
     24  CB         9.9770   -2.8210   25.4440 C.3   106  ILE106      0.0276
     25  CG1        9.2070   -2.0310   24.3840 C.3   106  ILE106      0.0022
     26  CG2        9.9260   -4.3280   25.1830 C.3   106  ILE106      0.0022
     27  CD1        9.8030   -2.1610   22.9950 C.3   106  ILE106      0.0001
     28  N         11.7550   -1.0950   30.0370 N.3   109  TRP109     -0.1241
     29  CA        13.1680   -1.2550   29.7090 C.3   109  TRP109      0.1605
     30  C         13.8060    0.0770   29.3460 C.2   109  TRP109      0.2264
     31  O         14.9500    0.3680   29.7250 O.2   109  TRP109     -0.2867
     32  CB        13.3180   -2.2200   28.5290 C.3   109  TRP109      0.0550
     33  CG        12.6950   -3.5540   28.7160 C.ar  109  TRP109      0.0003
     34  CD1       12.0100   -4.0080   29.8100 C.ar  109  TRP109      0.0946
     35  CD2       12.7090   -4.6320   27.7750 C.ar  109  TRP109      0.0152
     36  NE1       11.5990   -5.3020   29.6030 N.ar  109  TRP109     -0.2442
     37  CE2       12.0270   -5.7110   28.3650 C.ar  109  TRP109      0.0810
     38  CE3       13.2380   -4.7860   26.4880 C.ar  109  TRP109      0.0012
     39  CZ2       11.8310   -6.9210   27.7050 C.ar  109  TRP109      0.0191
     40  CZ3       13.0550   -6.0050   25.8390 C.ar  109  TRP109      0.0001
     41  CH2       12.3600   -7.0470   26.4480 C.ar  109  TRP109      0.0015
     42  N          3.2960   -4.6930   33.2680 N.3   129  GLN129     -0.1231
     43  CA         3.4000   -5.8120   32.3220 C.3   129  GLN129      0.1698
     44  C          4.7360   -5.8550   31.5740 C.2   129  GLN129      0.2592
     45  O          4.7870   -5.8310   30.3410 O.2   129  GLN129     -0.2718
     46  CB         2.2310   -5.7870   31.3250 C.3   129  GLN129      0.0381
     47  CG         0.9640   -6.4410   31.8470 C.3   129  GLN129      0.0905
     48  CD         1.1110   -7.9410   32.0540 C.2   129  GLN129      0.2608
     49  OE1        0.7360   -8.4690   33.1040 O.2   129  GLN129     -0.2717
     50  NE2        1.6410   -8.6360   31.0460 N.am  129  GLN129     -0.0878
     51  N          5.8130   -5.9740   32.3360 N.am  130  ALA130     -0.1966
     52  CA         7.0680   -6.5030   31.8100 C.3   130  ALA130      0.1713
     53  C          8.0790   -6.5250   32.9320 C.2   130  ALA130      0.2458
     54  O          8.0170   -5.6760   33.8280 O.2   130  ALA130     -0.2730
     55  CB         7.6500   -5.6800   30.6630 C.3   130  ALA130      0.0333
     56  N          9.0360   -7.4460   32.9010 N.am  131  PRO131     -0.2727
     57  CA        10.1100   -7.3990   33.8920 C.3   131  PRO131      0.1402
     58  C         11.0690   -6.2660   33.5870 C.2   131  PRO131      0.2269
     59  O         11.3120   -5.9210   32.4290 O.2   131  PRO131     -0.2865
     60  CB        10.7860   -8.7700   33.7620 C.3   131  PRO131      0.0296
     61  CG        10.4460   -9.2440   32.4010 C.3   131  PRO131      0.0237
     62  CD         9.1300   -8.6210   32.0180 C.3   131  PRO131      0.0939
     63  N          5.2030  -17.4370   28.1980 N.3   150  LEU150     -0.1231
     64  CA         5.0250  -15.9900   28.0700 C.3   150  LEU150      0.1693
     65  C          6.1190  -15.3390   27.2270 C.2   150  LEU150      0.2591
     66  O          5.8360  -14.4120   26.4570 O.2   150  LEU150     -0.2718
     67  CB         4.9890  -15.3250   29.4500 C.3   150  LEU150      0.0284
     68  CG         3.6970  -15.2430   30.2730 C.3   150  LEU150      0.0019
     69  CD1        3.9520  -14.4220   31.5400 C.3   150  LEU150      0.0001
     70  CD2        2.5310  -14.6590   29.4730 C.3   150  LEU150      0.0001
     71  N          7.3780  -15.7590   27.3830 N.am  151  VAL151     -0.1980
     72  CA         8.4510  -14.9290   26.8420 C.3   151  VAL151      0.1595
     73  C          9.3960  -15.6970   25.9320 C.2   151  VAL151      0.2287
     74  O         10.5390  -15.2740   25.7260 O.2   151  VAL151     -0.2864
     75  CB         9.2470  -14.2320   27.9620 C.3   151  VAL151      0.0276
     76  CG1        8.3440  -13.3040   28.7650 C.3   151  VAL151      0.0022
     77  CG2        9.9200  -15.2490   28.8450 C.3   151  VAL151      0.0022
     78  N          9.2110  -15.4480   22.9620 N.3   153  HIS153     -0.1226
     79  CA         9.4990  -14.4550   21.9370 C.3   153  HIS153      0.1752
     80  C         10.7850  -13.6850   22.2200 C.2   153  HIS153      0.2596
     81  O         11.3790  -13.1550   21.2820 O.2   153  HIS153     -0.2718
     82  CB         8.3080  -13.4850   21.7500 C.3   153  HIS153      0.0759
     83  CG         8.0790  -12.5440   22.8950 C.ar  153  HIS153      0.0818
     84  ND1        7.2660  -12.8580   23.9650 N.ar  153  HIS153     -0.2268
     85  CD2        8.5140  -11.2790   23.1140 C.ar  153  HIS153      0.1154
     86  CE1        7.2420  -11.8420   24.8120 C.ar  153  HIS153      0.1986
     87  NE2        7.9850  -10.8680   24.3170 N.ar  153  HIS153     -0.2212
     88  N         11.2590  -13.6370   23.4770 N.am  154  PHE154     -0.1976
     89  CA        12.5660  -13.0240   23.7360 C.3   154  PHE154      0.1639
     90  C         13.6390  -13.6490   22.8490 C.2   154  PHE154      0.2290
     91  O         14.4320  -12.9440   22.2130 O.2   154  PHE154     -0.2864
     92  CB        12.9870  -13.1800   25.2040 C.3   154  PHE154      0.0560
     93  CG        12.2630  -12.2860   26.1730 C.ar  154  PHE154     -0.0200
     94  CD1       11.1980  -11.4990   25.7790 C.ar  154  PHE154     -0.0042
     95  CD2       12.6620  -12.2500   27.5020 C.ar  154  PHE154     -0.0042
     96  CE1       10.5410  -10.6880   26.6920 C.ar  154  PHE154     -0.0003
     97  CE2       12.0200  -11.4360   28.4170 C.ar  154  PHE154     -0.0003
     98  CZ        10.9520  -10.6540   28.0100 C.ar  154  PHE154     -0.0000
     99  N          0.3330  -12.5630   17.9730 N.3   179  PHE179     -0.1241
    100  CA         1.0940  -12.1710   19.1510 C.3   179  PHE179      0.1605
    101  C          0.2060  -11.4720   20.1690 C.2   179  PHE179      0.2264
    102  O          0.2580  -11.7710   21.3660 O.2   179  PHE179     -0.2867
    103  CB         2.2610  -11.2650   18.7540 C.3   179  PHE179      0.0534
    104  CG         3.1580  -10.9030   19.9080 C.ar  179  PHE179     -0.0203
    105  CD1        2.9100   -9.7650   20.6740 C.ar  179  PHE179     -0.0042
    106  CD2        4.2380  -11.7080   20.2380 C.ar  179  PHE179     -0.0042
    107  CE1        3.7150   -9.4490   21.7490 C.ar  179  PHE179     -0.0003
    108  CE2        5.0510  -11.3950   21.3080 C.ar  179  PHE179     -0.0003
    109  CZ         4.7990  -10.2560   22.0580 C.ar  179  PHE179     -0.0000
    110  N         -1.4070  -13.2070   23.8840 N.3   183  HIS183     -0.1241
    111  CA        -1.0290  -12.6350   25.1660 C.3   183  HIS183      0.1621
    112  C         -2.1890  -11.9010   25.8270 C.2   183  HIS183      0.2264
    113  O         -1.9670  -11.1120   26.7460 O.2   183  HIS183     -0.2867
    114  CB         0.1680  -11.6950   24.9970 C.3   183  HIS183      0.0745
    115  CG         1.4510  -12.4140   24.7160 C.ar  183  HIS183      0.0817
    116  ND1        1.9220  -12.6190   23.4390 N.ar  183  HIS183     -0.2268
    117  CD2        2.3410  -13.0100   25.5470 C.ar  183  HIS183      0.1154
    118  CE1        3.0640  -13.2880   23.4930 C.ar  183  HIS183      0.1986
    119  NE2        3.3420  -13.5340   24.7610 N.ar  183  HIS183     -0.2212
    120  N         15.0460   -6.1460   21.6030 N.3   215  TYR215     -0.1241
    121  CA        15.3040   -7.4650   22.1700 C.3   215  TYR215      0.1605
    122  C         16.7400   -7.9110   21.9530 C.2   215  TYR215      0.2264
    123  O         17.3040   -8.6100   22.8000 O.2   215  TYR215     -0.2867
    124  CB        14.3350   -8.4810   21.5670 C.3   215  TYR215      0.0534
    125  CG        12.9220   -8.1770   21.9790 C.ar  215  TYR215     -0.0201
    126  CD1       12.1750   -7.2210   21.3010 C.ar  215  TYR215     -0.0009
    127  CD2       12.3540   -8.7900   23.0850 C.ar  215  TYR215     -0.0009
    128  CE1       10.9020   -6.9090   21.6840 C.ar  215  TYR215      0.0417
    129  CE2       11.0560   -8.4700   23.4860 C.ar  215  TYR215      0.0417
    130  CZ        10.3470   -7.5250   22.7720 C.ar  215  TYR215      0.1957
    131  OH         9.0650   -7.1840   23.1260 O.3   215  TYR215     -0.2866
    132  N         -1.8010  -14.4180   29.5970 N.3   246  GLY246     -0.1225
    133  CA        -0.8760  -13.4050   29.1350 C.3   246  GLY246      0.1811
    134  C         -0.3810  -12.4370   30.1960 C.2   246  GLY246      0.2280
    135  O          0.5000  -11.6180   29.9020 O.2   246  GLY246     -0.2866
    136  N          1.4310  -11.0500   33.7940 N.3   248  MET248     -0.1245
    137  CA         2.6030  -11.3540   34.6180 C.3   248  MET248      0.1570
    138  C          2.2400  -11.8230   36.0210 C.2   248  MET248      0.2261
    139  O          3.1120  -12.3440   36.7280 O.2   248  MET248     -0.2867
    140  CB         3.5170  -10.1320   34.7500 C.3   248  MET248      0.0387
    141  CG         4.0360   -9.5440   33.4460 C.3   248  MET248      0.0595
    142  SD         5.1550  -10.6270   32.5500 S.3   248  MET248     -0.1393
    143  CE         6.3740  -10.9880   33.8040 C.3   248  MET248      0.0692
    144  N         -2.0160   -9.1960   28.8590 N.3   273  HIS273     -0.1226
    145  CA        -0.8810   -8.2890   28.7270 C.3   273  HIS273      0.1752
    146  C         -1.3120   -6.8490   28.4500 C.2   273  HIS273      0.2596
    147  O         -0.6600   -5.9030   28.9080 O.2   273  HIS273     -0.2718
    148  CB         0.0360   -8.7890   27.6110 C.3   273  HIS273      0.0759
    149  CG         1.2420   -7.9330   27.3820 C.ar  273  HIS273      0.0818
    150  ND1        2.2730   -7.8370   28.2940 N.ar  273  HIS273     -0.2268
    151  CD2        1.5890   -7.1430   26.3360 C.ar  273  HIS273      0.1154
    152  CE1        3.1940   -7.0120   27.8260 C.ar  273  HIS273      0.1986
    153  NE2        2.8040   -6.5810   26.6380 N.ar  273  HIS273     -0.2212
    154  N         -2.3890   -6.6630   27.6920 N.am  274  TRP274     -0.1976
    155  CA        -2.6740   -5.3820   27.0520 C.3   274  TRP274      0.1640
    156  C         -3.6740   -4.5930   27.8960 C.2   274  TRP274      0.2290
    157  O         -4.7940   -4.3200   27.4780 O.2   274  TRP274     -0.2864
    158  CB        -3.1990   -5.6140   25.6300 C.3   274  TRP274      0.0576
    159  CG        -2.3830   -6.6370   24.8810 C.ar  274  TRP274      0.0006
    160  CD1       -2.6590   -7.9750   24.7430 C.ar  274  TRP274      0.0946
    161  CD2       -1.1430   -6.4100   24.2080 C.ar  274  TRP274      0.0152
    162  NE1       -1.6620   -8.5910   24.0250 N.ar  274  TRP274     -0.2442
    163  CE2       -0.7180   -7.6550   23.6810 C.ar  274  TRP274      0.0810
    164  CE3       -0.3460   -5.2740   23.9980 C.ar  274  TRP274      0.0012
    165  CZ2        0.4610   -7.7940   22.9510 C.ar  274  TRP274      0.0191
    166  CZ3        0.8280   -5.4120   23.2740 C.ar  274  TRP274      0.0001
    167  CH2        1.2220   -6.6600   22.7570 C.ar  274  TRP274      0.0015
@<TRIPOS>BOND
     1    99   100    1
     2    11     9   ar
     3    11    10   ar
     4     9     7   ar
     5   103   100    1
     6   103   104    1
     7   100   101    1
     8    10     8   ar
     9     7     6   ar
    10   104   106   ar
    11   104   105   ar
    12   101   102    2
    13   106   108   ar
    14     8     6   ar
    15   105   107   ar
    16     6     5    1
    17     3     4    2
    18     3     2    1
    19    81    80    2
    20   126   128   ar
    21   126   125   ar
    22   108   109   ar
    23   124   125    1
    24   124   121    1
    25   120   121    1
    26   128   130   ar
    27     2     5    1
    28     2     1    1
    29   107   109   ar
    30    82    79    1
    31    82    83    1
    32    79    80    1
    33    79    78    1
    34   122   121    1
    35   122   123    2
    36   125   127   ar
    37    91    90    2
    38    80    88   am
    39   167   165   ar
    40   167   166   ar
    41   130   131    1
    42   130   129   ar
    43    90    89    1
    44    83    85   ar
    45    83    84   ar
    46   165   163   ar
    47    27    25    1
    48   127   129   ar
    49    85    87   ar
    50   166   164   ar
    51   116   118   ar
    52   116   115   ar
    53    88    89    1
    54   118   119   ar
    55   163   162   ar
    56   163   161   ar
    57    89    92    1
    58   110   111    1
    59    84    86   ar
    60   164   161   ar
    61   162   160   ar
    62   161   159   ar
    63    87    86   ar
    64    25    24    1
    65   115   114    1
    66   115   117   ar
    67   160   159   ar
    68   119   117   ar
    69   159   158    1
    70   114   111    1
    71   111   112    1
    72    26    24    1
    73    92    93    1
    74    19    17   ar
    75    24    21    1
    76   158   155    1
    77    74    73    2
    78    94    93   ar
    79    94    96   ar
    80   112   113    2
    81    40    41   ar
    82    40    38   ar
    83    73    72    1
    84    93    95   ar
    85   151   153   ar
    86   151   149   ar
    87    17    18   ar
    88    17    16    1
    89    41    39   ar
    90    66    65    2
    91    38    35   ar
    92   153   152   ar
    93    96    98   ar
    94    72    71    1
    95    72    75    1
    96    21    20    1
    97    21    22    1
    98    20    14   am
    99   155   154    1
   100   155   156    1
   101    22    23    2
   102    16    13    1
   103    65    71   am
   104    65    64    1
   105   149   148    1
   106   149   150   ar
   107   157   156    2
   108    95    97   ar
   109   148   145    1
   110   154   146   am
   111    39    37   ar
   112    35    37   ar
   113    35    33   ar
   114   152   150   ar
   115    75    76    1
   116    75    77    1
   117    98    97   ar
   118    64    63    1
   119    64    67    1
   120    14    13    1
   121    14    15    2
   122    37    36   ar
   123    13    12    1
   124   146   145    1
   125   146   147    2
   126    32    33    1
   127    32    29    1
   128    33    34   ar
   129   145   144    1
   130   133   132    1
   131   133   134    1
   132    30    29    1
   133    30    31    2
   134    67    68    1
   135    70    68    1
   136    36    34   ar
   137    29    28    1
   138   135   134    2
   139    68    69    1
   140    45    44    2
   141    55    52    1
   142    50    48   am
   143    46    47    1
   144    46    43    1
   145    44    43    1
   146    44    51   am
   147    52    51    1
   148    52    53    1
   149    47    48    1
   150    62    61    1
   151    62    56    1
   152    48    49    2
   153    43    42    1
   154    61    60    1
   155    59    58    2
   156   142   141    1
   157   142   143    1
   158    56    53   am
   159    56    57    1
   160    53    54    2
   161   141   140    1
   162    58    57    1
   163    60    57    1
   164   136   137    1
   165   137   140    1
   166   137   138    1
   167   138   139    2
