@<TRIPOS>MOLECULE
tmp/5tnrD00.pdb
 222 222 0 0 0
SMALL
GASTEIGER

@<TRIPOS>ATOM
      1  N        -18.0150   29.6880  -13.8090 N.3    39  PHE39      -0.1241
      2  CA       -16.8360   29.1260  -13.1510 C.3    39  PHE39       0.1605
      3  C        -16.2090   30.1070  -12.1650 C.2    39  PHE39       0.2264
      4  O        -16.0900   31.3010  -12.4390 O.2    39  PHE39      -0.2867
      5  CB       -15.7860   28.7170  -14.1970 C.3    39  PHE39       0.0534
      6  CG       -14.4560   28.3670  -13.5930 C.ar   39  PHE39      -0.0203
      7  CD1      -14.2430   27.1150  -13.0390 C.ar   39  PHE39      -0.0042
      8  CD2      -13.4390   29.3050  -13.5260 C.ar   39  PHE39      -0.0042
      9  CE1      -13.0460   26.7950  -12.4460 C.ar   39  PHE39      -0.0003
     10  CE2      -12.2210   28.9870  -12.9310 C.ar   39  PHE39      -0.0003
     11  CZ       -12.0280   27.7220  -12.3920 C.ar   39  PHE39      -0.0000
     12  N        -20.9530   32.7790  -18.3260 N.3   105  ASP105     -0.1225
     13  CA       -19.8060   31.8470  -18.3850 C.3   105  ASP105      0.1805
     14  C        -20.3670   30.4330  -18.5680 C.2   105  ASP105      0.2597
     15  O        -21.2380   30.2410  -19.4320 O.2   105  ASP105     -0.2718
     16  CB       -18.9290   32.0930  -17.1590 C.3   105  ASP105      0.1424
     17  CG       -17.6020   31.3390  -17.2090 C.2   105  ASP105      0.3668
     18  OD1      -16.6460   31.8080  -17.8900 O.co2 105  ASP105     -0.2456
     19  OD2      -17.5400   30.2950  -16.5380 O.co2 105  ASP105     -0.2456
     20  N        -19.9320   29.4240  -17.8010 N.am  106  ILE106     -0.1980
     21  CA       -20.4000   28.0640  -18.0760 C.3   106  ILE106      0.1595
     22  C        -21.8640   27.8430  -17.7150 C.2   106  ILE106      0.2287
     23  O        -22.4120   26.7680  -18.0080 O.2   106  ILE106     -0.2864
     24  CB       -19.5320   27.0120  -17.3600 C.3   106  ILE106      0.0276
     25  CG1      -19.6380   27.1680  -15.8480 C.3   106  ILE106      0.0022
     26  CG2      -18.0890   27.1470  -17.8390 C.3   106  ILE106      0.0022
     27  CD1      -19.0370   25.9870  -15.0860 C.3   106  ILE106      0.0001
     28  N        -23.1910   27.0230  -20.9510 N.3   109  TRP109     -0.1241
     29  CA       -22.9680   25.6420  -21.3640 C.3   109  TRP109      0.1605
     30  C        -24.0090   24.7230  -20.7600 C.2   109  TRP109      0.2264
     31  O        -24.4630   23.7620  -21.3960 O.2   109  TRP109     -0.2867
     32  CB       -21.5800   25.1760  -20.9250 C.3   109  TRP109      0.0550
     33  CG       -20.4120   25.9890  -21.4440 C.ar  109  TRP109      0.0003
     34  CD1      -20.4480   27.0890  -22.2650 C.ar  109  TRP109      0.0946
     35  CD2      -19.0360   25.7280  -21.1740 C.ar  109  TRP109      0.0152
     36  NE1      -19.1590   27.5250  -22.5170 N.ar  109  TRP109     -0.2442
     37  CE2      -18.2790   26.7050  -21.8560 C.ar  109  TRP109      0.0810
     38  CE3      -18.3680   24.7590  -20.4170 C.ar  109  TRP109      0.0012
     39  CZ2      -16.8840   26.7410  -21.8010 C.ar  109  TRP109      0.0191
     40  CZ3      -16.9780   24.7910  -20.3650 C.ar  109  TRP109      0.0001
     41  CH2      -16.2510   25.7790  -21.0530 C.ar  109  TRP109      0.0015
     42  N        -20.9420   36.4410  -21.7490 N.3   129  GLN129     -0.1231
     43  CA       -19.5420   36.0970  -21.5020 C.3   129  GLN129      0.1698
     44  C        -19.2920   34.5860  -21.4390 C.2   129  GLN129      0.2592
     45  O        -18.7490   34.0610  -20.4650 O.2   129  GLN129     -0.2718
     46  CB       -19.0260   36.7870  -20.2270 C.3   129  GLN129      0.0381
     47  CG       -18.6350   38.2700  -20.4340 C.3   129  GLN129      0.0905
     48  CD       -17.3700   38.4660  -21.3020 C.2   129  GLN129      0.2608
     49  OE1      -17.3530   39.3000  -22.2060 O.2   129  GLN129     -0.2717
     50  NE2      -16.3090   37.7350  -20.9910 N.am  129  GLN129     -0.0878
     51  N        -19.6420   33.9060  -22.5280 N.am  130  ALA130     -0.1966
     52  CA       -19.1500   32.5620  -22.8190 C.3   130  ALA130      0.1713
     53  C        -19.6010   32.1300  -24.2050 C.2   130  ALA130      0.2458
     54  O        -20.7190   32.4430  -24.6240 O.2   130  ALA130     -0.2730
     55  CB       -19.6300   31.5280  -21.8020 C.3   130  ALA130      0.0333
     56  N        -18.7640   31.4130  -24.9380 N.am  131  PRO131     -0.2727
     57  CA       -19.2280   30.8000  -26.1780 C.3   131  PRO131      0.1402
     58  C        -20.1970   29.6820  -25.8570 C.2   131  PRO131      0.2269
     59  O        -19.9970   28.9340  -24.8970 O.2   131  PRO131     -0.2865
     60  CB       -17.9400   30.2460  -26.8030 C.3   131  PRO131      0.0296
     61  CG       -17.0590   29.9410  -25.6040 C.3   131  PRO131      0.0237
     62  CD       -17.3860   31.0250  -24.5890 C.3   131  PRO131      0.0939
     63  N         -9.8730   29.4160  -31.1330 N.3   140  PHE140     -0.1241
     64  CA        -9.3400   30.3950  -30.1920 C.3   140  PHE140      0.1605
     65  C         -7.8460   30.1580  -30.0050 C.2   140  PHE140      0.2264
     66  O         -7.4410   29.0230  -29.7300 O.2   140  PHE140     -0.2867
     67  CB       -10.0420   30.2880  -28.8410 C.3   140  PHE140      0.0534
     68  CG       -11.5330   30.5470  -28.8880 C.ar  140  PHE140     -0.0203
     69  CD1      -12.1050   31.2660  -29.9200 C.ar  140  PHE140     -0.0042
     70  CD2      -12.3530   30.0670  -27.8740 C.ar  140  PHE140     -0.0042
     71  CE1      -13.4800   31.5030  -29.9470 C.ar  140  PHE140     -0.0003
     72  CE2      -13.7210   30.3070  -27.8910 C.ar  140  PHE140     -0.0003
     73  CZ       -14.2810   31.0290  -28.9300 C.ar  140  PHE140     -0.0000
     74  N         -0.9870   34.7580  -27.2340 N.3   144  THR144     -0.1218
     75  CA        -1.1610   36.0170  -27.9490 C.3   144  THR144      0.1862
     76  C          0.1230   36.8410  -27.9240 C.2   144  THR144      0.2287
     77  O          1.0220   36.6110  -27.1120 O.2   144  THR144     -0.2866
     78  CB        -2.3030   36.8530  -27.3550 C.3   144  THR144      0.1770
     79  OG1       -1.8580   37.4670  -26.1460 O.3   144  THR144     -0.2211
     80  CG2       -3.5110   35.9730  -27.0470 C.3   144  THR144      0.0375
     81  N         -6.9830   34.3270  -23.2280 N.3   150  LEU150     -0.1231
     82  CA        -8.1630   34.2200  -22.3730 C.3   150  LEU150      0.1693
     83  C         -8.7310   32.8090  -22.3020 C.2   150  LEU150      0.2591
     84  O         -9.7020   32.5770  -21.5700 O.2   150  LEU150     -0.2718
     85  CB        -9.2510   35.1670  -22.8730 C.3   150  LEU150      0.0284
     86  CG        -8.9220   36.6590  -22.8680 C.3   150  LEU150      0.0019
     87  CD1      -10.0560   37.4440  -23.5200 C.3   150  LEU150      0.0001
     88  CD2       -8.6600   37.1470  -21.4410 C.3   150  LEU150      0.0001
     89  N         -8.1630   31.8620  -23.0480 N.am  151  VAL151     -0.1980
     90  CA        -8.8070   30.5790  -23.2850 C.3   151  VAL151      0.1595
     91  C         -7.9090   29.3930  -22.9840 C.2   151  VAL151      0.2287
     92  O         -8.3600   28.2590  -23.1020 O.2   151  VAL151     -0.2864
     93  CB        -9.3320   30.4800  -24.7310 C.3   151  VAL151      0.0276
     94  CG1      -10.4670   31.4660  -24.9540 C.3   151  VAL151      0.0022
     95  CG2       -8.2030   30.7400  -25.7010 C.3   151  VAL151      0.0022
     96  N         -7.1160   28.2260  -20.2950 N.3   153  HIS153     -0.1226
     97  CA        -7.6680   27.4750  -19.1790 C.3   153  HIS153      0.1752
     98  C         -8.5730   26.3350  -19.6330 C.2   153  HIS153      0.2596
     99  O         -8.7430   25.3740  -18.8730 O.2   153  HIS153     -0.2718
    100  CB        -8.4360   28.4040  -18.2240 C.3   153  HIS153      0.0759
    101  CG        -9.7150   28.9450  -18.7920 C.ar  153  HIS153      0.0818
    102  ND1       -9.7600   30.0820  -19.5720 N.ar  153  HIS153     -0.2268
    103  CD2      -11.0000   28.5290  -18.6560 C.ar  153  HIS153      0.1154
    104  CE1      -11.0140   30.3260  -19.9160 C.ar  153  HIS153      0.1986
    105  NE2      -11.7870   29.4020  -19.3690 N.ar  153  HIS153     -0.2212
    106  N         -9.1620   26.4100  -20.8360 N.am  154  PHE154     -0.1976
    107  CA        -9.9230   25.2660  -21.3480 C.3   154  PHE154      0.1639
    108  C         -9.0860   23.9870  -21.2760 C.2   154  PHE154      0.2290
    109  O         -9.5620   22.9360  -20.8320 O.2   154  PHE154     -0.2864
    110  CB       -10.3600   25.4760  -22.8030 C.3   154  PHE154      0.0560
    111  CG       -11.5020   26.4450  -23.0040 C.ar  154  PHE154     -0.0200
    112  CD1      -11.9890   27.2270  -21.9760 C.ar  154  PHE154     -0.0042
    113  CD2      -12.0800   26.5580  -24.2560 C.ar  154  PHE154     -0.0042
    114  CE1      -13.0330   28.1260  -22.2040 C.ar  154  PHE154     -0.0003
    115  CE2      -13.1240   27.4360  -24.4910 C.ar  154  PHE154     -0.0003
    116  CZ       -13.6050   28.2210  -23.4590 C.ar  154  PHE154     -0.0000
    117  N         -7.8760   22.9770  -17.5180 N.3   157  PHE157     -0.1241
    118  CA        -8.9360   22.3760  -16.7190 C.3   157  PHE157      0.1605
    119  C         -9.3760   21.0270  -17.2780 C.2   157  PHE157      0.2264
    120  O         -9.7710   20.1440  -16.5020 O.2   157  PHE157     -0.2867
    121  CB       -10.1540   23.3070  -16.6360 C.3   157  PHE157      0.0534
    122  CG        -9.8880   24.6380  -15.9690 C.ar  157  PHE157     -0.0203
    123  CD1       -8.6890   24.8870  -15.2860 C.ar  157  PHE157     -0.0042
    124  CD2      -10.8460   25.6380  -16.0300 C.ar  157  PHE157     -0.0042
    125  CE1       -8.4450   26.1230  -14.6820 C.ar  157  PHE157     -0.0003
    126  CE2      -10.6250   26.8880  -15.4220 C.ar  157  PHE157     -0.0003
    127  CZ        -9.4160   27.1310  -14.7400 C.ar  157  PHE157     -0.0000
    128  N         -4.7830   31.1350   -6.7960 N.3   175  PHE175     -0.1241
    129  CA        -5.1670   30.8910   -8.1810 C.3   175  PHE175      0.1605
    130  C         -6.4370   31.6530   -8.5340 C.2   175  PHE175      0.2264
    131  O         -6.5560   32.1800   -9.6430 O.2   175  PHE175     -0.2867
    132  CB        -5.3430   29.3890   -8.4640 C.3   175  PHE175      0.0534
    133  CG        -5.7010   29.0980   -9.8980 C.ar  175  PHE175     -0.0203
    134  CD1       -4.7950   29.3700  -10.9160 C.ar  175  PHE175     -0.0042
    135  CD2       -6.9440   28.5840  -10.2330 C.ar  175  PHE175     -0.0042
    136  CE1       -5.1270   29.1340  -12.2530 C.ar  175  PHE175     -0.0003
    137  CE2       -7.2770   28.3330  -11.5660 C.ar  175  PHE175     -0.0003
    138  CZ        -6.3600   28.6100  -12.5790 C.ar  175  PHE175     -0.0000
    139  N         -6.9490   34.2200  -11.7740 N.3   179  PHE179     -0.1241
    140  CA        -7.8010   34.1180  -12.9560 C.3   179  PHE179      0.1605
    141  C         -8.9210   35.1480  -12.9410 C.2   179  PHE179      0.2264
    142  O         -9.3930   35.5470  -14.0080 O.2   179  PHE179     -0.2867
    143  CB        -8.3490   32.6830  -13.1700 C.3   179  PHE179      0.0534
    144  CG        -9.3840   32.1940  -12.1620 C.ar  179  PHE179     -0.0203
    145  CD1      -10.6700   32.7320  -12.1030 C.ar  179  PHE179     -0.0042
    146  CD2       -9.1000   31.0860  -11.3740 C.ar  179  PHE179     -0.0042
    147  CE1      -11.6130   32.2460  -11.2010 C.ar  179  PHE179     -0.0003
    148  CE2      -10.0410   30.5740  -10.4800 C.ar  179  PHE179     -0.0003
    149  CZ       -11.3020   31.1560  -10.3910 C.ar  179  PHE179     -0.0000
    150  N         -8.9160   37.9970  -16.1490 N.3   183  HIS183     -0.1241
    151  CA       -10.0820   38.1400  -17.0100 C.3   183  HIS183      0.1621
    152  C        -10.8930   39.3860  -16.6810 C.2   183  HIS183      0.2264
    153  O        -12.0000   39.5500  -17.2160 O.2   183  HIS183     -0.2867
    154  CB       -10.9640   36.8980  -16.9270 C.3   183  HIS183      0.0745
    155  CG       -10.3500   35.7120  -17.5950 C.ar  183  HIS183      0.0817
    156  ND1       -9.2340   35.0790  -17.0890 N.ar  183  HIS183     -0.2268
    157  CD2      -10.6570   35.0750  -18.7510 C.ar  183  HIS183      0.1154
    158  CE1       -8.8940   34.0820  -17.8920 C.ar  183  HIS183      0.1986
    159  NE2       -9.7360   34.0650  -18.9120 N.ar  183  HIS183     -0.2212
    160  N        -15.1650   21.2490  -17.6440 N.3   215  TYR215     -0.1241
    161  CA       -14.2660   21.3710  -18.7880 C.3   215  TYR215      0.1605
    162  C        -13.8570   20.0130  -19.3410 C.2   215  TYR215      0.2264
    163  O        -13.6630   19.8690  -20.5540 O.2   215  TYR215     -0.2867
    164  CB       -13.0490   22.1980  -18.3820 C.3   215  TYR215      0.0534
    165  CG       -13.4600   23.6150  -18.0330 C.ar  215  TYR215     -0.0201
    166  CD1      -13.9760   23.9260  -16.7730 C.ar  215  TYR215     -0.0009
    167  CD2      -13.3660   24.6390  -18.9820 C.ar  215  TYR215     -0.0009
    168  CE1      -14.3810   25.2300  -16.4610 C.ar  215  TYR215      0.0417
    169  CE2      -13.7590   25.9510  -18.6820 C.ar  215  TYR215      0.0417
    170  CZ       -14.2670   26.2300  -17.4230 C.ar  215  TYR215      0.1957
    171  OH       -14.6620   27.5240  -17.1220 O.3   215  TYR215     -0.2866
    172  N        -10.3930   41.0150  -20.8820 N.3   246  GLY246     -0.1210
    173  CA       -11.2140   39.9040  -20.4190 C.3   246  GLY246      0.1956
    174  C        -12.5450   39.7640  -21.1280 C.2   246  GLY246      0.2612
    175  O        -13.2370   38.7490  -20.9430 O.2   246  GLY246     -0.2717
    176  N        -12.9370   40.7530  -21.9170 N.am  247  GLY247     -0.1942
    177  CA       -14.2360   40.7380  -22.5430 C.3   247  GLY247      0.2014
    178  C        -14.2080   40.0160  -23.8750 C.2   247  GLY247      0.2638
    179  O        -13.1920   39.9930  -24.5720 O.2   247  GLY247     -0.2714
    180  N        -15.3450   39.4280  -24.2290 N.am  248  MET248     -0.1976
    181  CA       -15.4380   38.7160  -25.4950 C.3   248  MET248      0.1605
    182  C        -15.7740   39.6180  -26.6720 C.2   248  MET248      0.2287
    183  O        -15.7220   39.1570  -27.8200 O.2   248  MET248     -0.2864
    184  CB       -16.4640   37.5850  -25.3780 C.3   248  MET248      0.0413
    185  CG       -15.9220   36.4270  -24.5460 C.3   248  MET248      0.0598
    186  SD       -17.1770   35.1770  -24.2140 S.3   248  MET248     -0.1393
    187  CE       -17.7710   34.7500  -25.8490 C.3   248  MET248      0.0692
    188  N        -17.7610   38.8190  -30.3360 N.3   251  PHE251     -0.1241
    189  CA       -17.9530   37.3820  -30.5470 C.3   251  PHE251      0.1605
    190  C        -19.2860   36.9040  -29.9910 C.2   251  PHE251      0.2264
    191  O        -19.9540   36.0640  -30.6090 O.2   251  PHE251     -0.2867
    192  CB       -16.8210   36.5760  -29.9150 C.3   251  PHE251      0.0534
    193  CG       -16.9570   35.0860  -30.1340 C.ar  251  PHE251     -0.0203
    194  CD1      -17.7570   34.3100  -29.2990 C.ar  251  PHE251     -0.0042
    195  CD2      -16.3110   34.4720  -31.1900 C.ar  251  PHE251     -0.0042
    196  CE1      -17.8890   32.9400  -29.5110 C.ar  251  PHE251     -0.0003
    197  CE2      -16.4340   33.1060  -31.4040 C.ar  251  PHE251     -0.0003
    198  CZ       -17.2290   32.3440  -30.5610 C.ar  251  PHE251     -0.0000
    199  N        -14.7010   40.3670  -18.0120 N.3   273  HIS273     -0.1226
    200  CA       -15.5160   39.1580  -18.0120 C.3   273  HIS273      0.1752
    201  C        -16.5720   39.1540  -16.9120 C.2   273  HIS273      0.2596
    202  O        -17.6620   38.6000  -17.1060 O.2   273  HIS273     -0.2718
    203  CB       -14.6020   37.9470  -17.8550 C.3   273  HIS273      0.0759
    204  CG       -15.3350   36.6660  -17.6290 C.ar  273  HIS273      0.0818
    205  ND1      -16.0290   36.0290  -18.6300 N.ar  273  HIS273     -0.2268
    206  CD2      -15.4590   35.8900  -16.5240 C.ar  273  HIS273      0.1154
    207  CE1      -16.5600   34.9150  -18.1530 C.ar  273  HIS273      0.1986
    208  NE2      -16.2290   34.8060  -16.8770 N.ar  273  HIS273     -0.2212
    209  N        -16.2700   39.7450  -15.7580 N.am  274  TRP274     -0.1976
    210  CA       -17.0870   39.5510  -14.5590 C.3   274  TRP274      0.1640
    211  C        -18.1920   40.6050  -14.4950 C.2   274  TRP274      0.2290
    212  O        -18.2790   41.3890  -13.5590 O.2   274  TRP274     -0.2864
    213  CB       -16.1960   39.5930  -13.3200 C.3   274  TRP274      0.0576
    214  CG       -14.9810   38.7110  -13.4650 C.ar  274  TRP274      0.0006
    215  CD1      -13.7070   39.1000  -13.8180 C.ar  274  TRP274      0.0946
    216  CD2      -14.9370   37.2950  -13.3010 C.ar  274  TRP274      0.0152
    217  NE1      -12.8810   38.0020  -13.8700 N.ar  274  TRP274     -0.2442
    218  CE2      -13.6040   36.8830  -13.5470 C.ar  274  TRP274      0.0810
    219  CE3      -15.8900   36.3360  -12.9590 C.ar  274  TRP274      0.0012
    220  CZ2      -13.2100   35.5510  -13.4660 C.ar  274  TRP274      0.0191
    221  CZ3      -15.5040   35.0160  -12.8680 C.ar  274  TRP274      0.0001
    222  CH2      -14.1700   34.6300  -13.1300 C.ar  274  TRP274      0.0015
@<TRIPOS>BOND
     1   197   195   ar
     2   197   198   ar
     3   195   193   ar
     4    63    64    1
     5   191   190    2
     6   198   196   ar
     7   189   188    1
     8   189   190    1
     9   189   192    1
    10    64    65    1
    11    64    67    1
    12   193   192    1
    13   193   194   ar
    14    65    66    2
    15    71    69   ar
    16    71    73   ar
    17    69    68   ar
    18   196   194   ar
    19    73    72   ar
    20    68    67    1
    21    68    70   ar
    22    75    76    1
    23    75    78    1
    24    75    74    1
    25    76    77    2
    26    72    70   ar
    27   183   182    2
    28    78    80    1
    29    78    79    1
    30    60    57    1
    31    60    61    1
    32   182   181    1
    33    57    58    1
    34    57    56    1
    35    58    59    2
    36   187   186    1
    37    95    93    1
    38    61    62    1
    39   181   184    1
    40   181   180    1
    41   184   185    1
    42    94    93    1
    43    56    62    1
    44    56    53   am
    45    93    90    1
    46    54    53    2
    47   179   178    2
    48   185   186    1
    49   115   113   ar
    50   115   116   ar
    51   113   111   ar
    52   180   178   am
    53    53    52    1
    54   178   177    1
    55    87    86    1
    56   116   114   ar
    57    90    89    1
    58    90    91    1
    59    81    82    1
    60    92    91    2
    61    89    83   am
    62   111   110    1
    63   111   112   ar
    64    85    86    1
    65    85    82    1
    66    86    88    1
    67    52    51    1
    68    52    55    1
    69   110   107    1
    70   177   176    1
    71    51    44   am
    72    36    34   ar
    73    36    37   ar
    74    82    83    1
    75    83    84    2
    76    34    33   ar
    77    49    48    2
    78   114   112   ar
    79   176   174   am
    80    37    39   ar
    81    37    35   ar
    82    39    41   ar
    83    42    43    1
    84    43    44    1
    85    43    46    1
    86    33    35   ar
    87    33    32    1
    88    44    45    2
    89    31    30    2
    90    29    28    1
    91    29    32    1
    92    29    30    1
    93   107   108    1
    94   107   106    1
    95    48    50   am
    96    48    47    1
    97   108   109    2
    98    35    38   ar
    99   174   175    2
   100   174   173    1
   101    41    40   ar
   102   172   173    1
   103   106    98   am
   104   163   162    2
   105    47    46    1
   106    38    40   ar
   107    96    97    1
   108   104   102   ar
   109   104   105   ar
   110    98    97    1
   111    98    99    2
   112   102   101   ar
   113    15    14    2
   114   105   103   ar
   115   162   161    1
   116    97   100    1
   117   167   169   ar
   118   167   165   ar
   119   159   157   ar
   120   159   158   ar
   121   101   103   ar
   122   101   100    1
   123   161   164    1
   124   161   160    1
   125   157   155   ar
   126   169   170   ar
   127   205   207   ar
   128   205   204   ar
   129    14    13    1
   130    14    20   am
   131    13    12    1
   132    13    16    1
   133   164   165    1
   134   207   208   ar
   135    21    20    1
   136    21    22    1
   137    21    24    1
   138   165   166   ar
   139   200   199    1
   140   200   203    1
   141   200   201    1
   142    23    22    2
   143   158   156   ar
   144    18    17   ar
   145   203   204    1
   146    26    24    1
   147   204   206   ar
   148   155   156   ar
   149   155   154    1
   150   117   118    1
   151   170   171    1
   152   170   168   ar
   153    24    25    1
   154   119   118    1
   155   119   120    2
   156   153   152    2
   157    17    16    1
   158    17    19   ar
   159   202   201    2
   160   151   154    1
   161   151   152    1
   162   151   150    1
   163   201   209   am
   164   208   206   ar
   165   166   168   ar
   166   118   121    1
   167   121   122    1
   168   124   122   ar
   169   124   126   ar
   170   122   123   ar
   171    25    27    1
   172   209   210    1
   173   126   127   ar
   174   123   125   ar
   175   127   125   ar
   176   210   211    1
   177   210   213    1
   178   211   212    2
   179     5     6    1
   180     5     2    1
   181   142   141    2
   182   217   215   ar
   183   217   218   ar
   184   215   214   ar
   185     1     2    1
   186     6     8   ar
   187     6     7   ar
   188   218   220   ar
   189   218   216   ar
   190     8    10   ar
   191   220   222   ar
   192   214   213    1
   193   214   216   ar
   194   216   219   ar
   195   143   140    1
   196   143   144    1
   197     2     3    1
   198   222   221   ar
   199     7     9   ar
   200   219   221   ar
   201   140   141    1
   202   140   139    1
   203    10    11   ar
   204   138   136   ar
   205   138   137   ar
   206     9    11   ar
   207     4     3    2
   208   136   134   ar
   209   144   145   ar
   210   144   146   ar
   211   145   147   ar
   212   137   135   ar
   213   146   148   ar
   214   147   149   ar
   215   134   133   ar
   216   148   149   ar
   217   135   133   ar
   218   133   132    1
   219   131   130    2
   220   130   129    1
   221   132   129    1
   222   129   128    1
