@<TRIPOS>MOLECULE
tmp/5tnsD00.pdb
 145 147 0 0 0
SMALL
GASTEIGER

@<TRIPOS>ATOM
      1  N        -13.5440   10.5410  -13.9320 N.3    39  PHE39      -0.1241
      2  CA       -13.0190   11.7210  -13.2680 C.3    39  PHE39       0.1605
      3  C        -14.0280   12.3420  -12.3110 C.2    39  PHE39       0.2264
      4  O        -15.2260   12.4140  -12.5980 O.2    39  PHE39      -0.2867
      5  CB       -12.5880   12.7790  -14.2910 C.3    39  PHE39       0.0534
      6  CG       -12.3140   14.1160  -13.6620 C.ar   39  PHE39      -0.0203
      7  CD1      -11.1180   14.3520  -13.0100 C.ar   39  PHE39      -0.0042
      8  CD2      -13.2750   15.1320  -13.6800 C.ar   39  PHE39      -0.0042
      9  CE1      -10.8650   15.5750  -12.3900 C.ar   39  PHE39      -0.0003
     10  CE2      -13.0300   16.3600  -13.0620 C.ar   39  PHE39      -0.0003
     11  CZ       -11.8290   16.5810  -12.4210 C.ar   39  PHE39      -0.0000
     12  N        -16.5590    7.6050  -18.3090 N.3   105  SER105     -0.1202
     13  CA       -15.6070    8.7510  -18.2660 C.3   105  SER105      0.2020
     14  C        -14.1890    8.2160  -18.5110 C.2   105  SER105      0.2618
     15  O        -13.9900    7.3640  -19.3950 O.2   105  SER105     -0.2717
     16  CB       -15.8080    9.4970  -16.9510 C.3   105  SER105      0.2103
     17  OG       -14.7690   10.4460  -16.7130 O.3   105  SER105     -0.2182
     18  N        -13.1740    8.6910  -17.7770 N.am  106  ILE106     -0.1979
     19  CA       -11.8080    8.2490  -18.0360 C.3   106  ILE106      0.1595
     20  C        -11.6030    6.7840  -17.6850 C.2   106  ILE106      0.2287
     21  O        -10.5460    6.2180  -17.9980 O.2   106  ILE106     -0.2864
     22  CB       -10.7710    9.1300  -17.3010 C.3   106  ILE106      0.0276
     23  CG1      -10.8800    8.9790  -15.7820 C.3   106  ILE106      0.0022
     24  CG2      -10.9720   10.5900  -17.7040 C.3   106  ILE106      0.0022
     25  CD1       -9.7950    9.7460  -15.0110 C.3   106  ILE106      0.0001
     26  N        -10.7310    5.4020  -20.8910 N.3   109  TRP109     -0.1241
     27  CA        -9.3430    5.6030  -21.3020 C.3   109  TRP109      0.1605
     28  C         -8.4400    4.5620  -20.6730 C.2   109  TRP109      0.2264
     29  O         -7.4560    4.1160  -21.2780 O.2   109  TRP109     -0.2867
     30  CB        -8.8560    6.9920  -20.8840 C.3   109  TRP109      0.0550
     31  CG        -9.6820    8.1210  -21.3520 C.ar  109  TRP109      0.0003
     32  CD1      -10.7820    8.0710  -22.1560 C.ar  109  TRP109      0.0946
     33  CD2       -9.4450    9.5040  -21.0710 C.ar  109  TRP109      0.0152
     34  NE1      -11.2570    9.3450  -22.3830 N.ar  109  TRP109     -0.2442
     35  CE2      -10.4530   10.2430  -21.7250 C.ar  109  TRP109      0.0810
     36  CE3       -8.4890   10.1850  -20.3070 C.ar  109  TRP109      0.0012
     37  CZ2      -10.5320   11.6350  -21.6460 C.ar  109  TRP109      0.0191
     38  CZ3       -8.5540   11.5720  -20.2340 C.ar  109  TRP109      0.0001
     39  CH2       -9.5710   12.2840  -20.9030 C.ar  109  TRP109      0.0015
     40  N        -20.2550    7.5490  -21.8610 N.3   129  GLU129     -0.1231
     41  CA       -20.0020    8.9640  -21.5590 C.3   129  GLU129      0.1699
     42  C        -18.5130    9.3050  -21.4690 C.2   129  GLU129      0.2592
     43  O        -18.0250    9.8030  -20.4540 O.2   129  GLU129     -0.2718
     44  CB       -20.7310    9.3730  -20.2710 C.3   129  GLU129      0.0402
     45  CG       -22.1540    9.8460  -20.5240 C.3   129  GLU129      0.1161
     46  CD       -22.2060   11.0500  -21.4400 C.2   129  GLU129      0.3649
     47  OE1      -21.3370   11.9490  -21.3120 O.co2 129  GLU129     -0.2457
     48  OE2      -23.1070   11.0940  -22.3020 O.co2 129  GLU129     -0.2457
     49  N        -17.7940    9.0430  -22.5690 N.am  130  ALA130     -0.1966
     50  CA       -16.4680    9.6100  -22.8010 C.3   130  ALA130      0.1713
     51  C        -15.9510    9.1080  -24.1330 C.2   130  ALA130      0.2458
     52  O        -16.2250    7.9650  -24.5030 O.2   130  ALA130     -0.2730
     53  CB       -15.4500    9.2310  -21.7220 C.3   130  ALA130      0.0333
     54  N        -15.1710    9.8980  -24.8600 N.am  131  PRO131     -0.2727
     55  CA       -14.5540    9.3650  -26.0740 C.3   131  PRO131      0.1402
     56  C        -13.4400    8.3990  -25.7170 C.2   131  PRO131      0.2269
     57  O        -12.7060    8.6120  -24.7500 O.2   131  PRO131     -0.2865
     58  CB       -13.9970   10.6120  -26.7660 C.3   131  PRO131      0.0296
     59  CG       -13.6660   11.5420  -25.6250 C.3   131  PRO131      0.0237
     60  CD       -14.7100   11.2680  -24.5530 C.3   131  PRO131      0.0939
     61  N        -15.5270   20.1100  -23.3380 N.3   151  VAL151     -0.1245
     62  CA       -14.2560   19.5080  -22.9300 C.3   151  VAL151      0.1561
     63  C        -13.0930   20.4960  -22.9300 C.2   151  VAL151      0.2260
     64  O        -11.9420   20.0880  -23.0780 O.2   151  VAL151     -0.2867
     65  CB       -13.8990   18.2870  -23.7990 C.3   151  VAL151      0.0252
     66  CG1      -15.0180   17.2490  -23.7580 C.3   151  VAL151      0.0019
     67  CG2      -13.5990   18.7030  -25.2250 C.3   151  VAL151      0.0019
     68  N        -11.9220   21.4990  -20.3990 N.3   153  HIS153     -0.1226
     69  CA       -11.1260   21.0190  -19.2790 C.3   153  HIS153      0.1752
     70  C        -10.0060   20.0790  -19.7060 C.2   153  HIS153      0.2596
     71  O         -9.0510   19.9070  -18.9380 O.2   153  HIS153     -0.2718
     72  CB       -12.0190   20.3210  -18.2370 C.3   153  HIS153      0.0759
     73  CG       -12.6650   19.0570  -18.7240 C.ar  153  HIS153      0.0818
     74  ND1      -13.7960   19.0530  -19.5130 N.ar  153  HIS153     -0.2268
     75  CD2      -12.3480   17.7560  -18.5140 C.ar  153  HIS153      0.1154
     76  CE1      -14.1410   17.8040  -19.7760 C.ar  153  HIS153      0.1986
     77  NE2      -13.2790   16.9980  -19.1810 N.ar  153  HIS153     -0.2212
     78  N        -10.0840   19.4610  -20.8930 N.am  154  PHE154     -0.1976
     79  CA        -8.9340   18.6830  -21.3600 C.3   154  PHE154      0.1639
     80  C         -7.6790   19.5510  -21.3680 C.2   154  PHE154      0.2290
     81  O         -6.6140   19.1140  -20.9280 O.2   154  PHE154     -0.2864
     82  CB        -9.1380   18.1270  -22.7660 C.3   154  PHE154      0.0560
     83  CG       -10.1390   17.0070  -22.8760 C.ar  154  PHE154     -0.0200
     84  CD1      -10.8070   16.5050  -21.7700 C.ar  154  PHE154     -0.0042
     85  CD2      -10.3870   16.4450  -24.1120 C.ar  154  PHE154     -0.0042
     86  CE1      -11.7240   15.4660  -21.9210 C.ar  154  PHE154     -0.0003
     87  CE2      -11.3030   15.4090  -24.2600 C.ar  154  PHE154     -0.0003
     88  CZ       -11.9690   14.9310  -23.1680 C.ar  154  PHE154     -0.0000
     89  N        -18.1160   21.8170  -11.9890 N.3   179  PHE179     -0.1241
     90  CA       -17.8080   20.8630  -13.0480 C.3   179  PHE179      0.1605
     91  C        -18.9340   19.8560  -13.2130 C.2   179  PHE179      0.2264
     92  O        -19.3390   19.5380  -14.3330 O.2   179  PHE179     -0.2867
     93  CB       -16.4970   20.1310  -12.7480 C.3   179  PHE179      0.0534
     94  CG       -16.0540   19.2060  -13.8630 C.ar  179  PHE179     -0.0203
     95  CD1      -15.2810   19.6940  -14.9110 C.ar  179  PHE179     -0.0042
     96  CD2      -16.4320   17.8680  -13.8700 C.ar  179  PHE179     -0.0042
     97  CE1      -14.8680   18.8600  -15.9560 C.ar  179  PHE179     -0.0003
     98  CE2      -16.0250   17.0140  -14.9080 C.ar  179  PHE179     -0.0003
     99  CZ       -15.2350   17.5300  -15.9590 C.ar  179  PHE179     -0.0000
    100  N        -21.8170   19.7010  -16.5070 N.3   183  HIS183     -0.1241
    101  CA       -21.9090   18.5200  -17.3500 C.3   183  HIS183      0.1621
    102  C        -23.1510   17.6980  -17.0500 C.2   183  HIS183      0.2264
    103  O        -23.2640   16.5720  -17.5350 O.2   183  HIS183     -0.2867
    104  CB       -20.6520   17.6660  -17.1970 C.3   183  HIS183      0.0745
    105  CG       -19.4340   18.3320  -17.7460 C.ar  183  HIS183      0.0817
    106  ND1      -18.7090   19.2590  -17.0280 N.ar  183  HIS183     -0.2268
    107  CD2      -18.8510   18.2570  -18.9660 C.ar  183  HIS183      0.1154
    108  CE1      -17.7090   19.7020  -17.7710 C.ar  183  HIS183      0.1986
    109  NE2      -17.7800   19.1180  -18.9560 N.ar  183  HIS183     -0.2212
    110  N         -5.0970   13.3970  -17.6600 N.3   215  TYR215     -0.1241
    111  CA        -5.2150   14.3170  -18.7890 C.3   215  TYR215      0.1605
    112  C         -3.8570   14.7260  -19.3370 C.2   215  TYR215      0.2264
    113  O         -3.7180   14.9310  -20.5510 O.2   215  TYR215     -0.2867
    114  CB        -6.0260   15.5440  -18.3510 C.3   215  TYR215      0.0534
    115  CG        -7.4290   15.1570  -17.9650 C.ar  215  TYR215     -0.0201
    116  CD1       -7.7100   14.6470  -16.7030 C.ar  215  TYR215     -0.0009
    117  CD2       -8.4700   15.2550  -18.8780 C.ar  215  TYR215     -0.0009
    118  CE1       -8.9820   14.2550  -16.3640 C.ar  215  TYR215      0.0417
    119  CE2       -9.7540   14.8680  -18.5400 C.ar  215  TYR215      0.0417
    120  CZ        -9.9970   14.3790  -17.2790 C.ar  215  TYR215      0.1957
    121  OH       -11.2490   13.9770  -16.9170 O.3   215  TYR215     -0.2866
    122  N        -24.0290   13.9300  -18.3810 N.3   273  HIS273     -0.1226
    123  CA       -22.8130   13.1290  -18.3680 C.3   273  HIS273      0.1752
    124  C        -22.8020   12.0700  -17.2690 C.2   273  HIS273      0.2596
    125  O        -22.1560   11.0200  -17.4160 O.2   273  HIS273     -0.2718
    126  CB       -21.6240   14.0810  -18.1940 C.3   273  HIS273      0.0759
    127  CG       -20.3180   13.3860  -18.0740 C.ar  273  HIS273      0.0818
    128  ND1      -19.7960   12.6160  -19.0890 N.ar  273  HIS273     -0.2268
    129  CD2      -19.4270   13.3390  -17.0570 C.ar  273  HIS273      0.1154
    130  CE1      -18.6380   12.1170  -18.6990 C.ar  273  HIS273      0.1986
    131  NE2      -18.3920   12.5400  -17.4710 N.ar  273  HIS273     -0.2212
    132  N        -23.4710   12.3330  -16.1530 N.am  274  TRP274     -0.1976
    133  CA       -23.3160   11.5200  -14.9480 C.3   274  TRP274      0.1640
    134  C        -24.3900   10.4370  -14.8860 C.2   274  TRP274      0.2290
    135  O        -25.2260   10.4160  -13.9900 O.2   274  TRP274     -0.2864
    136  CB       -23.3760   12.4090  -13.7170 C.3   274  TRP274      0.0576
    137  CG       -22.4860   13.6080  -13.8720 C.ar  274  TRP274      0.0006
    138  CD1      -22.8710   14.8680  -14.2150 C.ar  274  TRP274      0.0946
    139  CD2      -21.0610   13.6400  -13.7400 C.ar  274  TRP274      0.0152
    140  NE1      -21.7730   15.7000  -14.2800 N.ar  274  TRP274     -0.2442
    141  CE2      -20.6480   14.9690  -13.9970 C.ar  274  TRP274      0.0810
    142  CE3      -20.0900   12.6790  -13.4280 C.ar  274  TRP274      0.0012
    143  CZ2      -19.3120   15.3600  -13.9460 C.ar  274  TRP274      0.0191
    144  CZ3      -18.7560   13.0680  -13.3750 C.ar  274  TRP274      0.0001
    145  CH2      -18.3790   14.4030  -13.6340 C.ar  274  TRP274      0.0015
@<TRIPOS>BOND
     1    58    55    1
     2    58    59    1
     3    55    56    1
     4    55    54    1
     5    56    57    2
     6    59    60    1
     7    67    65    1
     8    54    60    1
     9    54    51   am
    10    52    51    2
    11    87    85   ar
    12    87    88   ar
    13    51    50    1
    14    85    83   ar
    15    65    66    1
    16    65    62    1
    17    61    62    1
    18    88    86   ar
    19    64    63    2
    20    62    63    1
    21    83    82    1
    22    83    84   ar
    23    50    49    1
    24    50    53    1
    25    82    79    1
    26    49    42   am
    27    34    32   ar
    28    34    35   ar
    29    48    46   ar
    30    32    31   ar
    31    86    84   ar
    32    40    41    1
    33    35    37   ar
    34    35    33   ar
    35    37    39   ar
    36    41    42    1
    37    41    44    1
    38    42    43    2
    39    46    47   ar
    40    46    45    1
    41    80    79    1
    42    80    81    2
    43    79    78    1
    44    31    33   ar
    45    31    30    1
    46    27    26    1
    47    27    30    1
    48    27    28    1
    49    29    28    2
    50    33    36   ar
    51    39    38   ar
    52    78    70   am
    53   113   112    2
    54    45    44    1
    55    68    69    1
    56    36    38   ar
    57    76    74   ar
    58    76    77   ar
    59    70    69    1
    60    70    71    2
    61    74    73   ar
    62    15    14    2
    63   112   111    1
    64    69    72    1
    65    77    75   ar
    66   128   130   ar
    67   128   127   ar
    68   107   109   ar
    69   107   105   ar
    70   109   108   ar
    71   117   119   ar
    72   117   115   ar
    73   111   114    1
    74   111   110    1
    75    73    75   ar
    76    73    72    1
    77   130   131   ar
    78   119   120   ar
    79    14    13    1
    80    14    18   am
    81   122   123    1
    82   123   126    1
    83   123   124    1
    84   114   115    1
    85    12    13    1
    86    13    16    1
    87   126   127    1
    88   127   129   ar
    89    19    18    1
    90    19    20    1
    91    19    22    1
    92    21    20    2
    93   115   116   ar
    94   108   106   ar
    95   105   104    1
    96   105   106   ar
    97    24    22    1
    98   103   102    2
    99   131   129   ar
   100   125   124    2
   101   101   104    1
   102   101   102    1
   103   101   100    1
   104    22    23    1
   105   120   121    1
   106   120   118   ar
   107   124   132   am
   108    16    17    1
   109   116   118   ar
   110   132   133    1
   111    99    97   ar
   112    99    98   ar
   113    97    95   ar
   114    23    25    1
   115   133   134    1
   116   133   136    1
   117    95    94   ar
   118    98    96   ar
   119   134   135    2
   120    92    91    2
   121     5     6    1
   122     5     2    1
   123   140   138   ar
   124   140   141   ar
   125   138   137   ar
   126   141   143   ar
   127   141   139   ar
   128   143   145   ar
   129     1     2    1
   130   137   139   ar
   131   137   136    1
   132    96    94   ar
   133    94    93    1
   134   139   142   ar
   135     8     6   ar
   136     8    10   ar
   137     6     7   ar
   138   145   144   ar
   139   142   144   ar
   140     2     3    1
   141    91    90    1
   142    10    11   ar
   143    90    93    1
   144    90    89    1
   145     7     9   ar
   146     4     3    2
   147    11     9   ar
