@<TRIPOS>MOLECULE
tmp/5tntA00.pdb
 187 184 0 0 0
SMALL
GASTEIGER

@<TRIPOS>ATOM
      1  N         -3.4410  -42.6600   -9.3400 N.3    41  HIS41      -0.1241
      2  CA        -4.1270  -42.6260  -10.6510 C.3    41  HIS41       0.1621
      3  C         -3.5920  -41.5340  -11.5790 C.2    41  HIS41       0.2264
      4  O         -3.8380  -41.5860  -12.7850 O.2    41  HIS41      -0.2867
      5  CB        -5.6580  -42.5180  -10.5040 C.3    41  HIS41       0.0745
      6  CG        -6.1910  -41.1360  -10.2880 C.ar   41  HIS41       0.0817
      7  ND1       -6.4560  -40.6500   -9.0270 N.ar   41  HIS41      -0.2268
      8  CD2       -6.5210  -40.1880  -11.2010 C.ar   41  HIS41       0.1154
      9  CE1       -6.9530  -39.4370   -9.2080 C.ar   41  HIS41       0.1986
     10  NE2       -7.0150  -39.1270  -10.5070 N.ar   41  HIS41      -0.2212
     11  N         -9.3700  -51.1820   -9.0010 N.3    84  ASN84      -0.1240
     12  CA        -9.9890  -49.9660   -8.5320 C.3    84  ASN84       0.1653
     13  C         -8.9780  -48.8450   -8.6650 C.2    84  ASN84       0.2266
     14  O         -7.9900  -48.8090   -7.9290 O.2    84  ASN84      -0.2867
     15  CB       -10.4470  -50.0980   -7.0850 C.3    84  ASN84       0.1155
     16  CG       -11.2170  -48.9070   -6.5370 C.2    84  ASN84       0.2627
     17  OD1      -11.0190  -47.7370   -6.9290 O.2    84  ASN84      -0.2716
     18  ND2      -12.0620  -49.1550   -5.5570 N.am   84  ASN84      -0.0877
     19  N         -9.1100  -45.8950   -7.7180 N.3    86  TYR86      -0.1241
     20  CA        -9.0670  -44.9150   -6.6370 C.3    86  TYR86       0.1605
     21  C         -8.8770  -45.4720   -5.1900 C.2    86  TYR86       0.2264
     22  O         -9.0330  -44.7220   -4.2210 O.2    86  TYR86      -0.2867
     23  CB       -10.3530  -44.0870   -6.7420 C.3    86  TYR86       0.0534
     24  CG       -10.5230  -43.4610   -8.1050 C.ar   86  TYR86      -0.0201
     25  CD1       -9.8240  -42.3090   -8.4570 C.ar   86  TYR86      -0.0009
     26  CD2      -11.3190  -44.0590   -9.0760 C.ar   86  TYR86      -0.0009
     27  CE1       -9.9400  -41.7530   -9.7260 C.ar   86  TYR86       0.0417
     28  CE2      -11.4390  -43.5140  -10.3530 C.ar   86  TYR86       0.0417
     29  CZ       -10.7580  -42.3530  -10.6720 C.ar   86  TYR86       0.1957
     30  OH       -10.8860  -41.8220  -11.9370 O.3    86  TYR86      -0.2866
     31  N         -9.7310  -27.3730  -12.5790 N.3   132  ARG132     -0.1245
     32  CA       -10.7980  -26.5890  -13.1820 C.3   132  ARG132      0.1563
     33  C        -11.4420  -25.6990  -12.1220 C.2   132  ARG132      0.2260
     34  O        -11.6280  -26.1010  -10.9810 O.2   132  ARG132     -0.2867
     35  CB       -11.8590  -27.4880  -13.7920 C.3   132  ARG132      0.0307
     36  CG       -11.3370  -28.3690  -14.9330 C.3   132  ARG132      0.0489
     37  CD       -12.5100  -29.1270  -15.5330 C.3   132  ARG132      0.2205
     38  NE       -12.1110  -30.1010  -16.5420 N.pl3 132  ARG132     -0.0865
     39  CZ       -12.1450  -29.9320  -17.8570 C.cat 132  ARG132      0.5346
     40  NH1      -12.5100  -28.7660  -18.3780 N.pl3 132  ARG132      0.1354
     41  NH2      -11.8010  -30.9280  -18.6670 N.pl3 132  ARG132      0.1354
     42  N        -17.0720  -26.7760  -12.9040 N.3   135  HIS135     -0.1226
     43  CA       -17.2640  -28.1190  -13.4730 C.3   135  HIS135      0.1752
     44  C        -17.2870  -27.9930  -15.0080 C.2   135  HIS135      0.2595
     45  O        -18.0290  -27.1730  -15.5700 O.2   135  HIS135     -0.2718
     46  CB       -18.5630  -28.7590  -12.9670 C.3   135  HIS135      0.0759
     47  CG       -18.8700  -30.0940  -13.5750 C.ar  135  HIS135      0.0818
     48  ND1      -18.0100  -31.1760  -13.4390 N.ar  135  HIS135     -0.2268
     49  CD2      -19.9330  -30.4750  -14.3250 C.ar  135  HIS135      0.1154
     50  CE1      -18.5930  -32.1770  -14.0910 C.ar  135  HIS135      0.1986
     51  NE2      -19.7350  -31.7950  -14.6480 N.ar  135  HIS135     -0.2212
     52  N        -16.4180  -28.7690  -15.6700 N.am  136  LYS136     -0.1980
     53  CA       -16.2020  -28.7920  -17.1220 C.3   136  LYS136      0.1596
     54  C        -15.7350  -27.4410  -17.6450 C.2   136  LYS136      0.2287
     55  O        -15.8470  -27.1770  -18.8200 O.2   136  LYS136     -0.2864
     56  CB       -17.4400  -29.2860  -17.8890 C.3   136  LYS136      0.0298
     57  CG       -17.8230  -30.7170  -17.5070 C.3   136  LYS136      0.0038
     58  CD       -18.9920  -31.1910  -18.3550 C.3   136  LYS136      0.0206
     59  CE       -19.1980  -32.6850  -18.2650 C.3   136  LYS136      0.1093
     60  NZ       -20.3840  -33.1270  -19.0470 N.3   136  LYS136     -0.1314
     61  N        -20.8890  -44.9480   -5.8030 N.3   162  PHE162     -0.1227
     62  CA       -19.6150  -45.6580   -5.6480 C.3   162  PHE162      0.1736
     63  C        -19.3150  -45.9210   -4.1750 C.2   162  PHE162      0.2596
     64  O        -19.8500  -45.2320   -3.3080 O.2   162  PHE162     -0.2718
     65  CB       -18.4710  -44.8880   -6.3280 C.3   162  PHE162      0.0547
     66  CG       -18.7050  -44.6480   -7.8020 C.ar  162  PHE162     -0.0202
     67  CD1      -18.6420  -45.6960   -8.7110 C.ar  162  PHE162     -0.0042
     68  CD2      -19.0880  -43.3980   -8.2670 C.ar  162  PHE162     -0.0042
     69  CE1      -18.9030  -45.4830  -10.0640 C.ar  162  PHE162     -0.0003
     70  CE2      -19.3380  -43.1870   -9.6210 C.ar  162  PHE162     -0.0003
     71  CZ       -19.2780  -44.2370  -10.5060 C.ar  162  PHE162     -0.0000
     72  N        -18.4890  -46.9420   -3.8870 N.am  163  THR163     -0.1953
     73  CA       -18.1790  -47.3250   -2.5070 C.3   163  THR163      0.1897
     74  C        -17.0590  -46.4480   -1.9380 C.2   163  THR163      0.2313
     75  O        -16.0900  -46.1460   -2.6380 O.2   163  THR163     -0.2863
     76  CB       -17.8150  -48.8130   -2.4170 C.3   163  THR163      0.1794
     77  OG1      -18.8400  -49.5820   -3.0490 O.3   163  THR163     -0.2208
     78  CG2      -17.6350  -49.2770   -0.9720 C.3   163  THR163      0.0378
     79  N        -15.4310  -26.7860   -4.0410 N.3   179  ASP179     -0.1225
     80  CA       -14.9100  -28.1440   -4.0800 C.3   179  ASP179      0.1805
     81  C        -13.5980  -28.1900   -4.8250 C.2   179  ASP179      0.2598
     82  O        -13.2250  -27.2560   -5.5300 O.2   179  ASP179     -0.2718
     83  CB       -15.9270  -29.0200   -4.8570 C.3   179  ASP179      0.1424
     84  CG       -15.8340  -30.5230   -4.7450 C.2   179  ASP179      0.3668
     85  OD1      -15.0770  -31.0060   -3.8730 O.co2 179  ASP179     -0.2456
     86  OD2      -16.5450  -31.2120   -5.5300 O.co2 179  ASP179     -0.2456
     87  N        -12.9260  -29.3400   -4.7310 N.am  180  SER180     -0.1938
     88  CA       -11.8170  -29.6920   -5.6220 C.3   180  SER180      0.2055
     89  C        -12.4510  -30.0630   -6.9740 C.2   180  SER180      0.2643
     90  O        -13.6710  -30.1760   -7.1270 O.2   180  SER180     -0.2714
     91  CB       -11.0650  -30.9040   -5.0830 C.3   180  SER180      0.2130
     92  OG       -12.0050  -31.9430   -4.8700 O.3   180  SER180     -0.2179
     93  N        -11.6290  -30.1560   -8.0090 N.am  181  CYS181     -0.1953
     94  CA       -12.1180  -30.5200   -9.3270 C.3   181  CYS181      0.1843
     95  C        -11.0250  -31.2120  -10.1320 C.2   181  CYS181      0.2625
     96  O         -9.8990  -31.3470   -9.6660 O.2   181  CYS181     -0.2714
     97  CB       -12.6750  -29.2870  -10.0490 C.3   181  CYS181      0.0997
     98  SG       -13.8190  -29.6420  -11.4440 S.3   181  CYS181     -0.0797
     99  N        -11.3740  -31.6740  -11.3070 N.am  182  GLN182     -0.1977
    100  CA       -10.4320  -32.3210  -12.2120 C.3   182  GLN182      0.1601
    101  C         -9.2040  -31.4210  -12.4330 C.2   182  GLN182      0.2287
    102  O         -9.3260  -30.2190  -12.6610 O.2   182  GLN182     -0.2864
    103  CB       -11.1380  -32.6150  -13.5320 C.3   182  GLN182      0.0394
    104  CG       -10.3230  -33.4740  -14.5010 C.3   182  GLN182      0.0908
    105  CD       -11.1110  -33.7650  -15.7380 C.2   182  GLN182      0.2608
    106  OE1      -11.7750  -32.8910  -16.2940 O.2   182  GLN182     -0.2717
    107  NE2      -11.0230  -34.9920  -16.2440 N.am  182  GLN182     -0.0878
    108  N         -6.4850  -33.4310   -8.5220 N.3   185  SER185     -0.1217
    109  CA        -6.0990  -34.7150   -7.9620 C.3   185  SER185      0.1889
    110  C         -4.6190  -34.8390   -7.7360 C.2   185  SER185      0.2288
    111  O         -3.8200  -34.3580   -8.5370 O.2   185  SER185     -0.2866
    112  CB        -6.5040  -35.8690   -8.8650 C.3   185  SER185      0.2089
    113  OG        -7.8930  -35.8770   -9.1140 O.3   185  SER185     -0.2183
    114  N         -5.8630  -35.2360   -2.4390 N.3   203  ILE203     -0.1245
    115  CA        -7.0450  -34.9710   -3.2710 C.3   203  ILE203      0.1561
    116  C         -7.1650  -36.1570   -4.2450 C.2   203  ILE203      0.2260
    117  O         -6.1950  -36.5220   -4.9100 O.2   203  ILE203     -0.2867
    118  CB        -6.8590  -33.6570   -4.0140 C.3   203  ILE203      0.0252
    119  CG1       -6.6540  -32.4610   -3.0720 C.3   203  ILE203      0.0019
    120  CG2       -8.0840  -33.3610   -4.9270 C.3   203  ILE203      0.0019
    121  CD1       -6.2630  -31.1660   -3.7220 C.3   203  ILE203      0.0001
    122  N        -10.7570  -37.7810   -5.8670 N.3   205  TRP205     -0.1227
    123  CA       -11.7700  -37.7480   -6.9250 C.3   205  TRP205      0.1737
    124  C        -13.0760  -37.1750   -6.4710 C.2   205  TRP205      0.2596
    125  O        -13.2280  -36.7550   -5.3380 O.2   205  TRP205     -0.2718
    126  CB       -11.9950  -39.2050   -7.4590 C.3   205  TRP205      0.0564
    127  CG       -12.5670  -40.1690   -6.4600 C.ar  205  TRP205      0.0003
    128  CD1      -11.8700  -40.8950   -5.5460 C.ar  205  TRP205      0.0946
    129  CD2      -13.9470  -40.5560   -6.3030 C.ar  205  TRP205      0.0152
    130  NE1      -12.7140  -41.7180   -4.8490 N.ar  205  TRP205     -0.2442
    131  CE2      -13.9970  -41.5050   -5.2650 C.ar  205  TRP205      0.0810
    132  CE3      -15.1390  -40.1960   -6.9430 C.ar  205  TRP205      0.0012
    133  CZ2      -15.1910  -42.1170   -4.8660 C.ar  205  TRP205      0.0191
    134  CZ3      -16.3200  -40.7870   -6.5330 C.ar  205  TRP205      0.0001
    135  CH2      -16.3380  -41.7270   -5.5030 C.ar  205  TRP205      0.0015
    136  N        -13.9770  -37.0540   -7.4220 N.am  206  GLY206     -0.1942
    137  CA       -15.3630  -36.6620   -7.2100 C.3   206  GLY206      0.2014
    138  C        -16.1270  -36.9430   -8.4970 C.2   206  GLY206      0.2639
    139  O        -15.5070  -37.3450   -9.4830 O.2   206  GLY206     -0.2714
    140  N        -17.4580  -36.7550   -8.5050 N.am  207  GLU207     -0.1963
    141  CA       -18.3170  -37.0520   -9.6810 C.3   207  GLU207      0.1733
    142  C        -18.7310  -35.8530  -10.5290 C.2   207  GLU207      0.2616
    143  O        -18.7940  -35.9850  -11.7520 O.2   207  GLU207     -0.2715
    144  CB       -19.5650  -37.8030   -9.2370 C.3   207  GLU207      0.0429
    145  CG       -19.3370  -39.2950   -9.1180 C.3   207  GLU207      0.1163
    146  CD       -20.3320  -39.9640   -8.2020 C.2   207  GLU207      0.3649
    147  OE1      -20.2380  -39.7390   -6.9760 O.co2 207  GLU207     -0.2457
    148  OE2      -21.2590  -40.6330   -8.7080 O.co2 207  GLU207     -0.2457
    149  N        -19.1120  -34.7390   -9.8970 N.am  208  GLU208     -0.1963
    150  CA       -19.5230  -33.4920  -10.5500 C.3   208  GLU208      0.1733
    151  C        -19.0250  -32.3830   -9.6280 C.2   208  GLU208      0.2616
    152  O        -19.4550  -32.3310   -8.4750 O.2   208  GLU208     -0.2715
    153  CB       -21.0450  -33.4320  -10.7020 C.3   208  GLU208      0.0429
    154  CG       -21.5010  -32.3580  -11.6670 C.3   208  GLU208      0.1163
    155  CD       -22.9050  -32.4700  -12.2250 C.2   208  GLU208      0.3649
    156  OE1      -23.5090  -33.5620  -12.1270 O.co2 208  GLU208     -0.2457
    157  OE2      -23.3620  -31.4860  -12.8500 O.co2 208  GLU208     -0.2457
    158  N        -18.0500  -31.5710  -10.0690 N.am  209  CYS209     -0.1968
    159  CA       -17.4180  -30.6300   -9.1460 C.3   209  CYS209      0.1712
    160  C        -18.3600  -29.6400   -8.6000 C.2   209  CYS209      0.2296
    161  O        -19.0520  -28.9740   -9.3710 O.2   209  CYS209     -0.2864
    162  CB       -16.2540  -29.9080   -9.8120 C.3   209  CYS209      0.0983
    163  SG       -15.1340  -30.9990  -10.6960 S.3   209  CYS209     -0.0798
    164  N        -19.7250  -34.3960   -2.8410 N.3   215  TYR215     -0.1227
    165  CA       -18.5430  -34.0010   -2.0770 C.3   215  TYR215      0.1736
    166  C        -17.3100  -34.4870   -2.7430 C.2   215  TYR215      0.2596
    167  O        -17.3470  -35.4890   -3.4570 O.2   215  TYR215     -0.2718
    168  CB       -18.5750  -34.6340   -0.6840 C.3   215  TYR215      0.0548
    169  CG       -19.7860  -34.2280    0.1050 C.ar  215  TYR215     -0.0200
    170  CD1      -19.8310  -33.0060    0.7640 C.ar  215  TYR215     -0.0009
    171  CD2      -20.9100  -35.0400    0.1550 C.ar  215  TYR215     -0.0009
    172  CE1      -20.9700  -32.5990    1.4500 C.ar  215  TYR215      0.0417
    173  CE2      -22.0510  -34.6510    0.8440 C.ar  215  TYR215      0.0417
    174  CZ       -22.0880  -33.4180    1.4660 C.ar  215  TYR215      0.1957
    175  OH       -23.2470  -33.0590    2.0890 O.3   215  TYR215     -0.2866
    176  N        -16.1990  -33.8280   -2.4420 N.am  216  GLY216     -0.1942
    177  CA       -14.8940  -34.2750   -2.8680 C.3   216  GLY216      0.2014
    178  C        -14.4760  -35.4550   -2.0040 C.2   216  GLY216      0.2638
    179  O        -14.7550  -35.5060   -0.7970 O.2   216  GLY216     -0.2714
    180  N        -13.7970  -36.4210   -2.6310 N.am  217  ILE217     -0.1977
    181  CA       -13.3260  -37.6250   -1.9720 C.3   217  ILE217      0.1596
    182  C        -11.8220  -37.5790   -1.9220 C.2   217  ILE217      0.2287
    183  O        -11.1600  -37.1820   -2.8840 O.2   217  ILE217     -0.2864
    184  CB       -13.8350  -38.9000   -2.6840 C.3   217  ILE217      0.0276
    185  CG1      -15.3270  -38.7800   -3.0720 C.3   217  ILE217      0.0022
    186  CG2      -13.5870  -40.1380   -1.8380 C.3   217  ILE217      0.0022
    187  CD1      -16.2870  -38.6380   -1.9530 C.3   217  ILE217      0.0001
@<TRIPOS>BOND
     1    60    59    1
     2    55    54    2
     3    41    39    1
     4    40    39    1
     5    58    59    1
     6    58    57    1
     7    56    57    1
     8    56    53    1
     9    39    38    2
    10    54    53    1
    11    53    52    1
    12    38    37    1
    13   106   105    2
    14   107   105   am
    15   105   104    1
    16    52    44   am
    17    45    44    2
    18    37    36    1
    19    44    43    1
    20    36    35    1
    21    51    49   ar
    22    51    50   ar
    23   104   103    1
    24    49    47   ar
    25    50    48   ar
    26    35    32    1
    27    47    48   ar
    28    47    46    1
    29   103   100    1
    30    43    46    1
    31    43    42    1
    32    32    31    1
    33    32    33    1
    34   157   155   ar
    35     4     3    2
    36   102   101    2
    37   101   100    1
    38   155   156   ar
    39   155   154    1
    40   100    99    1
    41    33    34    2
    42    30    29    1
    43   143   142    2
    44   154   153    1
    45     3     2    1
    46    98   163    1
    47    98    97    1
    48    99    95   am
    49     8    10   ar
    50     8     6   ar
    51   153   150    1
    52   163   162    1
    53    29    28   ar
    54    29    27   ar
    55     2     5    1
    56     2     1    1
    57   150   149    1
    58   150   151    1
    59   142   149   am
    60   142   141    1
    61    10     9   ar
    62    71    69   ar
    63    71    70   ar
    64     5     6    1
    65    28    26   ar
    66     6     7   ar
    67    95    96    2
    68    95    94    1
    69   158   151   am
    70   158   159    1
    71    69    67   ar
    72    97    94    1
    73   162   159    1
    74    27    25   ar
    75   141   144    1
    76   141   140    1
    77   151   152    2
    78    70    68   ar
    79   139   138    2
    80   161   160    2
    81    94    93    1
    82   144   145    1
    83     9     7   ar
    84   159   160    1
    85   145   146    1
    86   113   112    1
    87    26    24   ar
    88    11    12    1
    89   112   109    1
    90    67    66   ar
    91   148   146   ar
    92    13    12    1
    93    13    14    2
    94   111   110    2
    95    12    15    1
    96   108   109    1
    97   140   138   am
    98   138   137    1
    99    25    24   ar
   100    68    66   ar
   101   146   147   ar
   102    24    23    1
   103    93    89   am
   104   109   110    1
   105    66    65    1
   106    19    20    1
   107   126   123    1
   108   126   127    1
   109   136   137    1
   110   136   124   am
   111    90    89    2
   112    15    16    1
   113    89    88    1
   114   132   134   ar
   115   132   129   ar
   116    17    16    2
   117   123   124    1
   118   123   122    1
   119    23    20    1
   120    20    21    1
   121    16    18   am
   122   134   135   ar
   123   124   125    2
   124   127   129   ar
   125   127   128   ar
   126    65    62    1
   127   129   131   ar
   128    61    62    1
   129    62    63    1
   130    88    91    1
   131    88    87    1
   132   128   130   ar
   133    86    84   ar
   134    82    81    2
   135   135   133   ar
   136   131   133   ar
   137   131   130   ar
   138    21    22    2
   139    91    92    1
   140   120   118    1
   141   117   116    2
   142    83    84    1
   143    83    80    1
   144    81    87   am
   145    81    80    1
   146    84    85   ar
   147   116   115    1
   148    63    72   am
   149    63    64    2
   150    80    79    1
   151   118   115    1
   152   118   119    1
   153    72    73    1
   154   121   119    1
   155   167   166    2
   156   115   114    1
   157   185   184    1
   158   185   187    1
   159    77    76    1
   160   183   182    2
   161   177   176    1
   162   177   178    1
   163   164   165    1
   164   166   176   am
   165   166   165    1
   166   184   181    1
   167   184   186    1
   168    75    74    2
   169   180   178   am
   170   180   181    1
   171    73    76    1
   172    73    74    1
   173    76    78    1
   174   165   168    1
   175   178   179    2
   176   181   182    1
   177   168   169    1
   178   169   171   ar
   179   169   170   ar
   180   171   173   ar
   181   170   172   ar
   182   173   174   ar
   183   172   174   ar
   184   174   175    1
