@<TRIPOS>MOLECULE
tmp/5tnxA00.pdb
 124 119 0 0 0
SMALL
GASTEIGER

@<TRIPOS>ATOM
      1  N         96.5970   29.2210  142.2850 N.3    41  LEU41      -0.1231
      2  CA        97.1660   27.8840  142.4200 C.3    41  LEU41       0.1693
      3  C         97.7720   27.4690  141.0820 C.2    41  LEU41       0.2592
      4  O         97.1730   27.7010  140.0220 O.2    41  LEU41      -0.2718
      5  CB        96.1110   26.8730  142.8870 C.3    41  LEU41       0.0284
      6  CG        96.5910   25.4200  143.0570 C.3    41  LEU41       0.0019
      7  CD1       95.9700   24.7350  144.2890 C.3    41  LEU41       0.0001
      8  CD2       96.2690   24.6000  141.8160 C.3    41  LEU41       0.0001
      9  N         98.9680   26.8650  141.1280 N.am   42  CYS42      -0.1956
     10  CA        99.7230   26.4950  139.9360 C.3    42  CYS42       0.1843
     11  C        100.0830   25.0220  139.9650 C.2    42  CYS42       0.2625
     12  O        100.2080   24.4230  141.0350 O.2    42  CYS42      -0.2714
     13  CB       101.0240   27.2920  139.8300 C.3    42  CYS42       0.0997
     14  SG       100.8340   29.0230  140.0770 S.3    42  CYS42      -0.0797
     15  N        100.2760   24.4420  138.7740 N.am   43  HIS43      -0.1959
     16  CA       100.8450   23.0990  138.7150 C.3    43  HIS43       0.1787
     17  C        102.1690   23.0280  139.4710 C.2    43  HIS43       0.2620
     18  O        102.4810   22.0010  140.0860 O.2    43  HIS43      -0.2715
     19  CB       101.0310   22.6790  137.2540 C.3    43  HIS43       0.0785
     20  CG        99.7390   22.4570  136.5250 C.ar   43  HIS43       0.0821
     21  ND1       98.9700   23.4920  136.0360 N.ar   43  HIS43      -0.2267
     22  CD2       99.0720   21.3170  136.2180 C.ar   43  HIS43       0.1154
     23  CE1       97.8930   23.0000  135.4470 C.ar   43  HIS43       0.1986
     24  NE2       97.9320   21.6820  135.5420 N.ar   43  HIS43      -0.2212
     25  N        102.9390   24.1120  139.4480 N.am   44  THR44      -0.1951
     26  CA       104.2070   24.1710  140.1670 C.3    44  THR44       0.1897
     27  C        104.0250   23.9690  141.6770 C.2    44  THR44       0.2313
     28  O        104.8770   23.3510  142.3230 O.2    44  THR44      -0.2863
     29  CB       104.9000   25.4890  139.8560 C.3    44  THR44       0.1794
     30  OG1      105.3110   25.4800  138.4810 O.3    44  THR44      -0.2208
     31  CG2      106.1340   25.6930  140.7280 C.3    44  THR44       0.0378
     32  N        103.6420   20.2360  141.9300 N.3    47  ILE47      -0.1245
     33  CA       104.8900   19.5240  141.6720 C.3    47  ILE47       0.1561
     34  C        105.7710   19.5190  142.9160 C.2    47  ILE47       0.2260
     35  O        106.4410   18.5230  143.2170 O.2    47  ILE47      -0.2867
     36  CB       105.5930   20.1660  140.4640 C.3    47  ILE47       0.0252
     37  CG1      104.8870   19.7170  139.1830 C.3    47  ILE47       0.0019
     38  CG2      107.0900   19.8730  140.4840 C.3    47  ILE47       0.0019
     39  CD1      105.0100   20.6920  138.0370 C.3    47  ILE47       0.0001
     40  N        102.4240   30.7590  145.3670 N.3    63  HIS63      -0.1226
     41  CA       103.3770   31.7520  144.8700 C.3    63  HIS63       0.1752
     42  C        102.7260   32.7360  143.9020 C.2    63  HIS63       0.2595
     43  O        103.4090   33.3350  143.0550 O.2    63  HIS63      -0.2718
     44  CB       104.6030   31.0710  144.2470 C.3    63  HIS63       0.0759
     45  CG       104.3290   30.1730  143.0820 C.ar   63  HIS63       0.0818
     46  ND1      103.7290   28.9370  143.2110 N.ar   63  HIS63      -0.2268
     47  CD2      104.6530   30.2990  141.7710 C.ar   63  HIS63       0.1154
     48  CE1      103.6540   28.3610  142.0250 C.ar   63  HIS63       0.1986
     49  NE2      104.2320   29.1570  141.1380 N.ar   63  HIS63      -0.2212
     50  N        101.4160   32.9410  144.0450 N.am   64  GLU64      -0.1979
     51  CA       100.6700   33.8970  143.2300 C.3    64  GLU64       0.1602
     52  C         99.7380   34.7160  144.1270 C.2    64  GLU64       0.2287
     53  O         98.5240   34.8100  143.9040 O.2    64  GLU64      -0.2864
     54  CB        99.9000   33.1690  142.1350 C.3    64  GLU64       0.0415
     55  CG       100.8280   32.7750  140.9400 C.3    64  GLU64       0.1163
     56  CD       100.1080   32.0860  139.7710 C.2    64  GLU64       0.3649
     57  OE1       98.9160   31.7110  139.8870 O.co2  64  GLU64      -0.2457
     58  OE2      100.7420   31.8830  138.7020 O.co2  64  GLU64      -0.2457
     59  N        103.1860   35.3720  138.8160 N.3   171  CYS171     -0.1221
     60  CA       103.9740   34.2860  138.2460 C.3   171  CYS171      0.1808
     61  C        103.4760   33.9060  136.8570 C.2   171  CYS171      0.2601
     62  O        104.0140   34.4110  135.8800 O.2   171  CYS171     -0.2717
     63  CB       103.9860   33.0790  139.1850 C.3   171  CYS171      0.0970
     64  SG       105.0920   31.7540  138.6000 S.3   171  CYS171     -0.0800
     65  N        102.4390   33.0630  136.7520 N.am  172  GLY172     -0.1957
     66  CA       102.1410   32.4410  135.4650 C.3   172  GLY172      0.1869
     67  C        101.7770   33.4300  134.3670 C.2   172  GLY172      0.2309
     68  O        102.1920   33.2730  133.2050 O.2   172  GLY172     -0.2863
     69  N         97.3800   26.6100  128.0190 N.3   198  GLY198     -0.1210
     70  CA        97.1100   26.7670  129.4410 C.3   198  GLY198      0.1956
     71  C         97.1830   28.2320  129.8330 C.2   198  GLY198      0.2612
     72  O         97.1880   29.1300  128.9870 O.2   198  GLY198     -0.2717
     73  N         97.2190   28.4840  131.1530 N.am  199  ALA199     -0.1965
     74  CA        97.2240   29.8760  131.6010 C.3   199  ALA199      0.1728
     75  C         98.4110   30.6440  131.0190 C.2   199  ALA199      0.2616
     76  O         98.2740   31.8140  130.6460 O.2   199  ALA199     -0.2715
     77  CB        97.2430   29.9460  133.1320 C.3   199  ALA199      0.0334
     78  N         99.5930   30.0130  130.9530 N.am  200  VAL200     -0.1963
     79  CA       100.7730   30.7050  130.4380 C.3   200  VAL200      0.1727
     80  C        100.6150   30.9840  128.9480 C.2   200  VAL200      0.2616
     81  O        100.8810   32.0990  128.4780 O.2   200  VAL200     -0.2715
     82  CB       102.0490   29.8880  130.7170 C.3   200  VAL200      0.0290
     83  CG1      103.2620   30.4640  129.9300 C.3   200  VAL200      0.0023
     84  CG2      102.3470   29.8790  132.2120 C.3   200  VAL200      0.0023
     85  N        100.1990   29.9680  128.1910 N.am  201  GLY201     -0.1955
     86  CA       100.0150   30.1540  126.7510 C.3   201  GLY201      0.1869
     87  C         98.9430   31.1710  126.4210 C.2   201  GLY201      0.2309
     88  O         99.0930   31.9680  125.4880 O.2   201  GLY201     -0.2863
     89  N        105.1470   26.1980  125.9490 N.3   263  SER263     -0.1217
     90  CA       104.7770   26.1480  127.3650 C.3   263  SER263      0.1889
     91  C        104.2450   24.7990  127.8430 C.2   263  SER263      0.2288
     92  O        103.9030   24.6910  129.0310 O.2   263  SER263     -0.2866
     93  CB       103.7490   27.2440  127.6890 C.3   263  SER263      0.2089
     94  OG       102.5250   27.0260  126.9850 O.3   263  SER263     -0.2183
     95  N         92.8390   22.0370  138.3810 N.3   356  SER356     -0.1217
     96  CA        94.0670   22.4130  137.6870 C.3   356  SER356      0.1889
     97  C         94.6740   21.2150  136.9620 C.2   356  SER356      0.2288
     98  O         94.9970   21.2890  135.7700 O.2   356  SER356     -0.2866
     99  CB        95.0540   22.9890  138.6990 C.3   356  SER356      0.2089
    100  OG        96.3060   23.2740  138.1140 O.3   356  SER356     -0.2183
    101  N         91.7620   26.7260  134.0910 N.3   362  LEU362     -0.1231
    102  CA        93.0870   27.1720  133.6660 C.3   362  LEU362      0.1693
    103  C         93.8440   27.8250  134.8080 C.2   362  LEU362      0.2592
    104  O         95.0580   27.6460  134.9310 O.2   362  LEU362     -0.2718
    105  CB        92.9970   28.1560  132.5010 C.3   362  LEU362      0.0284
    106  CG        92.5640   27.5310  131.1720 C.3   362  LEU362      0.0019
    107  CD1       92.8860   28.4710  130.0540 C.3   362  LEU362      0.0001
    108  CD2       93.3210   26.2480  130.9780 C.3   362  LEU362      0.0001
    109  N         93.1610   28.6070  135.6400 N.am  363  LYS363     -0.1966
    110  CA        93.8470   29.3260  136.7170 C.3   363  LYS363      0.1713
    111  C         92.9150   29.4360  137.9000 C.2   363  LYS363      0.2458
    112  O         92.1230   30.3790  137.9990 O.2   363  LYS363     -0.2730
    113  CB        94.3220   30.7070  136.2600 C.3   363  LYS363      0.0311
    114  CG        94.9840   31.5380  137.3890 C.3   363  LYS363      0.0038
    115  CD        96.0470   30.7150  138.1440 C.3   363  LYS363      0.0206
    116  CE        97.2180   30.3450  137.2020 C.3   363  LYS363      0.1093
    117  NZ        98.2740   29.6830  138.0450 N.3   363  LYS363     -0.1314
    118  N         92.9840   28.4860  138.8330 N.am  364  PRO364     -0.2727
    119  CA        92.2370   28.6250  140.0850 C.3   364  PRO364      0.1402
    120  C         92.8240   29.7600  140.9040 C.2   364  PRO364      0.2269
    121  O         94.0410   29.9380  140.9600 O.2   364  PRO364     -0.2865
    122  CB        92.4510   27.2750  140.7940 C.3   364  PRO364      0.0296
    123  CG        93.0210   26.3540  139.7130 C.3   364  PRO364      0.0237
    124  CD        93.7600   27.2370  138.7730 C.3   364  PRO364      0.0939
@<TRIPOS>BOND
     1    88    87    2
     2    89    90    1
     3    87    86    1
     4    86    85    1
     5    94    93    1
     6    90    93    1
     7    90    91    1
     8    91    92    2
     9    69    70    1
    10    85    80   am
    11    81    80    2
    12    80    79    1
    13    72    71    2
    14    70    71    1
    15    71    73   am
    16    83    82    1
    17   107   106    1
    18    79    82    1
    19    79    78    1
    20    76    75    2
    21    82    84    1
    22    78    75   am
    23   108   106    1
    24    75    74    1
    25    73    74    1
    26   106   105    1
    27    74    77    1
    28   105   102    1
    29    68    67    2
    30   102   101    1
    31   102   103    1
    32    67    66    1
    33   103   104    2
    34   103   109   am
    35    23    24   ar
    36    23    21   ar
    37    66    65    1
    38    24    22   ar
    39   109   110    1
    40    98    97    2
    41    62    61    2
    42    21    20   ar
    43    22    20   ar
    44   113   110    1
    45   113   114    1
    46    20    19    1
    47   110   111    1
    48    65    61   am
    49    61    60    1
    50    97    96    1
    51   116   117    1
    52   116   115    1
    53    19    16    1
    54   114   115    1
    55    96    95    1
    56    96    99    1
    57   111   112    2
    58   111   118   am
    59    39    37    1
    60   100    99    1
    61    60    59    1
    62    60    63    1
    63    30    29    1
    64    64    63    1
    65    58    56   ar
    66    16    15    1
    67    16    17    1
    68   124   118    1
    69   124   123    1
    70    15    11   am
    71   118   119    1
    72    37    36    1
    73    25    17   am
    74    25    26    1
    75    17    18    2
    76   123   122    1
    77    56    57   ar
    78    56    55    1
    79    13    10    1
    80    13    14    1
    81    29    26    1
    82    29    31    1
    83    10    11    1
    84    10     9    1
    85    11    12    2
    86     4     3    2
    87   119   122    1
    88   119   120    1
    89    26    27    1
    90    36    38    1
    91    36    33    1
    92   120   121    2
    93    55    54    1
    94     3     9   am
    95     3     2    1
    96    49    47   ar
    97    49    48   ar
    98    33    32    1
    99    33    34    1
   100    27    28    2
   101    47    45   ar
   102     8     6    1
   103    48    46   ar
   104    54    51    1
   105     1     2    1
   106     2     5    1
   107     5     6    1
   108    34    35    2
   109    43    42    2
   110     6     7    1
   111    45    46   ar
   112    45    44    1
   113    51    50    1
   114    51    52    1
   115    42    50   am
   116    42    41    1
   117    53    52    2
   118    44    41    1
   119    41    40    1
