@<TRIPOS>MOLECULE
tmp/5to2D00.pdb
 77 71 0 0 0
SMALL
GASTEIGER

@<TRIPOS>ATOM
      1  N         -3.5230  -21.5550   -1.6350 N.3    30  SER30      -0.1217
      2  CA        -3.9050  -20.6870   -0.5120 C.3    30  SER30       0.1889
      3  C         -4.7500  -21.4330    0.5130 C.2    30  SER30       0.2288
      4  O         -5.5910  -22.2410    0.1380 O.2    30  SER30      -0.2866
      5  CB        -4.6700  -19.4630   -1.0020 C.3    30  SER30       0.2089
      6  OG        -4.7000  -18.4620    0.0100 O.3    30  SER30      -0.2183
      7  N         -6.5380  -19.6610    2.8250 N.3    32  VAL32      -0.1231
      8  CA        -7.6840  -18.7660    3.0580 C.3    32  VAL32       0.1692
      9  C         -8.1720  -18.0860    1.7630 C.2    32  VAL32       0.2593
     10  O         -7.4890  -18.1290    0.7170 O.2    32  VAL32      -0.2718
     11  CB        -7.4020  -17.6910    4.1500 C.3    32  VAL32       0.0266
     12  CG1       -8.6440  -17.4530    4.9990 C.3    32  VAL32       0.0020
     13  CG2       -6.2230  -18.0710    5.0430 C.3    32  VAL32       0.0020
     14  N         -9.3550  -17.4670    1.8410 N.am   33  GLY33      -0.1942
     15  CA        -9.9450  -16.7430    0.7090 C.3    33  GLY33       0.2014
     16  C        -10.7880  -17.6210   -0.2070 C.2    33  GLY33       0.2639
     17  O        -10.9830  -18.8110    0.0610 O.2    33  GLY33      -0.2714
     18  N        -11.2940  -17.0230   -1.2870 N.am   34  ASN34      -0.1958
     19  CA       -12.0970  -17.7340   -2.2790 C.3    34  ASN34       0.1819
     20  C        -11.1510  -18.4720   -3.2180 C.2    34  ASN34       0.2621
     21  O        -10.9090  -18.0630   -4.3530 O.2    34  ASN34      -0.2715
     22  CB       -13.0170  -16.7660   -3.0410 C.3    34  ASN34       0.1195
     23  CG       -13.9580  -17.4800   -4.0000 C.2    34  ASN34       0.2630
     24  OD1      -14.1230  -18.7020   -3.9380 O.2    34  ASN34      -0.2716
     25  ND2      -14.5890  -16.7140   -4.8930 N.am   34  ASN34      -0.0877
     26  N        -10.5920  -19.5350   -2.7040 N.am   35  ALA35      -0.1977
     27  CA        -9.6290  -20.2880   -3.4410 C.3    35  ALA35       0.1597
     28  C         -9.6900  -21.7380   -3.1020 C.2    35  ALA35       0.2287
     29  O        -10.0470  -22.0850   -2.0220 O.2    35  ALA35      -0.2864
     30  CB        -8.2440  -19.7830   -3.1120 C.3    35  ALA35       0.0319
     31  N         -6.6260  -15.6870   -9.6510 N.3    64  TRP64      -0.1241
     32  CA        -7.3570  -16.6750   -8.8410 C.3    64  TRP64       0.1605
     33  C         -8.3810  -17.4080   -9.6330 C.2    64  TRP64       0.2264
     34  O         -9.5340  -17.5520   -9.2160 O.2    64  TRP64      -0.2867
     35  CB        -7.9290  -16.0250   -7.5920 C.3    64  TRP64       0.0550
     36  CG        -6.8200  -15.4970   -6.7090 C.ar   64  TRP64       0.0003
     37  CD1       -6.4510  -14.1760   -6.5070 C.ar   64  TRP64       0.0946
     38  CD2       -5.8710  -16.2890   -5.9060 C.ar   64  TRP64       0.0152
     39  NE1       -5.3880  -14.0910   -5.6430 N.ar   64  TRP64      -0.2442
     40  CE2       -4.9780  -15.3190   -5.2600 C.ar   64  TRP64       0.0810
     41  CE3       -5.6740  -17.6490   -5.6790 C.ar   64  TRP64       0.0012
     42  CZ2       -3.9520  -15.7150   -4.4020 C.ar   64  TRP64       0.0191
     43  CZ3       -4.6350  -18.0400   -4.8150 C.ar   64  TRP64       0.0001
     44  CH2       -3.8040  -17.0950   -4.1810 C.ar   64  TRP64       0.0015
     45  N        -12.3640  -16.6020   -8.7770 N.3    71  ALA71      -0.1245
     46  CA       -12.6280  -15.5120   -7.8370 C.3    71  ALA71       0.1562
     47  C        -12.5660  -14.1060   -8.4720 C.2    71  ALA71       0.2260
     48  O        -12.7730  -13.1240   -7.7770 O.2    71  ALA71      -0.2867
     49  CB       -11.6440  -15.5770   -6.6740 C.3    71  ALA71       0.0290
     50  N        -10.1540  -12.1970   -9.5150 N.3    73  SER73      -0.1217
     51  CA        -9.2300  -11.3940   -8.7190 C.3    73  SER73       0.1889
     52  C         -7.7920  -11.8490   -8.9540 C.2    73  SER73       0.2288
     53  O         -7.5800  -12.9270   -9.5140 O.2    73  SER73      -0.2866
     54  CB        -9.6160  -11.4790   -7.2390 C.3    73  SER73       0.2089
     55  OG        -9.4000  -12.7820   -6.7340 O.3    73  SER73      -0.2183
     56  N         -4.0060   -7.3890   -3.5250 N.3    95  LEU95      -0.1245
     57  CA        -5.0090   -8.2800   -4.0760 C.3    95  LEU95       0.1561
     58  C         -6.1310   -7.4370   -4.6890 C.2    95  LEU95       0.2260
     59  O         -6.8640   -6.7640   -3.9720 O.2    95  LEU95      -0.2867
     60  CB        -5.5530   -9.1710   -2.9550 C.3    95  LEU95       0.0270
     61  CG        -6.9060   -9.8740   -3.1620 C.3    95  LEU95       0.0019
     62  CD1       -6.9740  -10.6750   -4.4430 C.3    95  LEU95       0.0001
     63  CD2       -7.1950  -10.7240   -1.9330 C.3    95  LEU95       0.0001
     64  N         -9.5240   -7.1020   -6.8830 N.3    97  SER97      -0.1217
     65  CA       -10.7090   -7.7630   -7.3870 C.3    97  SER97       0.1889
     66  C        -11.2330   -7.0090   -8.5970 C.2    97  SER97       0.2288
     67  O        -11.1980   -5.7650   -8.6210 O.2    97  SER97      -0.2866
     68  CB       -11.7740   -7.7940   -6.2830 C.3    97  SER97       0.2089
     69  OG       -11.4010   -8.7120   -5.2640 O.3    97  SER97      -0.2183
     70  N         -6.9710   -4.8910   -1.7870 N.3   109  LEU109     -0.1245
     71  CA        -6.5220   -5.1590   -0.4410 C.3   109  LEU109      0.1561
     72  C         -5.0020   -5.1700   -0.3990 C.2   109  LEU109      0.2260
     73  O         -4.3440   -5.5490   -1.3820 O.2   109  LEU109     -0.2867
     74  CB        -7.0260   -6.5300    0.0360 C.3   109  LEU109      0.0270
     75  CG        -8.5350   -6.6060    0.2410 C.3   109  LEU109      0.0019
     76  CD1       -8.9970   -8.0510    0.3250 C.3   109  LEU109      0.0001
     77  CD2       -8.9490   -5.8910    1.5230 C.3   109  LEU109      0.0001
@<TRIPOS>BOND
     1    31    32    1
     2    33    34    2
     3    33    32    1
     4    50    51    1
     5    53    52    2
     6    52    51    1
     7    32    35    1
     8    45    46    1
     9    51    54    1
    10    67    66    2
    11    66    65    1
    12    47    46    1
    13    47    48    2
    14    46    49    1
    15    35    36    1
    16    65    64    1
    17    65    68    1
    18    54    55    1
    19    36    37   ar
    20    36    38   ar
    21    37    39   ar
    22    68    69    1
    23    38    41   ar
    24    38    40   ar
    25    41    43   ar
    26    39    40   ar
    27    40    42   ar
    28    25    23   am
    29    43    44   ar
    30    58    57    1
    31    58    59    2
    32    62    61    1
    33    42    44   ar
    34    21    20    2
    35    57    56    1
    36    57    60    1
    37    23    24    2
    38    23    22    1
    39    27    30    1
    40    27    28    1
    41    27    26    1
    42    20    26   am
    43    20    19    1
    44    61    60    1
    45    61    63    1
    46    28    29    2
    47    22    19    1
    48    19    18    1
    49    70    71    1
    50     1     2    1
    51    73    72    2
    52    18    16   am
    53     5     2    1
    54     5     6    1
    55     2     3    1
    56    71    72    1
    57    71    74    1
    58    16    17    2
    59    16    15    1
    60    74    75    1
    61     4     3    2
    62    75    76    1
    63    75    77    1
    64    15    14    1
    65    10     9    2
    66     9    14   am
    67     9     8    1
    68     7     8    1
    69     8    11    1
    70    11    12    1
    71    11    13    1
