@<TRIPOS>MOLECULE
tmp/5to3B00.pdb
 209 209 0 0 0
SMALL
GASTEIGER

@<TRIPOS>ATOM
      1  N        -23.6760   13.9080   -8.0860 N.3    28  CYS28      -0.1235
      2  CA       -23.8470   15.3340   -7.8340 C.3    28  CYS28       0.1677
      3  C        -24.6130   16.0150   -8.9630 C.2    28  CYS28       0.2270
      4  O        -24.8730   15.4210  -10.0240 O.2    28  CYS28      -0.2867
      5  CB       -22.4760   15.9980   -7.7110 C.3    28  CYS28       0.0956
      6  SG       -21.9840   16.1950   -5.9890 S.3    28  CYS28      -0.0801
      7  N        -16.1970   19.5790   -3.8550 N.3    43  HIS43      -0.1226
      8  CA       -16.3460   18.5000   -2.8580 C.3    43  HIS43       0.1752
      9  C        -17.0700   17.2690   -3.4110 C.2    43  HIS43       0.2596
     10  O        -16.9240   16.1580   -2.8700 O.2    43  HIS43      -0.2718
     11  CB       -17.0280   19.0130   -1.5750 C.3    43  HIS43       0.0759
     12  CG       -18.5220   19.0390   -1.6450 C.ar   43  HIS43       0.0818
     13  ND1      -19.2400   20.2000   -1.8380 N.ar   43  HIS43      -0.2268
     14  CD2      -19.4340   18.0440   -1.5340 C.ar   43  HIS43       0.1154
     15  CE1      -20.5280   19.9210   -1.8530 C.ar   43  HIS43       0.1986
     16  NE2      -20.6750   18.6150   -1.6690 N.ar   43  HIS43      -0.2212
     17  N        -17.8720   17.4880   -4.4550 N.am   44  CYS44      -0.1970
     18  CA       -18.3910   16.4090   -5.2920 C.3    44  CYS44       0.1712
     19  C        -17.2840   15.5100   -5.8230 C.2    44  CYS44       0.2296
     20  O        -17.3920   14.2800   -5.7980 O.2    44  CYS44      -0.2864
     21  CB       -19.1340   16.9990   -6.4810 C.3    44  CYS44       0.0983
     22  SG       -20.6770   17.7880   -5.9850 S.3    44  CYS44      -0.0798
     23  N        -13.2020   15.2260   -1.5900 N.3    47  TYR47      -0.1241
     24  CA       -13.5110   15.4960   -0.2040 C.3    47  TYR47       0.1605
     25  C        -12.9600   14.3170    0.6410 C.2    47  TYR47       0.2264
     26  O        -13.6540   13.3750    0.9430 O.2    47  TYR47      -0.2867
     27  CB       -15.0090   15.7480   -0.0150 C.3    47  TYR47       0.0534
     28  CG       -15.3180   16.2180    1.4010 C.ar   47  TYR47      -0.0201
     29  CD1      -14.7920   17.4250    1.8850 C.ar   47  TYR47      -0.0009
     30  CD2      -16.0770   15.4450    2.2790 C.ar   47  TYR47      -0.0009
     31  CE1      -15.0230   17.8480    3.1870 C.ar   47  TYR47       0.0417
     32  CE2      -16.3160   15.8710    3.5800 C.ar   47  TYR47       0.0417
     33  CZ       -15.7890   17.0850    4.0310 C.ar   47  TYR47       0.1957
     34  OH       -16.0170   17.5360    5.3200 O.3    47  TYR47      -0.2866
     35  N        -14.6770   11.9560    3.2370 N.3    50  TRP50      -0.1241
     36  CA       -15.5220   10.8750    2.7790 C.3    50  TRP50       0.1605
     37  C        -14.8230    9.9570    1.7740 C.2    50  TRP50       0.2264
     38  O        -15.4880    9.3320    0.9530 O.2    50  TRP50      -0.2867
     39  CB       -16.7700   11.4500    2.1400 C.3    50  TRP50       0.0550
     40  CG       -17.6480   12.2170    3.0310 C.ar   50  TRP50       0.0003
     41  CD1      -17.6750   12.2100    4.3910 C.ar   50  TRP50       0.0946
     42  CD2      -18.6990   13.0750    2.6060 C.ar   50  TRP50       0.0152
     43  NE1      -18.6680   13.0450    4.8390 N.ar   50  TRP50      -0.2442
     44  CE2      -19.3120   13.5880    3.7640 C.ar   50  TRP50       0.0810
     45  CE3      -19.1890   13.4580    1.3410 C.ar   50  TRP50       0.0012
     46  CZ2      -20.3840   14.4690    3.7150 C.ar   50  TRP50       0.0191
     47  CZ3      -20.2660   14.3620    1.2740 C.ar   50  TRP50       0.0001
     48  CH2      -20.8550   14.8450    2.4670 C.ar   50  TRP50       0.0015
     49  N        -11.2270   22.6500    1.9690 N.3    92  TRP92      -0.1241
     50  CA       -12.1120   21.5910    2.4840 C.3    92  TRP92       0.1605
     51  C        -11.9170   21.2900    3.9750 C.2    92  TRP92       0.2264
     52  O        -12.8620   20.8770    4.6300 O.2    92  TRP92      -0.2867
     53  CB       -12.0160   20.3150    1.6630 C.3    92  TRP92       0.0550
     54  CG       -10.7000   19.6850    1.6450 C.ar   92  TRP92       0.0003
     55  CD1       -9.7370   19.8350    0.6970 C.ar   92  TRP92       0.0946
     56  CD2      -10.1880   18.7570    2.6030 C.ar   92  TRP92       0.0152
     57  NE1       -8.6320   19.0790    1.0210 N.ar   92  TRP92      -0.2442
     58  CE2       -8.8910   18.3890    2.1720 C.ar   92  TRP92       0.0810
     59  CE3      -10.6980   18.1990    3.7830 C.ar   92  TRP92       0.0012
     60  CZ2       -8.0970   17.5090    2.8820 C.ar   92  TRP92       0.0191
     61  CZ3       -9.9130   17.3300    4.4890 C.ar   92  TRP92       0.0001
     62  CH2       -8.6210   16.9880    4.0380 C.ar   92  TRP92       0.0015
     63  N        -11.8410   23.3060    6.4440 N.3    94  GLU94      -0.1182
     64  CA       -12.5210   24.2780    7.3070 C.3    94  GLU94       0.1915
     65  C        -13.9180   24.6480    6.8210 C.2    94  GLU94       0.2634
     66  O        -14.8990   24.4810    7.5210 O.2    94  GLU94      -0.2714
     67  CB       -11.6560   25.5580    7.4060 C.2    94  GLU94       0.0085
     68  CG       -12.0170   26.5140    8.5570 C.2    94  GLU94       0.0835
     69  CD       -11.3590   27.9200    8.5100 C.2    94  GLU94       0.3877
     70  OE1      -12.0380   28.8860    8.9610 O.co2  94  GLU94      -0.2406
     71  OE2      -10.1730   28.0690    8.0670 O.co2  94  GLU94      -0.2406
     72  N        -13.9830   25.1280    5.5970 N.am   95  ASN95      -0.1958
     73  CA       -15.0360   25.9990    5.0990 C.3    95  ASN95       0.1819
     74  C        -15.8200   25.5620    3.8990 C.2    95  ASN95       0.2621
     75  O        -16.9170   26.0680    3.6610 O.2    95  ASN95      -0.2715
     76  CB       -14.3310   27.2500    4.5680 C.3    95  ASN95       0.1195
     77  CG       -14.3270   28.3460    5.5240 C.2    95  ASN95       0.2630
     78  OD1      -13.9070   29.4310    5.1860 O.2    95  ASN95      -0.2716
     79  ND2      -14.8300   28.1070    6.7180 N.am   95  ASN95      -0.0877
     80  N        -15.2050   24.7210    3.0740 N.am   96  LEU96      -0.1977
     81  CA       -15.5910   24.6150    1.6880 C.3    96  LEU96       0.1596
     82  C        -15.4270   25.9910    0.9690 C.2    96  LEU96       0.2287
     83  O        -16.1860   26.3240    0.0550 O.2    96  LEU96      -0.2864
     84  CB       -17.0150   24.0520    1.5990 C.3    96  LEU96       0.0297
     85  CG       -17.2120   22.5460    1.4410 C.3    96  LEU96       0.0022
     86  CD1      -16.1540   21.6960    2.1180 C.3    96  LEU96       0.0001
     87  CD2      -18.6050   22.1940    1.9180 C.3    96  LEU96       0.0001
     88  N        -19.4770   28.2970   11.5060 N.3   173  ILE173     -0.1245
     89  CA       -18.4420   28.2050   10.4950 C.3   173  ILE173      0.1561
     90  C        -18.1730   29.6090    9.9490 C.2   173  ILE173      0.2260
     91  O        -19.0960   30.3930    9.7390 O.2   173  ILE173     -0.2867
     92  CB       -18.8380   27.2530    9.3400 C.3   173  ILE173      0.0252
     93  CG1      -19.2030   25.8670    9.8730 C.3   173  ILE173      0.0019
     94  CG2      -17.6880   27.1080    8.3570 C.3   173  ILE173      0.0019
     95  CD1      -19.9790   25.0430    8.8820 C.3   173  ILE173      0.0001
     96  N        -35.2200   24.1080    0.7860 N.3   193  ASP193     -0.1225
     97  CA       -33.7720   24.0350    0.8590 C.3   193  ASP193      0.1805
     98  C        -33.2480   23.0720   -0.1760 C.2   193  ASP193      0.2598
     99  O        -33.9720   22.1980   -0.6400 O.2   193  ASP193     -0.2718
    100  CB       -33.3070   23.5650    2.2620 C.3   193  ASP193      0.1424
    101  CG       -31.8350   23.9470    2.5820 C.2   193  ASP193      0.3668
    102  OD1      -31.1350   24.6020    1.7590 O.co2 193  ASP193     -0.2456
    103  OD2      -31.3440   23.5670    3.6800 O.co2 193  ASP193     -0.2456
    104  N        -31.9770   23.2400   -0.5190 N.am  194  ALA194     -0.1966
    105  CA       -31.1460   22.1600   -1.0950 C.3   194  ALA194      0.1728
    106  C        -30.8450   21.0760   -0.0470 C.2   194  ALA194      0.2616
    107  O        -30.8810   21.3170    1.1750 O.2   194  ALA194     -0.2715
    108  CB       -29.8380   22.7260   -1.6200 C.3   194  ALA194      0.0334
    109  N        -30.5380   19.8810   -0.5200 N.am  195  CYS195     -0.1954
    110  CA       -30.2270   18.8050    0.3840 C.3   195  CYS195      0.1843
    111  C        -29.0780   17.9740   -0.1720 C.2   195  CYS195      0.2625
    112  O        -28.4940   18.3220   -1.2020 O.2   195  CYS195     -0.2714
    113  CB       -31.4930   18.0020    0.6410 C.3   195  CYS195      0.0997
    114  SG       -31.4710   17.0200    2.1610 S.3   195  CYS195     -0.0797
    115  N        -28.7180   16.9020    0.5240 N.am  196  GLU196     -0.1963
    116  CA       -27.5570   16.1270    0.1280 C.3   196  GLU196      0.1733
    117  C        -27.8500   15.5150   -1.2340 C.2   196  GLU196      0.2616
    118  O        -28.9370   14.9940   -1.4690 O.2   196  GLU196     -0.2715
    119  CB       -27.1930   15.0690    1.1810 C.3   196  GLU196      0.0429
    120  CG       -25.6970   14.9770    1.4650 C.3   196  GLU196      0.1163
    121  CD       -24.9360   14.1870    0.4040 C.2   196  GLU196      0.3649
    122  OE1      -25.1270   12.9420    0.3770 O.co2 196  GLU196     -0.2457
    123  OE2      -24.1470   14.7980   -0.3810 O.co2 196  GLU196     -0.2457
    124  N        -26.8840   15.6420   -2.1370 N.am  197  GLY197     -0.1955
    125  CA       -27.0060   15.1700   -3.5010 C.3   197  GLY197      0.1869
    126  C        -27.3310   16.2460   -4.5010 C.2   197  GLY197      0.2309
    127  O        -27.2660   15.9980   -5.6960 O.2   197  GLY197     -0.2863
    128  N        -25.5250   19.0490   -4.4160 N.3   199  SER199     -0.1217
    129  CA       -24.2770   19.8020   -4.5820 C.3   199  SER199      0.1889
    130  C        -23.8170   19.9130   -6.0220 C.2   199  SER199      0.2288
    131  O        -23.9470   18.9720   -6.7810 O.2   199  SER199     -0.2866
    132  CB       -23.1690   19.1360   -3.8230 C.3   199  SER199      0.2089
    133  OG       -23.4430   19.1870   -2.4560 O.3   199  SER199     -0.2183
    134  N        -24.7220   24.9500   -5.3510 N.3   219  VAL219     -0.1231
    135  CA       -25.0880   24.3250   -4.0760 C.3   219  VAL219      0.1692
    136  C        -23.8370   23.7530   -3.4500 C.2   219  VAL219      0.2593
    137  O        -23.0980   23.0220   -4.0900 O.2   219  VAL219     -0.2718
    138  CB       -26.0980   23.1940   -4.2110 C.3   219  VAL219      0.0266
    139  CG1      -26.3590   22.5490   -2.8520 C.3   219  VAL219      0.0020
    140  CG2      -27.4020   23.6930   -4.8130 C.3   219  VAL219      0.0020
    141  N        -23.6000   24.1190   -2.2010 N.am  220  SER220     -0.1938
    142  CA       -22.3170   23.9020   -1.5800 C.3   220  SER220      0.2055
    143  C        -22.4880   23.1990   -0.2640 C.2   220  SER220      0.2643
    144  O        -22.0370   22.0730   -0.1350 O.2   220  SER220     -0.2714
    145  CB       -21.5580   25.2220   -1.3950 C.3   220  SER220      0.2130
    146  OG       -20.2450   24.9490   -0.9320 O.3   220  SER220     -0.2179
    147  N        -23.1500   23.8490    0.7020 N.am  221  ALA221     -0.1963
    148  CA       -23.2290   23.3420    2.0760 C.3   221  ALA221      0.1728
    149  C        -24.4830   23.7770    2.8450 C.2   221  ALA221      0.2617
    150  O        -25.3130   24.5350    2.3580 O.2   221  ALA221     -0.2715
    151  CB       -21.9790   23.7440    2.8210 C.3   221  ALA221      0.0334
    152  N        -24.6320   23.2160    4.0360 N.am  222  GLY222     -0.1940
    153  CA       -25.7020   23.5710    4.9820 C.3   222  GLY222      0.2014
    154  C        -25.6460   22.6280    6.1760 C.2   222  GLY222      0.2639
    155  O        -24.7890   21.7440    6.2330 O.2   222  GLY222     -0.2714
    156  N        -26.5450   22.8090    7.1310 N.am  223  ALA223     -0.1963
    157  CA       -26.6300   21.9190    8.3060 C.3   223  ALA223      0.1728
    158  C        -27.9790   21.2330    8.2390 C.2   223  ALA223      0.2617
    159  O        -29.0150   21.9040    8.2690 O.2   223  ALA223     -0.2715
    160  CB       -26.4770   22.7100    9.6070 C.3   223  ALA223      0.0334
    161  N        -27.9720   19.9100    8.1010 N.am  224  GLY224     -0.1940
    162  CA       -29.1920   19.1790    7.7910 C.3   224  GLY224      0.2014
    163  C        -29.7800   19.7150    6.5030 C.2   224  GLY224      0.2639
    164  O        -29.0470   20.1520    5.6320 O.2   224  GLY224     -0.2714
    165  N        -31.1000   19.6750    6.3920 N.am  225  CYS225     -0.1967
    166  CA       -31.8240   20.2670    5.2720 C.3   225  CYS225      0.1712
    167  C        -33.1010   20.8540    5.8150 C.2   225  CYS225      0.2296
    168  O        -33.7940   20.1960    6.5770 O.2   225  CYS225     -0.2864
    169  CB       -32.1930   19.2160    4.2380 C.3   225  CYS225      0.0983
    170  SG       -30.7810   18.2480    3.6900 S.3   225  CYS225     -0.0798
    171  N        -29.7810   27.9260    6.9160 N.3   231  TYR231     -0.1227
    172  CA       -29.7850   28.4460    5.5730 C.3   231  TYR231      0.1736
    173  C        -28.7740   27.6680    4.7320 C.2   231  TYR231      0.2596
    174  O        -27.6640   27.4050    5.1910 O.2   231  TYR231     -0.2718
    175  CB       -29.4270   29.9530    5.6180 C.3   231  TYR231      0.0548
    176  CG       -30.4000   30.7730    6.4560 C.ar  231  TYR231     -0.0200
    177  CD1      -31.6510   31.1520    5.9490 C.ar  231  TYR231     -0.0009
    178  CD2      -30.0950   31.1140    7.7710 C.ar  231  TYR231     -0.0009
    179  CE1      -32.5500   31.8490    6.7270 C.ar  231  TYR231      0.0417
    180  CE2      -30.9870   31.8200    8.5560 C.ar  231  TYR231      0.0417
    181  CZ       -32.2140   32.1790    8.0360 C.ar  231  TYR231      0.1957
    182  OH       -33.1030   32.8780    8.8240 O.3   231  TYR231     -0.2866
    183  N        -29.1460   27.3030    3.5130 N.am  232  GLY232     -0.1942
    184  CA       -28.2080   26.7130    2.5820 C.3   232  GLY232      0.2014
    185  C        -27.1900   27.7120    2.0750 C.2   232  GLY232      0.2639
    186  O        -27.5120   28.8850    1.9160 O.2   232  GLY232     -0.2714
    187  N        -25.9660   27.2300    1.8320 N.am  233  PHE233     -0.1959
    188  CA       -24.8250   28.0410    1.4120 C.3   233  PHE233      0.1771
    189  C        -24.4290   27.6890   -0.0080 C.2   233  PHE233      0.2619
    190  O        -24.4930   26.4930   -0.4160 O.2   233  PHE233     -0.2715
    191  CB       -23.6430   27.8040    2.3300 C.3   233  PHE233      0.0574
    192  CG       -23.7820   28.4800    3.6500 C.ar  233  PHE233     -0.0200
    193  CD1      -24.5510   27.9110    4.6590 C.ar  233  PHE233     -0.0042
    194  CD2      -23.1780   29.7130    3.8810 C.ar  233  PHE233     -0.0042
    195  CE1      -24.7010   28.5510    5.8860 C.ar  233  PHE233     -0.0003
    196  CE2      -23.3230   30.3600    5.0970 C.ar  233  PHE233     -0.0003
    197  CZ       -24.0830   29.7730    6.1050 C.ar  233  PHE233     -0.0000
    198  N        -24.0310   28.7260   -0.7610 N.am  234  TYR234     -0.1974
    199  CA       -23.7320   28.5830   -2.1960 C.3   234  TYR234      0.1639
    200  C        -22.3990   29.2170   -2.4940 C.2   234  TYR234      0.2290
    201  O        -22.0300   30.2080   -1.8600 O.2   234  TYR234     -0.2864
    202  CB       -24.8410   29.2090   -3.0450 C.3   234  TYR234      0.0560
    203  CG       -26.1880   28.5920   -2.7610 C.ar  234  TYR234     -0.0198
    204  CD1      -26.8940   28.9080   -1.5940 C.ar  234  TYR234     -0.0009
    205  CD2      -26.7420   27.6760   -3.6170 C.ar  234  TYR234     -0.0009
    206  CE1      -28.1210   28.3180   -1.3020 C.ar  234  TYR234      0.0417
    207  CE2      -27.9860   27.1010   -3.3530 C.ar  234  TYR234      0.0417
    208  CZ       -28.6640   27.4150   -2.1850 C.ar  234  TYR234      0.1957
    209  OH       -29.8810   26.8240   -1.9090 O.3   234  TYR234     -0.2866
@<TRIPOS>BOND
     1     4     3    2
     2     3     2    1
     3     1     2    1
     4     2     5    1
     5     5     6    1
     6   131   130    2
     7    21    22    1
     8    21    18    1
     9   130   129    1
    10     6    22    1
    11    19    20    2
    12    19    18    1
    13   127   126    2
    14   134   135    1
    15    18    17    1
    16   140   138    1
    17   129   128    1
    18   129   132    1
    19   126   125    1
    20    17     9   am
    21   138   135    1
    22   138   139    1
    23   137   136    2
    24   135   136    1
    25     7     8    1
    26   132   133    1
    27   205   207   ar
    28   205   203   ar
    29   125   124    1
    30   136   141   am
    31     9    10    2
    32     9     8    1
    33   207   208   ar
    34   202   203    1
    35   202   199    1
    36     8    11    1
    37   203   204   ar
    38   200   199    1
    39   200   201    2
    40   141   142    1
    41   199   198    1
    42   208   209    1
    43   208   206   ar
    44   124   117   am
    45    15    13   ar
    46    15    16   ar
    47    13    12   ar
    48    16    14   ar
    49    12    11    1
    50    12    14   ar
    51   108   105    1
    52   204   206   ar
    53    23    24    1
    54   142   145    1
    55   142   143    1
    56   118   117    2
    57   145   146    1
    58   117   116    1
    59   112   111    2
    60   105   104    1
    61   105   106    1
    62   198   189   am
    63    99    98    2
    64   109   106   am
    65   109   110    1
    66   104    98   am
    67   190   189    2
    68   123   121   ar
    69   143   144    2
    70   143   147   am
    71    24    27    1
    72    24    25    1
    73    98    97    1
    74   111   110    1
    75   111   115   am
    76   106   107    2
    77    27    28    1
    78   189   188    1
    79    83    82    2
    80   116   115    1
    81   116   119    1
    82   122   121   ar
    83   110   113    1
    84   121   120    1
    85   113   114    1
    86    25    26    2
    87    55    57   ar
    88    55    54   ar
    89   147   148    1
    90    96    97    1
    91    97   100    1
    92    38    37    2
    93    82    81    1
    94    57    58   ar
    95   119   120    1
    96    47    45   ar
    97    47    48   ar
    98    45    42   ar
    99    28    29   ar
   100    28    30   ar
   101   188   187    1
   102   188   191    1
   103    85    84    1
   104    85    87    1
   105    85    86    1
   106    84    81    1
   107    54    53    1
   108    54    56   ar
   109    53    50    1
   110    81    80    1
   111   102   101   ar
   112    37    36    1
   113   187   185   am
   114    29    31   ar
   115   186   185    2
   116    49    50    1
   117   185   184    1
   118   148   151    1
   119   148   149    1
   120    39    36    1
   121    39    40    1
   122   114   170    1
   123    58    56   ar
   124    58    60   ar
   125   100   101    1
   126    30    32   ar
   127   191   192    1
   128   150   149    2
   129    48    46   ar
   130    50    51    1
   131   101   103   ar
   132   184   183    1
   133    56    59   ar
   134    42    40   ar
   135    42    44   ar
   136    36    35    1
   137   149   152   am
   138    60    62   ar
   139    40    41   ar
   140    80    74   am
   141    31    33   ar
   142   183   173   am
   143    32    33   ar
   144   192   194   ar
   145   192   193   ar
   146    75    74    2
   147   170   169    1
   148    46    44   ar
   149    44    43   ar
   150    59    61   ar
   151   194   196   ar
   152    74    73    1
   153    51    52    2
   154    33    34    1
   155   152   153    1
   156    62    61   ar
   157   169   166    1
   158    41    43   ar
   159    76    73    1
   160    76    77    1
   161   193   195   ar
   162   173   174    2
   163   173   172    1
   164   153   154    1
   165   196   197   ar
   166    73    72    1
   167    78    77    2
   168   166   167    1
   169   166   165    1
   170    77    79   am
   171   172   175    1
   172   172   171    1
   173    72    65   am
   174   175   176    1
   175   164   163    2
   176   167   168    2
   177   195   197   ar
   178   177   176   ar
   179   177   179   ar
   180   154   155    2
   181   154   156   am
   182   165   163   am
   183    63    64    1
   184   176   178   ar
   185   163   162    1
   186   179   181   ar
   187    65    64    1
   188    65    66    2
   189   156   157    1
   190    64    67    1
   191    67    68    2
   192   178   180   ar
   193   162   161    1
   194   181   180   ar
   195   181   182    1
   196    71    69   ar
   197   161   158   am
   198   158   159    2
   199   158   157    1
   200   157   160    1
   201    94    92    1
   202    69    68    1
   203    69    70   ar
   204    95    93    1
   205    92    93    1
   206    92    89    1
   207    91    90    2
   208    90    89    1
   209    89    88    1
