@<TRIPOS>MOLECULE
tmp/5to8A00.pdb
 170 163 0 0 0
SMALL
GASTEIGER

@<TRIPOS>ATOM
      1  N         -0.6270  -18.6000   39.3090 N.3    12  LEU12      -0.1231
      2  CA        -1.1990  -17.2550   39.3840 C.3    12  LEU12       0.1693
      3  C         -2.1120  -17.0580   38.1760 C.2    12  LEU12       0.2593
      4  O         -3.2530  -16.6390   38.3150 O.2    12  LEU12      -0.2718
      5  CB        -0.0880  -16.2020   39.4080 C.3    12  LEU12       0.0284
      6  CG        -0.4980  -14.7490   39.6410 C.3    12  LEU12       0.0019
      7  CD1       -1.4260  -14.6110   40.8430 C.3    12  LEU12       0.0001
      8  CD2        0.7600  -13.8970   39.8390 C.3    12  LEU12       0.0001
      9  N         -1.6020  -17.3690   36.9880 N.am   13  GLY13      -0.1942
     10  CA        -2.3930  -17.2840   35.7770 C.3    13  GLY13       0.2014
     11  C         -1.5970  -17.4920   34.5020 C.2    13  GLY13       0.2639
     12  O         -0.3930  -17.7550   34.5380 O.2    13  GLY13      -0.2714
     13  N         -2.2670  -17.3660   33.3630 N.am   14  GLU14      -0.1963
     14  CA        -1.5810  -17.5260   32.0840 C.3    14  GLU14       0.1733
     15  C         -1.0850  -16.1760   31.5860 C.2    14  GLU14       0.2616
     16  O         -1.8820  -15.3030   31.2460 O.2    14  GLU14      -0.2715
     17  CB        -2.4960  -18.1670   31.0350 C.3    14  GLU14       0.0429
     18  CG        -1.8060  -18.4640   29.7090 C.3    14  GLU14       0.1163
     19  CD        -2.7150  -19.1750   28.7180 C.2    14  GLU14       0.3649
     20  OE1       -3.3360  -18.4830   27.8800 O.co2  14  GLU14      -0.2457
     21  OE2       -2.8020  -20.4230   28.7730 O.co2  14  GLU14      -0.2457
     22  N          0.2340  -15.9990   31.5660 N.am   15  GLY15      -0.1955
     23  CA         0.8250  -14.7900   31.0270 C.3    15  GLY15       0.1869
     24  C          0.8440  -14.8740   29.5130 C.2    15  GLY15       0.2309
     25  O          0.3020  -15.8140   28.9210 O.2    15  GLY15      -0.2863
     26  N          2.3140  -18.1110   34.7670 N.3    20  VAL20      -0.1245
     27  CA         2.8880  -17.3260   35.8430 C.3    20  VAL20       0.1561
     28  C          2.4770  -17.9870   37.1670 C.2    20  VAL20       0.2260
     29  O          1.3130  -18.3250   37.3520 O.2    20  VAL20      -0.2867
     30  CB         2.3260  -15.8900   35.8280 C.3    20  VAL20       0.0252
     31  CG1        2.9550  -15.0600   36.9460 C.3    20  VAL20       0.0019
     32  CG2        2.5520  -15.2160   34.4540 C.3    20  VAL20       0.0019
     33  N          2.7720  -18.2250   41.6220 N.3    22  GLU22      -0.1245
     34  CA         3.0370  -17.5450   42.8780 C.3    22  GLU22       0.1567
     35  C          4.0460  -18.4160   43.5800 C.2    22  GLU22       0.2260
     36  O          3.9200  -19.6530   43.5890 O.2    22  GLU22      -0.2867
     37  CB         1.7900  -17.4370   43.7540 C.3    22  GLU22       0.0388
     38  CG         0.8330  -16.3240   43.3910 C.3    22  GLU22       0.1160
     39  CD        -0.3020  -16.1870   44.3950 C.2    22  GLU22       0.3649
     40  OE1       -0.4890  -17.1080   45.2270 O.co2  22  GLU22      -0.2457
     41  OE2       -1.0060  -15.1550   44.3560 O.co2  22  GLU22      -0.2457
     42  N          6.1890  -13.3850   41.9950 N.3    36  ALA36      -0.1245
     43  CA         5.4770  -13.8880   40.8330 C.3    36  ALA36       0.1562
     44  C          6.5200  -14.3370   39.8330 C.2    36  ALA36       0.2260
     45  O          7.4270  -13.5750   39.4580 O.2    36  ALA36      -0.2867
     46  CB         4.5700  -12.8320   40.2360 C.3    36  ALA36       0.0290
     47  N          7.4010  -15.6510   36.2150 N.3    38  LYS38      -0.1245
     48  CA         6.9860  -15.7160   34.8230 C.3    38  LYS38       0.1561
     49  C          7.8320  -16.7590   34.1150 C.2    38  LYS38       0.2260
     50  O          9.0580  -16.7610   34.2410 O.2    38  LYS38      -0.2867
     51  CB         7.1630  -14.3560   34.1300 C.3    38  LYS38       0.0271
     52  CG         6.4780  -13.1940   34.8250 C.3    38  LYS38       0.0035
     53  CD         6.7190  -11.8960   34.0660 C.3    38  LYS38       0.0206
     54  CE         5.8570  -11.8000   32.8190 C.3    38  LYS38       0.1093
     55  NZ         4.5920  -11.0730   33.0940 N.3    38  LYS38      -0.1314
     56  N          6.0560   -2.1910   38.6190 N.3    66  VAL66      -0.1245
     57  CA         6.3300   -3.4850   39.2540 C.3    66  VAL66       0.1561
     58  C          7.8290   -3.7880   39.2500 C.2    66  VAL66       0.2260
     59  O          8.5390   -3.5140   38.2790 O.2    66  VAL66      -0.2867
     60  CB         5.5780   -4.6560   38.5830 C.3    66  VAL66       0.0252
     61  CG1        4.0810   -4.5360   38.8020 C.3    66  VAL66       0.0019
     62  CG2        5.9110   -4.7280   37.0920 C.3    66  VAL66       0.0019
     63  N          9.4690  -11.7090   39.6050 N.3    79  MET79      -0.1230
     64  CA         8.9290  -10.3920   39.9060 C.3    79  MET79       0.1702
     65  C          8.4770  -10.3480   41.3550 C.2    79  MET79       0.2592
     66  O          8.1320  -11.3760   41.9470 O.2    79  MET79      -0.2718
     67  CB         7.7490  -10.0830   38.9800 C.3    79  MET79       0.0401
     68  CG         8.0750  -10.2420   37.5000 C.3    79  MET79       0.0596
     69  SD         9.2860   -9.0070   36.9470 S.3    79  MET79      -0.1393
     70  CE         8.2830   -7.5170   37.0250 C.3    79  MET79       0.0692
     71  N          8.4620   -9.1610   41.9370 N.am   80  GLU80      -0.1966
     72  CA         7.8590   -9.0220   43.2520 C.3    80  GLU80       0.1733
     73  C          6.3570   -9.2700   43.1170 C.2    80  GLU80       0.2616
     74  O          5.7430   -8.8500   42.1310 O.2    80  GLU80      -0.2715
     75  CB         8.1150   -7.6320   43.8350 C.3    80  GLU80       0.0429
     76  CG         7.4560   -7.4370   45.1950 C.3    80  GLU80       0.1163
     77  CD         8.0340   -6.2610   45.9650 C.2    80  GLU80       0.3649
     78  OE1        8.9850   -5.6300   45.4570 O.co2  80  GLU80      -0.2457
     79  OE2        7.5310   -5.9710   47.0750 O.co2  80  GLU80      -0.2457
     80  N          5.7680   -9.9800   44.0820 N.am   81  LEU81      -0.1963
     81  CA         4.3350  -10.2540   44.0470 C.3    81  LEU81       0.1728
     82  C          3.6340   -9.1900   44.8640 C.2    81  LEU81       0.2616
     83  O          4.0900   -8.8350   45.9450 O.2    81  LEU81      -0.2715
     84  CB         4.0160  -11.6350   44.6400 C.3    81  LEU81       0.0311
     85  CG         2.5270  -12.0100   44.7330 C.3    81  LEU81       0.0022
     86  CD1        1.9730  -12.3850   43.3530 C.3    81  LEU81       0.0001
     87  CD2        2.3030  -13.1490   45.7370 C.3    81  LEU81       0.0001
     88  N          2.5370   -8.6730   44.3330 N.am   82  TYR82      -0.1960
     89  CA         1.6850   -7.7420   45.0600 C.3    82  TYR82       0.1756
     90  C          0.3760   -8.4900   45.2660 C.2    82  TYR82       0.2461
     91  O         -0.3500   -8.7450   44.3070 O.2    82  TYR82      -0.2730
     92  CB         1.5220   -6.4530   44.2460 C.3    82  TYR82       0.0574
     93  CG         2.8690   -5.8730   43.8550 C.ar   82  TYR82      -0.0198
     94  CD1        3.3430   -5.9650   42.5510 C.ar   82  TYR82      -0.0009
     95  CD2        3.6910   -5.2850   44.8040 C.ar   82  TYR82      -0.0009
     96  CE1        4.5980   -5.4500   42.1990 C.ar   82  TYR82       0.0417
     97  CE2        4.9470   -4.7740   44.4630 C.ar   82  TYR82       0.0417
     98  CZ         5.3910   -4.8630   43.1630 C.ar   82  TYR82       0.1957
     99  OH         6.6250   -4.3550   42.8150 O.3    82  TYR82      -0.2866
    100  N          0.1130   -8.9120   46.5160 N.am   83  PRO83      -0.2716
    101  CA        -0.9890   -9.8250   46.8590 C.3    83  PRO83       0.1536
    102  C         -2.3810   -9.2010   46.8260 C.2    83  PRO83       0.2599
    103  O         -3.3420   -9.9560   46.7030 O.2    83  PRO83      -0.2715
    104  CB        -0.6390  -10.2870   48.2830 C.3    83  PRO83       0.0310
    105  CG         0.1560   -9.1530   48.8480 C.3    83  PRO83       0.0237
    106  CD         0.9650   -8.6160   47.6830 C.3    83  PRO83       0.0939
    107  N         -2.5080   -7.8790   46.9180 N.am   84  TYR84      -0.1960
    108  CA        -3.8250   -7.2520   46.7290 C.3    84  TYR84       0.1771
    109  C         -4.3290   -7.4330   45.2910 C.2    84  TYR84       0.2620
    110  O         -5.5180   -7.2880   45.0110 O.2    84  TYR84      -0.2715
    111  CB        -3.8030   -5.7600   47.0750 C.3    84  TYR84       0.0574
    112  CG        -3.7480   -5.4170   48.5530 C.ar   84  TYR84      -0.0198
    113  CD1       -2.5670   -4.9790   49.1370 C.ar   84  TYR84      -0.0009
    114  CD2       -4.8830   -5.4980   49.3550 C.ar   84  TYR84      -0.0009
    115  CE1       -2.5090   -4.6490   50.4800 C.ar   84  TYR84       0.0417
    116  CE2       -4.8320   -5.1690   50.7040 C.ar   84  TYR84       0.0417
    117  CZ        -3.6390   -4.7460   51.2570 C.ar   84  TYR84       0.1957
    118  OH        -3.5650   -4.4160   52.5900 O.3    84  TYR84      -0.2866
    119  N         -3.4240   -7.7460   44.3750 N.am   85  GLY85      -0.1940
    120  CA        -3.8270   -8.0640   43.0160 C.3    85  GLY85       0.2014
    121  C         -4.0660   -6.8500   42.1350 C.2    85  GLY85       0.2638
    122  O         -3.4400   -5.7910   42.3310 O.2    85  GLY85      -0.2714
    123  N         -4.9660   -7.0090   41.1620 N.am   86  GLU86      -0.1977
    124  CA        -5.2190   -6.0010   40.1410 C.3    86  GLU86       0.1602
    125  C         -6.0310   -4.8400   40.6800 C.2    86  GLU86       0.2287
    126  O         -6.9020   -5.0190   41.5300 O.2    86  GLU86      -0.2864
    127  CB        -5.9490   -6.6210   38.9470 C.3    86  GLU86       0.0415
    128  CG        -5.2270   -7.7970   38.3220 C.3    86  GLU86       0.1163
    129  CD        -6.1000   -8.5400   37.3210 C.2    86  GLU86       0.3649
    130  OE1       -7.2000   -8.0370   36.9700 O.co2  86  GLU86      -0.2457
    131  OE2       -5.6850   -9.6310   36.8850 O.co2  86  GLU86      -0.2457
    132  N         -6.8000   -3.2700   34.8420 N.3   128  ARG128     -0.1231
    133  CA        -6.5800   -4.7100   34.9440 C.3   128  ARG128      0.1694
    134  C         -5.0730   -5.0530   34.9670 C.2   128  ARG128      0.2592
    135  O         -4.6700   -6.1230   35.4260 O.2   128  ARG128     -0.2718
    136  CB        -7.2660   -5.4360   33.7750 C.3   128  ARG128      0.0321
    137  CG        -8.8030   -5.2190   33.7790 C.3   128  ARG128      0.0489
    138  CD        -9.4280   -6.0920   34.9100 C.3   128  ARG128      0.2205
    139  NE       -10.8920   -5.9860   34.7750 N.pl3 128  ARG128     -0.0865
    140  CZ       -11.6620   -4.9380   35.0610 C.cat 128  ARG128      0.5346
    141  NH1      -11.2090   -3.8020   35.5860 N.pl3 128  ARG128      0.1354
    142  NH2      -13.0100   -5.0600   34.8220 N.pl3 128  ARG128      0.1354
    143  N         -4.2620   -4.1260   34.4770 N.am  129  ASN129     -0.1974
    144  CA        -2.8190   -4.3120   34.3370 C.3   129  ASN129      0.1688
    145  C         -2.0140   -3.3940   35.2640 C.2   129  ASN129      0.2292
    146  O         -0.8560   -3.0480   34.9860 O.2   129  ASN129     -0.2864
    147  CB        -2.3930   -4.0840   32.8830 C.3   129  ASN129      0.1181
    148  CG        -1.0410   -4.7110   32.5750 C.2   129  ASN129      0.2629
    149  OD1       -0.7500   -5.8150   33.0290 O.2   129  ASN129     -0.2716
    150  ND2       -0.2010   -3.9940   31.8400 N.am  129  ASN129     -0.0877
    151  N         -1.0840   -3.0770   39.4650 N.3   131  LEU131     -0.1245
    152  CA        -1.1060   -3.8960   40.6740 C.3   131  LEU131      0.1561
    153  C         -1.2230   -2.9980   41.8930 C.2   131  LEU131      0.2260
    154  O         -0.6930   -1.8880   41.9040 O.2   131  LEU131     -0.2867
    155  CB         0.1840   -4.7350   40.7640 C.3   131  LEU131      0.0270
    156  CG         0.2550   -5.9430   39.8220 C.3   131  LEU131      0.0019
    157  CD1       -1.0170   -6.7990   39.9860 C.3   131  LEU131      0.0001
    158  CD2        0.4440   -5.5550   38.3740 C.3   131  LEU131      0.0001
    159  N          1.9700   -2.4830   35.6110 N.3   141  GLY141     -0.1210
    160  CA         2.4200   -3.8300   35.2680 C.3   141  GLY141      0.1956
    161  C          3.4570   -3.8600   34.1540 C.2   141  GLY141      0.2611
    162  O          3.6920   -2.8420   33.4970 O.2   141  GLY141     -0.2717
    163  N          4.0920   -5.0170   33.9520 N.am  142  ASP142     -0.1973
    164  CA         5.1320   -5.1390   32.9350 C.3   142  ASP142      0.1709
    165  C          4.5680   -5.4010   31.5350 C.2   142  ASP142      0.2293
    166  O          5.0920   -4.8870   30.5480 O.2   142  ASP142     -0.2864
    167  CB         6.1780   -6.2070   33.3210 C.3   142  ASP142      0.1436
    168  CG         5.5580   -7.5610   33.6600 C.2   142  ASP142      0.3671
    169  OD1        6.0520   -8.5880   33.1530 O.co2 142  ASP142     -0.2456
    170  OD2        4.5940   -7.6130   34.4510 O.co2 142  ASP142     -0.2456
@<TRIPOS>BOND
     1    20    19   ar
     2    19    21   ar
     3    19    18    1
     4    25    24    2
     5    24    23    1
     6    18    17    1
     7   166   165    2
     8    23    22    1
     9    17    14    1
    10    16    15    2
    11   165   164    1
    12    22    15   am
    13    15    14    1
    14   150   148   am
    15    14    13    1
    16   148   147    1
    17   148   149    2
    18    54    55    1
    19    54    53    1
    20   147   144    1
    21   164   167    1
    22   164   163    1
    23   169   168   ar
    24   167   168    1
    25    13    11   am
    26   162   161    2
    27   168   170   ar
    28   136   137    1
    29   136   133    1
    30   137   138    1
    31   163   161   am
    32    53    52    1
    33    49    50    2
    34    49    48    1
    35    51    48    1
    36    51    52    1
    37   161   160    1
    38   144   143    1
    39   144   145    1
    40    32    30    1
    41   143   134   am
    42    11    12    2
    43    11    10    1
    44    26    27    1
    45   139   138    1
    46   139   140    2
    47   142   140    1
    48    48    47    1
    49   132   133    1
    50   133   134    1
    51   134   135    2
    52   146   145    2
    53   140   141    1
    54   160   159    1
    55    10     9    1
    56    30    27    1
    57    30    31    1
    58    27    28    1
    59   131   129   ar
    60    69    70    1
    61    69    68    1
    62   130   129   ar
    63     9     3   am
    64    62    60    1
    65    28    29    2
    66   129   128    1
    67    68    67    1
    68     3     4    2
    69     3     2    1
    70    59    58    2
    71   128   127    1
    72   158   156    1
    73    60    61    1
    74    60    57    1
    75    56    57    1
    76   127   124    1
    77    67    64    1
    78    58    57    1
    79     1     2    1
    80     2     5    1
    81     5     6    1
    82    45    44    2
    83   151   152    1
    84    63    64    1
    85     6     8    1
    86     6     7    1
    87   156   157    1
    88   156   155    1
    89    44    43    1
    90    64    65    1
    91   124   125    1
    92   124   123    1
    93    46    43    1
    94   152   155    1
    95   152   153    1
    96   125   126    2
    97    43    42    1
    98   123   121   am
    99    65    71   am
   100    65    66    2
   101    33    34    1
   102   153   154    2
   103    71    72    1
   104    74    73    2
   105   121   122    2
   106   121   120    1
   107    96    94   ar
   108    96    98   ar
   109    94    93   ar
   110    99    98    1
   111    34    35    1
   112    34    37    1
   113   120   119    1
   114    73    72    1
   115    73    80   am
   116    98    97   ar
   117    72    75    1
   118    86    85    1
   119    38    37    1
   120    38    39    1
   121    35    36    2
   122    75    76    1
   123    93    92    1
   124    93    95   ar
   125    81    80    1
   126    81    84    1
   127    81    82    1
   128    92    89    1
   129    91    90    2
   130    88    82   am
   131    88    89    1
   132    41    39   ar
   133   119   109   am
   134    39    40   ar
   135    97    95   ar
   136    84    85    1
   137    85    87    1
   138    82    83    2
   139   110   109    2
   140    89    90    1
   141    76    77    1
   142    90   100   am
   143   109   108    1
   144    78    77   ar
   145    77    79   ar
   146   100   101    1
   147   100   106    1
   148   103   102    2
   149   108   107    1
   150   108   111    1
   151   102   101    1
   152   102   107   am
   153   101   104    1
   154   111   112    1
   155   106   105    1
   156   104   105    1
   157   112   113   ar
   158   112   114   ar
   159   113   115   ar
   160   114   116   ar
   161   115   117   ar
   162   116   117   ar
   163   117   118    1
