@<TRIPOS>MOLECULE
tmp/5toeA00.pdb
 160 150 0 0 0
SMALL
GASTEIGER

@<TRIPOS>ATOM
      1  N         17.0920   38.9550   -4.6920 N.3    11  LEU11      -0.1231
      2  CA        18.4680   38.7570   -5.1350 C.3    11  LEU11       0.1693
      3  C         18.6320   37.4670   -5.9150 C.2    11  LEU11       0.2593
      4  O         19.4290   37.4140   -6.8600 O.2    11  LEU11      -0.2718
      5  CB        19.4390   38.7560   -3.9530 C.3    11  LEU11       0.0284
      6  CG        19.4470   40.0810   -3.1870 C.3    11  LEU11       0.0019
      7  CD1       20.3140   40.0090   -1.9230 C.3    11  LEU11       0.0001
      8  CD2       19.9270   41.1970   -4.0850 C.3    11  LEU11       0.0001
      9  N         17.9150   36.4220   -5.5360 N.am   12  GLY12      -0.1942
     10  CA        18.0520   35.1660   -6.2370 C.3    12  GLY12       0.2014
     11  C         17.1370   34.1400   -5.6250 C.2    12  GLY12       0.2639
     12  O         16.5190   34.3610   -4.5720 O.2    12  GLY12      -0.2714
     13  N         17.0480   33.0080   -6.3130 N.am   13  SER13      -0.1949
     14  CA        16.1620   31.9500   -5.8630 C.3    13  SER13       0.1924
     15  C         16.6390   30.6500   -6.4790 C.2    13  SER13       0.2314
     16  O         17.2690   30.6480   -7.5340 O.2    13  SER13      -0.2863
     17  CB        14.6950   32.2460   -6.2160 C.3    13  SER13       0.2116
     18  OG        14.3320   31.7770   -7.5050 O.3    13  SER13      -0.2180
     19  N         18.0150   26.7230   -2.5380 N.3    16  PHE16      -0.1241
     20  CA        18.1050   27.3520   -1.2290 C.3    16  PHE16       0.1605
     21  C         16.8600   28.1580   -0.8670 C.2    16  PHE16       0.2264
     22  O         16.8020   28.7080    0.2370 O.2    16  PHE16      -0.2867
     23  CB        19.3230   28.2740   -1.1940 C.3    16  PHE16       0.0534
     24  CG        19.3300   29.2830   -2.3030 C.ar   16  PHE16      -0.0203
     25  CD1       18.6770   30.4980   -2.1560 C.ar   16  PHE16      -0.0042
     26  CD2       19.9660   29.0110   -3.4970 C.ar   16  PHE16      -0.0042
     27  CE1       18.6730   31.4330   -3.1730 C.ar   16  PHE16      -0.0003
     28  CE2       19.9660   29.9420   -4.5330 C.ar   16  PHE16      -0.0003
     29  CZ        19.3230   31.1560   -4.3690 C.ar   16  PHE16      -0.0000
     30  N         15.8430   34.6260   -1.8160 N.3    19  VAL19      -0.1245
     31  CA        16.6270   35.5430   -1.0040 C.3    19  VAL19       0.1561
     32  C         16.4010   36.9510   -1.5160 C.2    19  VAL19       0.2260
     33  O         16.6400   37.2380   -2.6960 O.2    19  VAL19      -0.2867
     34  CB        18.1220   35.1930   -1.0100 C.3    19  VAL19       0.0252
     35  CG1       18.9160   36.2180   -0.1830 C.3    19  VAL19       0.0019
     36  CG2       18.3210   33.8030   -0.4390 C.3    19  VAL19       0.0019
     37  N         19.9190   40.2830    4.2840 N.3    32  ALA32      -0.1245
     38  CA        19.3410   39.4300    3.2620 C.3    32  ALA32       0.1562
     39  C         18.2660   38.6160    3.9470 C.2    32  ALA32       0.2260
     40  O         18.4910   38.1060    5.0440 O.2    32  ALA32      -0.2867
     41  CB        20.3900   38.5210    2.6060 C.3    32  ALA32       0.0290
     42  N         15.7630   35.4490    3.6950 N.3    34  LYS34      -0.1245
     43  CA        15.6440   34.1800    2.9840 C.3    34  LYS34       0.1561
     44  C         14.4000   33.4160    3.4260 C.2    34  LYS34       0.2260
     45  O         14.1920   33.1880    4.6250 O.2    34  LYS34      -0.2867
     46  CB        16.8940   33.3400    3.2090 C.3    34  LYS34       0.0271
     47  CG        16.9120   31.9870    2.5450 C.3    34  LYS34       0.0035
     48  CD        18.3650   31.5400    2.4980 C.3    34  LYS34       0.0206
     49  CE        18.5490   30.0430    2.6550 C.3    34  LYS34       0.1093
     50  NZ        20.0020   29.7480    2.4710 N.3    34  LYS34      -0.1314
     51  N         28.6090   33.9550    6.4170 N.3    70  ILE70      -0.1245
     52  CA        27.5220   34.9040    6.5480 C.3    70  ILE70       0.1561
     53  C         26.8820   34.5180    7.8660 C.2    70  ILE70       0.2260
     54  O         26.6220   33.3410    8.1300 O.2    70  ILE70      -0.2867
     55  CB        26.4960   34.7660    5.4130 C.3    70  ILE70       0.0252
     56  CG1       27.1150   35.1890    4.0800 C.3    70  ILE70       0.0019
     57  CG2       25.2610   35.6020    5.7080 C.3    70  ILE70       0.0019
     58  CD1       27.5360   36.6420    4.0390 C.3    70  ILE70       0.0001
     59  N         19.8200   37.3750    7.4640 N.3    86  LEU86      -0.1231
     60  CA        21.2370   37.1260    7.2810 C.3    86  LEU86       0.1693
     61  C         21.9350   38.4290    6.9410 C.2    86  LEU86       0.2592
     62  O         21.3540   39.3030    6.2990 O.2    86  LEU86      -0.2718
     63  CB        21.4680   36.1160    6.1620 C.3    86  LEU86       0.0284
     64  CG        20.9080   34.7410    6.4490 C.3    86  LEU86       0.0019
     65  CD1       20.4370   34.1230    5.1420 C.3    86  LEU86       0.0001
     66  CD2       21.9850   33.8830    7.1130 C.3    86  LEU86       0.0001
     67  N         23.1940   38.5500    7.3430 N.am   87  GLU87      -0.1966
     68  CA        23.8750   39.7990    7.0430 C.3    87  GLU87       0.1733
     69  C         24.0850   39.9360    5.5400 C.2    87  GLU87       0.2616
     70  O         24.0610   38.9590    4.7820 O.2    87  GLU87      -0.2715
     71  CB        25.2040   39.9110    7.7980 C.3    87  GLU87       0.0429
     72  CG        26.3050   38.9940    7.3540 C.3    87  GLU87       0.1163
     73  CD        27.4620   38.9520    8.3560 C.2    87  GLU87       0.3649
     74  OE1       28.3320   38.0590    8.2380 O.co2  87  GLU87      -0.2457
     75  OE2       27.4930   39.8140    9.2620 O.co2  87  GLU87      -0.2457
     76  N         24.2350   41.1790    5.1070 N.am   88  ARG88      -0.1964
     77  CA        24.4060   41.4780    3.6960 C.3    88  ARG88       0.1714
     78  C         25.4970   42.5260    3.5230 C.2    88  ARG88       0.2458
     79  O         25.3140   43.6870    3.9130 O.2    88  ARG88      -0.2730
     80  CB        23.0880   41.9580    3.0740 C.3    88  ARG88       0.0347
     81  CG        23.2420   42.5340    1.6820 C.3    88  ARG88       0.0492
     82  CD        21.8950   42.7190    0.9960 C.3    88  ARG88       0.2205
     83  NE        21.0860   43.7610    1.6280 N.pl3  88  ARG88      -0.0865
     84  CZ        21.2090   45.0640    1.3690 C.cat  88  ARG88       0.5346
     85  NH1       22.1230   45.4870    0.4970 N.pl3  88  ARG88       0.1354
     86  NH2       20.4240   45.9440    1.9820 N.pl3  88  ARG88       0.1354
     87  N         26.6450   42.1500    2.9610 N.am   89  PRO89      -0.2727
     88  CA        27.6390   43.1530    2.5630 C.3    89  PRO89       0.1402
     89  C         27.1420   43.9550    1.3680 C.2    89  PRO89       0.2269
     90  O         26.2900   43.5170    0.5930 O.2    89  PRO89      -0.2865
     91  CB        28.8740   42.3200    2.1990 C.3    89  PRO89       0.0296
     92  CG        28.5720   40.9090    2.6730 C.3    89  PRO89       0.0237
     93  CD        27.0830   40.7790    2.6510 C.3    89  PRO89       0.0939
     94  N         28.2010   43.5510   -2.9890 N.3    92  VAL92      -0.1245
     95  CA        28.5080   42.1330   -2.8620 C.3    92  VAL92       0.1561
     96  C         28.2540   41.4680   -4.2060 C.2    92  VAL92       0.2260
     97  O         27.3830   41.8890   -4.9700 O.2    92  VAL92      -0.2867
     98  CB        27.6530   41.4640   -1.7640 C.3    92  VAL92       0.0252
     99  CG1       26.1980   41.5130   -2.1650 C.3    92  VAL92       0.0019
    100  CG2       28.0750   40.0160   -1.5510 C.3    92  VAL92       0.0019
    101  N         28.1750   37.3000   -5.8010 N.3    94  ASP94      -0.1239
    102  CA        28.3970   35.8600   -5.7940 C.3    94  ASP94       0.1674
    103  C         29.6670   35.5130   -6.5740 C.2    94  ASP94       0.2266
    104  O         29.9420   36.1030   -7.6240 O.2    94  ASP94      -0.2867
    105  CB        27.1680   35.1990   -6.4180 C.3    94  ASP94       0.1410
    106  CG        26.9510   33.7960   -5.9490 C.2    94  ASP94       0.3668
    107  OD1       26.2870   33.5990   -4.9140 O.co2  94  ASP94      -0.2456
    108  OD2       27.4180   32.8710   -6.6430 O.co2  94  ASP94      -0.2456
    109  N         30.2370   32.9090   -8.2150 N.3    96  PHE96      -0.1227
    110  CA        29.8550   32.3160   -9.4970 C.3    96  PHE96       0.1736
    111  C         29.6810   33.3900  -10.5630 C.2    96  PHE96       0.2595
    112  O         30.2480   33.2940  -11.6560 O.2    96  PHE96      -0.2718
    113  CB        28.5680   31.4980   -9.3340 C.3    96  PHE96       0.0547
    114  CG        28.0760   30.8650  -10.6110 C.ar   96  PHE96      -0.0202
    115  CD1       27.2990   31.5870  -11.5130 C.ar   96  PHE96      -0.0042
    116  CD2       28.3790   29.5480  -10.9040 C.ar   96  PHE96      -0.0042
    117  CE1       26.8420   31.0090  -12.6810 C.ar   96  PHE96      -0.0003
    118  CE2       27.9220   28.9610  -12.0690 C.ar   96  PHE96      -0.0003
    119  CZ        27.1570   29.6900  -12.9620 C.ar   96  PHE96      -0.0000
    120  N         28.8870   34.4250  -10.2630 N.am   97  ASP97      -0.1974
    121  CA        28.7330   35.5250  -11.2140 C.3    97  ASP97       0.1709
    122  C         30.0680   36.2140  -11.4550 C.2    97  ASP97       0.2293
    123  O         30.3890   36.5980  -12.5900 O.2    97  ASP97      -0.2864
    124  CB        27.6940   36.5280  -10.7130 C.3    97  ASP97       0.1436
    125  CG        26.3500   35.8760  -10.4070 C.2    97  ASP97       0.3671
    126  OD1       25.9930   34.8650  -11.0610 O.co2  97  ASP97      -0.2456
    127  OD2       25.6530   36.3750   -9.4940 O.co2  97  ASP97      -0.2456
    128  N         29.0850   29.2020   -6.2320 N.3   137  GLU137     -0.1245
    129  CA        27.7640   29.7730   -5.9930 C.3   137  GLU137      0.1567
    130  C         27.5070   30.0410   -4.5240 C.2   137  GLU137      0.2260
    131  O         26.6950   30.9150   -4.1880 O.2   137  GLU137     -0.2867
    132  CB        26.6770   28.8350   -6.4890 C.3   137  GLU137      0.0388
    133  CG        26.4700   28.8210   -7.9750 C.3   137  GLU137      0.1160
    134  CD        25.4680   27.7500   -8.3680 C.2   137  GLU137      0.3649
    135  OE1       25.9040   26.6020   -8.6620 O.co2 137  GLU137     -0.2457
    136  OE2       24.2470   28.0580   -8.3420 O.co2 137  GLU137     -0.2457
    137  N         30.2110   34.4270   -1.2680 N.3   140  LEU140     -0.1245
    138  CA        29.9610   35.8280   -1.5700 C.3   140  LEU140      0.1561
    139  C         31.2530   36.6130   -1.4260 C.2   140  LEU140      0.2260
    140  O         32.0760   36.3300   -0.5460 O.2   140  LEU140     -0.2867
    141  CB        28.8940   36.4250   -0.6370 C.3   140  LEU140      0.0270
    142  CG        27.4910   35.8300   -0.8020 C.3   140  LEU140      0.0019
    143  CD1       26.4960   36.4900    0.1420 C.3   140  LEU140      0.0001
    144  CD2       27.0250   35.9080   -2.2890 C.3   140  LEU140      0.0001
    145  N         27.9720   30.7790    2.3040 N.3   151  ILE151     -0.1231
    146  CA        26.5210   30.8300    2.4750 C.3   151  ILE151      0.1692
    147  C         25.9250   29.4780    2.1120 C.2   151  ILE151      0.2592
    148  O         26.5840   28.6100    1.5360 O.2   151  ILE151     -0.2718
    149  CB        25.8470   31.9190    1.6060 C.3   151  ILE151      0.0266
    150  CG1       26.0950   31.6230    0.1300 C.3   151  ILE151      0.0019
    151  CG2       26.3540   33.2780    1.9440 C.3   151  ILE151      0.0020
    152  CD1       25.3040   32.4950   -0.8070 C.3   151  ILE151      0.0001
    153  N         24.6370   29.3400    2.4240 N.am  152  ASP152     -0.1974
    154  CA        23.8060   28.1890    2.0740 C.3   152  ASP152      0.1709
    155  C         24.2540   26.9140    2.8010 C.2   152  ASP152      0.2293
    156  O         24.8590   25.9970    2.2340 O.2   152  ASP152     -0.2864
    157  CB        23.7470   27.9670    0.5570 C.3   152  ASP152      0.1436
    158  CG        22.9250   29.0240   -0.1450 C.2   152  ASP152      0.3671
    159  OD1       22.2610   29.8320    0.5510 O.co2 152  ASP152     -0.2456
    160  OD2       22.8970   29.0200   -1.3910 O.co2 152  ASP152     -0.2456
@<TRIPOS>BOND
     1   119   117   ar
     2   119   118   ar
     3   117   115   ar
     4   123   122    2
     5   118   116   ar
     6   112   111    2
     7   115   114   ar
     8   122   121    1
     9   121   124    1
    10   121   120    1
    11   126   125   ar
    12   116   114   ar
    13   124   125    1
    14   114   113    1
    15   111   120   am
    16   111   110    1
    17   125   127   ar
    18   110   113    1
    19   110   109    1
    20   135   134   ar
    21   134   136   ar
    22   134   133    1
    23   133   132    1
    24   104   103    2
    25    16    15    2
    26    18    17    1
    27     4     3    2
    28   108   106   ar
    29   103   102    1
    30   132   129    1
    31    15    14    1
    32   105   106    1
    33   105   102    1
    34    13    14    1
    35    13    11   am
    36    10    11    1
    37    10     9    1
    38   128   129    1
    39    17    14    1
    40   129   130    1
    41   106   107   ar
    42     3     9   am
    43     3     2    1
    44   101   102    1
    45    11    12    2
    46     2     1    1
    47     2     5    1
    48    97    96    2
    49    28    29   ar
    50    28    26   ar
    51   130   131    2
    52    29    27   ar
    53    96    95    1
    54     8     6    1
    55     5     6    1
    56    26    24   ar
    57     6     7    1
    58    27    25   ar
    59    94    95    1
    60    95    98    1
    61    33    32    2
    62    19    20    1
    63    24    25   ar
    64    24    23    1
    65   144   142    1
    66    99    98    1
    67    30    31    1
    68    98   100    1
    69   138   139    1
    70   138   137    1
    71   138   141    1
    72    32    31    1
    73   139   140    2
    74   160   158   ar
    75    20    23    1
    76    20    21    1
    77    34    31    1
    78    34    36    1
    79    34    35    1
    80    21    22    2
    81   152   150    1
    82   142   141    1
    83   142   143    1
    84   158   159   ar
    85   158   157    1
    86   150   149    1
    87    85    84    1
    88   157   154    1
    89    90    89    2
    90    82    83    1
    91    82    81    1
    92    89    88    1
    93    84    83    2
    94    84    86    1
    95   148   147    2
    96   149   151    1
    97   149   146    1
    98    81    80    1
    99   154   153    1
   100   154   155    1
   101   147   153   am
   102   147   146    1
   103    91    88    1
   104    91    92    1
   105   156   155    2
   106   145   146    1
   107    50    49    1
   108    48    47    1
   109    48    49    1
   110    47    46    1
   111    88    87    1
   112    41    38    1
   113    93    92    1
   114    93    87    1
   115    87    78   am
   116    43    46    1
   117    43    44    1
   118    43    42    1
   119    80    77    1
   120    38    39    1
   121    38    37    1
   122    44    45    2
   123    78    77    1
   124    78    79    2
   125    77    76    1
   126    39    40    2
   127    58    56    1
   128    56    55    1
   129    70    69    2
   130    76    69   am
   131    65    64    1
   132    55    57    1
   133    55    52    1
   134    69    68    1
   135    63    64    1
   136    63    60    1
   137    62    61    2
   138    51    52    1
   139    64    66    1
   140    52    53    1
   141    61    60    1
   142    61    67   am
   143    68    67    1
   144    68    71    1
   145    60    59    1
   146    72    71    1
   147    72    73    1
   148    53    54    2
   149    74    73   ar
   150    73    75   ar
