@<TRIPOS>MOLECULE
tmp/5tolA00.pdb
 184 177 0 0 0
SMALL
GASTEIGER

@<TRIPOS>ATOM
      1  N        -24.7070   42.6170   29.0410 N.3    15  GLY15      -0.1210
      2  CA       -24.4810   42.8420   27.6340 C.3    15  GLY15       0.1956
      3  C        -25.7120   43.3060   26.8910 C.2    15  GLY15       0.2612
      4  O        -25.6710   43.4300   25.6670 O.2    15  GLY15      -0.2717
      5  N        -26.8230   43.5470   27.5850 N.am   16  GLN16      -0.1965
      6  CA       -28.0120   44.0400   26.8670 C.3    16  GLN16       0.1733
      7  C        -28.4160   45.4730   27.2180 C.2    16  GLN16       0.2617
      8  O        -29.3880   45.9950   26.6680 O.2    16  GLN16      -0.2715
      9  CB       -29.1820   43.0620   26.9830 C.3    16  GLN16       0.0408
     10  CG       -28.8350   41.7060   26.3880 C.3    16  GLN16       0.0908
     11  CD       -30.0210   40.7610   26.2390 C.2    16  GLN16       0.2608
     12  OE1      -31.0560   40.9060   26.9090 O.2    16  GLN16      -0.2717
     13  NE2      -29.8660   39.7740   25.3610 N.am   16  GLN16      -0.0878
     14  N        -27.6580   46.1080   28.1080 N.am   17  GLY17      -0.1940
     15  CA       -27.8980   47.4960   28.4810 C.3    17  GLY17       0.2014
     16  C        -28.8670   47.7300   29.6260 C.2    17  GLY17       0.2638
     17  O        -29.5320   46.8280   30.0940 O.2    17  GLY17      -0.2714
     18  N        -28.9440   48.9650   30.0840 N.am   18  TYR18      -0.1973
     19  CA       -29.8150   49.2910   31.2000 C.3    18  TYR18       0.1639
     20  C        -31.0230   50.0110   30.6790 C.2    18  TYR18       0.2290
     21  O        -30.9070   50.8820   29.8130 O.2    18  TYR18      -0.2864
     22  CB       -29.0580   50.1310   32.2170 C.3    18  TYR18       0.0560
     23  CG       -27.8710   49.3830   32.8080 C.ar   18  TYR18      -0.0198
     24  CD1      -27.9500   48.7950   34.0740 C.ar   18  TYR18      -0.0009
     25  CD2      -26.6880   49.2190   32.0790 C.ar   18  TYR18      -0.0009
     26  CE1      -26.8820   48.1290   34.6090 C.ar   18  TYR18       0.0417
     27  CE2      -25.6260   48.5320   32.6000 C.ar   18  TYR18       0.0417
     28  CZ       -25.7260   47.9900   33.8690 C.ar   18  TYR18       0.1957
     29  OH       -24.6490   47.2920   34.3960 O.3    18  TYR18      -0.2866
     30  N        -34.0400   51.6930   26.7100 N.3    34  LEU34      -0.1245
     31  CA       -32.5970   51.7670   26.9190 C.3    34  LEU34       0.1561
     32  C        -32.1290   53.2040   27.2260 C.2    34  LEU34       0.2260
     33  O        -32.4260   54.1670   26.5020 O.2    34  LEU34      -0.2867
     34  CB       -31.8200   51.1960   25.7180 C.3    34  LEU34       0.0270
     35  CG       -30.2830   51.1400   25.8580 C.3    34  LEU34       0.0019
     36  CD1      -29.8930   49.9630   26.7350 C.3    34  LEU34       0.0001
     37  CD2      -29.5650   51.0460   24.5040 C.3    34  LEU34       0.0001
     38  N        -29.4190   55.7470   27.1400 N.3    36  ASP36      -0.1239
     39  CA       -28.2350   55.9350   26.2980 C.3    36  ASP36       0.1674
     40  C        -27.6280   57.3600   26.3540 C.2    36  ASP36       0.2266
     41  O        -28.1430   58.2890   25.7200 O.2    36  ASP36      -0.2867
     42  CB       -28.6200   55.5670   24.8710 C.3    36  ASP36       0.1410
     43  CG       -27.4630   55.6520   23.8980 C.2    36  ASP36       0.3668
     44  OD1      -26.3010   55.6880   24.3340 O.co2  36  ASP36      -0.2456
     45  OD2      -27.7180   55.6790   22.6660 O.co2  36  ASP36      -0.2456
     46  N        -25.0140   58.2150   24.9600 N.3    38  GLY38      -0.1210
     47  CA       -24.2540   58.3990   23.7240 C.3    38  GLY38       0.1956
     48  C        -25.0320   58.8060   22.4780 C.2    38  GLY38       0.2612
     49  O        -24.4680   58.7950   21.3830 O.2    38  GLY38      -0.2717
     50  N        -26.3030   59.1770   22.6210 N.am   39  SER39      -0.1952
     51  CA       -27.1040   59.6720   21.4810 C.3    39  SER39       0.1924
     52  C        -28.1800   60.6280   21.9900 C.2    39  SER39       0.2314
     53  O        -28.2650   60.8610   23.1750 O.2    39  SER39      -0.2863
     54  CB       -27.7430   58.5050   20.7090 C.3    39  SER39       0.2116
     55  OG       -28.7630   57.9090   21.4850 O.3    39  SER39      -0.2180
     56  N        -31.6370   56.8110   10.2750 N.3    73  VAL73      -0.1245
     57  CA       -30.4330   56.8190   11.1070 C.3    73  VAL73       0.1561
     58  C        -29.5550   55.5790   10.8910 C.2    73  VAL73       0.2260
     59  O        -29.7360   54.5620   11.5520 O.2    73  VAL73      -0.2867
     60  CB       -30.7860   56.9660   12.6240 C.3    73  VAL73       0.0252
     61  CG1      -29.5380   57.2840   13.4570 C.3    73  VAL73       0.0019
     62  CG2      -31.8830   58.0190   12.8340 C.3    73  VAL73       0.0019
     63  N        -25.9580   53.8070   11.5310 N.3    75  TYR75      -0.1241
     64  CA       -24.7820   53.9530   12.3930 C.3    75  TYR75       0.1605
     65  C        -23.8830   52.7560   12.1060 C.2    75  TYR75       0.2264
     66  O        -24.2190   51.9480   11.2330 O.2    75  TYR75      -0.2867
     67  CB       -25.1650   54.1050   13.8810 C.3    75  TYR75       0.0534
     68  CG       -26.0930   53.0450   14.4540 C.ar   75  TYR75      -0.0201
     69  CD1      -27.4790   53.1000   14.2350 C.ar   75  TYR75      -0.0009
     70  CD2      -25.5840   51.9980   15.2370 C.ar   75  TYR75      -0.0009
     71  CE1      -28.3300   52.1260   14.7550 C.ar   75  TYR75       0.0417
     72  CE2      -26.4200   51.0140   15.7710 C.ar   75  TYR75       0.0417
     73  CZ       -27.7930   51.0860   15.5280 C.ar   75  TYR75       0.1957
     74  OH       -28.6220   50.1270   16.0640 O.3    75  TYR75      -0.2866
     75  N        -22.9610   49.8320   13.6490 N.3    77  GLN77      -0.1245
     76  CA       -23.4470   48.4730   13.9200 C.3    77  GLN77       0.1566
     77  C        -24.9490   48.2440   13.6250 C.2    77  GLN77       0.2260
     78  O        -25.5180   47.2460   14.0910 O.2    77  GLN77      -0.2867
     79  CB       -23.1040   48.0710   15.3760 C.3    77  GLN77       0.0367
     80  CG       -21.6180   47.9540   15.7070 C.3    77  GLN77       0.0905
     81  CD       -20.9090   46.9600   14.8240 C.2    77  GLN77       0.2608
     82  OE1      -21.3720   45.8070   14.7160 O.2    77  GLN77      -0.2717
     83  NE2      -19.9100   47.3790   14.1130 N.am   77  GLN77      -0.0878
     84  N        -31.8910   52.4360   12.2220 N.3    80  TRP80      -0.1241
     85  CA       -33.3470   52.5620   12.3830 C.3    80  TRP80       0.1605
     86  C        -33.9240   53.7010   11.5420 C.2    80  TRP80       0.2264
     87  O        -33.2070   54.5860   11.0870 O.2    80  TRP80      -0.2867
     88  CB       -33.7820   52.6550   13.8510 C.3    80  TRP80       0.0550
     89  CG       -33.3260   53.8860   14.6150 C.ar   80  TRP80       0.0003
     90  CD1      -32.2210   53.9870   15.4210 C.ar   80  TRP80       0.0946
     91  CD2      -33.9830   55.1590   14.6880 C.ar   80  TRP80       0.0152
     92  NE1      -32.1440   55.2420   15.9820 N.ar   80  TRP80      -0.2442
     93  CE2      -33.2110   55.9840   15.5540 C.ar   80  TRP80       0.0810
     94  CE3      -35.1410   55.6900   14.1080 C.ar   80  TRP80       0.0012
     95  CZ2      -33.5550   57.3150   15.8370 C.ar   80  TRP80       0.0191
     96  CZ3      -35.4940   57.0160   14.4080 C.ar   80  TRP80       0.0001
     97  CH2      -34.6950   57.8100   15.2590 C.ar   80  TRP80       0.0015
     98  N        -30.6400   45.3560   13.0140 N.3   111  LYS111     -0.1231
     99  CA       -29.6070   45.1700   14.0230 C.3   111  LYS111      0.1693
    100  C        -29.6980   46.2540   15.0840 C.2   111  LYS111      0.2592
    101  O        -28.7250   46.6110   15.7160 O.2   111  LYS111     -0.2718
    102  CB       -28.2010   45.1000   13.3780 C.3   111  LYS111      0.0285
    103  CG       -27.9670   43.8340   12.5120 C.3   111  LYS111      0.0035
    104  CD       -26.7130   43.9280   11.6270 C.3   111  LYS111      0.0206
    105  CE       -26.2090   42.5020   11.2750 C.3   111  LYS111      0.1093
    106  NZ       -25.9300   42.2510    9.8200 N.3   111  LYS111     -0.1314
    107  N        -30.8960   46.7810   15.2660 N.am  112  PHE112     -0.1976
    108  CA       -31.1440   47.7730   16.2930 C.3   112  PHE112      0.1639
    109  C        -31.6760   47.1070   17.5690 C.2   112  PHE112      0.2290
    110  O        -31.1130   47.2950   18.6430 O.2   112  PHE112     -0.2864
    111  CB       -32.1080   48.8520   15.7770 C.3   112  PHE112      0.0560
    112  CG       -32.4680   49.8790   16.8140 C.ar  112  PHE112     -0.0200
    113  CD1      -31.6150   50.9670   17.0640 C.ar  112  PHE112     -0.0042
    114  CD2      -33.6320   49.7440   17.5660 C.ar  112  PHE112     -0.0042
    115  CE1      -31.9190   51.9050   18.0120 C.ar  112  PHE112     -0.0003
    116  CE2      -33.9490   50.6840   18.5350 C.ar  112  PHE112     -0.0003
    117  CZ       -33.0960   51.7650   18.7580 C.ar  112  PHE112     -0.0000
    118  N        -32.3840   44.0260   20.1450 N.3   114  ILE114     -0.1245
    119  CA       -31.6740   42.8160   20.4900 C.3   114  ILE114      0.1561
    120  C        -32.6750   41.6740   20.6500 C.2   114  ILE114      0.2260
    121  O        -33.6320   41.7720   21.4320 O.2   114  ILE114     -0.2867
    122  CB       -30.8350   43.0120   21.7610 C.3   114  ILE114      0.0252
    123  CG1      -29.8480   44.1900   21.5610 C.3   114  ILE114      0.0019
    124  CG2      -30.1410   41.6980   22.1370 C.3   114  ILE114      0.0019
    125  CD1      -28.9460   44.4990   22.7250 C.3   114  ILE114      0.0001
    126  N        -36.2010   45.4650   26.2610 N.3   119  TRP119     -0.1241
    127  CA       -36.5030   46.8620   25.9570 C.3   119  TRP119      0.1605
    128  C        -36.9060   47.0320   24.5220 C.2   119  TRP119      0.2264
    129  O        -36.6020   46.1790   23.6980 O.2   119  TRP119     -0.2867
    130  CB       -35.3550   47.8260   26.3000 C.3   119  TRP119      0.0550
    131  CG       -34.0060   47.4770   25.7580 C.ar  119  TRP119      0.0003
    132  CD1      -33.0310   46.7810   26.4090 C.ar  119  TRP119      0.0946
    133  CD2      -33.4580   47.8360   24.4730 C.ar  119  TRP119      0.0152
    134  NE1      -31.9120   46.6860   25.6140 N.ar  119  TRP119     -0.2442
    135  CE2      -32.1520   47.3180   24.4200 C.ar  119  TRP119      0.0810
    136  CE3      -33.9470   48.5420   23.3720 C.ar  119  TRP119      0.0012
    137  CZ2      -31.3190   47.4790   23.2930 C.ar  119  TRP119      0.0191
    138  CZ3      -33.1330   48.7060   22.2600 C.ar  119  TRP119      0.0001
    139  CH2      -31.8310   48.1810   22.2250 C.ar  119  TRP119      0.0015
    140  N        -35.1850   53.5610   22.7580 N.3   122  ILE122     -0.1245
    141  CA       -33.9650   54.1570   23.2710 C.3   122  ILE122      0.1561
    142  C        -34.1970   55.5980   23.7160 C.2   122  ILE122      0.2260
    143  O        -34.9490   56.3500   23.0750 O.2   122  ILE122     -0.2867
    144  CB       -32.8370   54.0510   22.2130 C.3   122  ILE122      0.0252
    145  CG1      -31.5080   54.5310   22.7630 C.3   122  ILE122      0.0019
    146  CG2      -33.2000   54.8150   20.9320 C.3   122  ILE122      0.0019
    147  CD1      -30.3370   54.2060   21.7950 C.3   122  ILE122      0.0001
    148  N        -20.5890   57.1080   27.7450 N.3   220  ASP220     -0.1225
    149  CA       -21.6520   56.5020   26.8760 C.3   220  ASP220      0.1805
    150  C        -22.2110   55.2040   27.4910 C.2   220  ASP220      0.2598
    151  O        -21.5930   54.1360   27.3870 O.2   220  ASP220     -0.2718
    152  CB       -21.1020   56.2480   25.4550 C.3   220  ASP220      0.1424
    153  CG       -22.1230   55.5620   24.4980 C.2   220  ASP220      0.3668
    154  OD1      -23.2250   55.1380   24.9380 O.co2 220  ASP220     -0.2456
    155  OD2      -21.8330   55.4510   23.2790 O.co2 220  ASP220     -0.2456
    156  N        -23.3730   55.2980   28.1280 N.am  221  SER221     -0.1938
    157  CA       -23.9970   54.1480   28.7690 C.3   221  SER221      0.2055
    158  C        -24.6320   53.1870   27.7500 C.2   221  SER221      0.2644
    159  O        -25.1320   52.1180   28.1110 O.2   221  SER221     -0.2714
    160  CB       -25.0490   54.6310   29.7530 C.3   221  SER221      0.2130
    161  OG       -25.9930   55.4610   29.0850 O.3   221  SER221     -0.2179
    162  N        -24.6050   53.5820   26.4780 N.am  222  GLY222     -0.1939
    163  CA       -25.1570   52.7880   25.3900 C.3   222  GLY222      0.2014
    164  C        -24.0840   51.9740   24.6820 C.2   222  GLY222      0.2640
    165  O        -24.3260   51.4400   23.6020 O.2   222  GLY222     -0.2714
    166  N        -22.9130   51.8700   25.3060 N.am  223  THR223     -0.1936
    167  CA       -21.8040   51.0330   24.8200 C.3   223  THR223      0.2028
    168  C        -21.3300   50.1630   25.9640 C.2   223  THR223      0.2642
    169  O        -21.1540   50.6600   27.0760 O.2   223  THR223     -0.2714
    170  CB       -20.6020   51.9100   24.3910 C.3   223  THR223      0.1808
    171  OG1      -20.9230   52.5700   23.1840 O.3   223  THR223     -0.2208
    172  CG2      -19.3440   51.1010   24.1560 C.3   223  THR223      0.0379
    173  N        -21.1200   48.8720   25.6970 N.am  224  THR224     -0.1950
    174  CA       -20.5810   47.9580   26.7090 C.3   224  THR224      0.1897
    175  C        -19.0930   48.2320   27.0330 C.2   224  THR224      0.2313
    176  O        -18.7360   48.4370   28.1950 O.2   224  THR224     -0.2863
    177  CB       -20.7510   46.4920   26.2790 C.3   224  THR224      0.1794
    178  OG1      -22.1320   46.2450   25.9670 O.3   224  THR224     -0.2208
    179  CG2      -20.2750   45.5150   27.4010 C.3   224  THR224      0.0378
    180  N        -19.9560   50.8550   29.5150 N.3   324  ALA324     -0.1245
    181  CA       -20.3780   50.2410   30.7810 C.3   324  ALA324      0.1562
    182  C        -19.1800   49.7370   31.5850 C.2   324  ALA324      0.2260
    183  O        -19.2270   49.7060   32.8080 O.2   324  ALA324     -0.2867
    184  CB       -21.3660   49.1060   30.5360 C.3   324  ALA324      0.0290
@<TRIPOS>BOND
     1   106   105    1
     2    56    57    1
     3    58    57    1
     4    58    59    2
     5    87    86    2
     6    57    60    1
     7    66    65    2
     8   105   104    1
     9    63    64    1
    10    86    85    1
    11   104   103    1
    12    65    64    1
    13    84    85    1
    14    85    88    1
    15    64    67    1
    16   103   102    1
    17    60    62    1
    18    60    61    1
    19    98    99    1
    20   102    99    1
    21    77    76    1
    22    77    78    2
    23    75    76    1
    24    88    89    1
    25    67    68    1
    26    76    79    1
    27    99   100    1
    28    94    96   ar
    29    94    91   ar
    30    83    81   am
    31    69    68   ar
    32    69    71   ar
    33    96    97   ar
    34    68    70   ar
    35    89    91   ar
    36    89    90   ar
    37    91    93   ar
    38    82    81    2
    39    71    73   ar
    40    81    80    1
    41   100   107   am
    42   100   101    2
    43    70    72   ar
    44    97    95   ar
    45   107   108    1
    46    79    80    1
    47    90    92   ar
    48    73    72   ar
    49    73    74    1
    50    93    95   ar
    51    93    92   ar
    52   111   108    1
    53   111   112    1
    54   108   109    1
    55   112   113   ar
    56   112   114   ar
    57   113   115   ar
    58   114   116   ar
    59   109   110    2
    60   115   117   ar
    61   116   117   ar
    62   118   119    1
    63   119   120    1
    64   119   122    1
    65   120   121    2
    66    54    51    1
    67    54    55    1
    68   146   144    1
    69    49    48    2
    70    51    52    1
    71    51    50    1
    72   123   122    1
    73   123   125    1
    74   122   124    1
    75   147   145    1
    76    52    53    2
    77   144   145    1
    78   144   141    1
    79   139   138   ar
    80   139   137   ar
    81   138   136   ar
    82    48    50   am
    83    48    47    1
    84    45    43   ar
    85   140   141    1
    86   143   142    2
    87   171   170    1
    88   141   142    1
    89   155   153   ar
    90   137   135   ar
    91   136   133   ar
    92   165   164    2
    93   129   128    2
    94    47    46    1
    95    43    44   ar
    96    43    42    1
    97   172   170    1
    98   170   167    1
    99   135   133   ar
   100   135   134   ar
   101   133   131   ar
   102   153   154   ar
   103   153   152    1
   104    37    35    1
   105   128   127    1
   106   164   166   am
   107   164   163    1
   108   167   166    1
   109   167   168    1
   110    42    39    1
   111    13    11   am
   112   163   162    1
   113   152   149    1
   114   134   132   ar
   115     4     3    2
   116   173   168   am
   117   173   174    1
   118    34    35    1
   119    34    31    1
   120    41    40    2
   121   131   130    1
   122   131   132   ar
   123    35    36    1
   124   127   126    1
   125   127   130    1
   126   168   169    2
   127   178   177    1
   128    11    10    1
   129    11    12    2
   130   177   174    1
   131   177   179    1
   132    39    40    1
   133    39    38    1
   134    10     9    1
   135   162   158   am
   136    33    32    2
   137     8     7    2
   138   174   175    1
   139    30    31    1
   140     6     9    1
   141     6     7    1
   142     6     5    1
   143   149   150    1
   144   149   148    1
   145     3     5   am
   146     3     2    1
   147    31    32    1
   148   175   176    2
   149     7    14   am
   150   151   150    2
   151   150   156   am
   152     2     1    1
   153   158   159    2
   154   158   157    1
   155    14    15    1
   156   156   157    1
   157    15    16    1
   158   157   160    1
   159   161   160    1
   160   180   181    1
   161    16    18   am
   162    16    17    2
   163    21    20    2
   164    18    19    1
   165   184   181    1
   166    20    19    1
   167   181   182    1
   168    19    22    1
   169   182   183    2
   170    25    27   ar
   171    25    23   ar
   172    22    23    1
   173    27    28   ar
   174    23    24   ar
   175    28    29    1
   176    28    26   ar
   177    24    26   ar
