@<TRIPOS>MOLECULE
tmp/5touA00.pdb
 241 236 0 0 0
SMALL
GASTEIGER

@<TRIPOS>ATOM
      1  N          3.8010   28.4500   47.3820 N.3    59  VAL59      -0.1231
      2  CA         3.8700   27.7030   46.1270 C.3    59  VAL59       0.1692
      3  C          4.3860   28.6020   44.9890 C.2    59  VAL59       0.2592
      4  O          5.2100   28.1840   44.1760 O.2    59  VAL59      -0.2718
      5  CB         2.4950   27.0550   45.7410 C.3    59  VAL59       0.0266
      6  CG1        2.6230   26.2410   44.4580 C.3    59  VAL59       0.0020
      7  CG2        1.9740   26.1610   46.8720 C.3    59  VAL59       0.0020
      8  N          3.8980   29.8370   44.9270 N.am   60  TYR60      -0.1976
      9  CA         4.3540   30.7620   43.8960 C.3    60  TYR60       0.1639
     10  C          5.8670   31.0070   44.0290 C.2    60  TYR60       0.2290
     11  O          6.5660   31.1230   43.0230 O.2    60  TYR60      -0.2864
     12  CB         3.5830   32.0940   43.9520 C.3    60  TYR60       0.0560
     13  CG         2.0600   31.9670   43.9390 C.ar   60  TYR60      -0.0198
     14  CD1        1.4200   30.8960   43.3140 C.ar   60  TYR60      -0.0009
     15  CD2        1.2650   32.9270   44.5560 C.ar   60  TYR60      -0.0009
     16  CE1        0.0260   30.7880   43.3130 C.ar   60  TYR60       0.0417
     17  CE2       -0.1200   32.8360   44.5540 C.ar   60  TYR60       0.0417
     18  CZ        -0.7340   31.7610   43.9370 C.ar   60  TYR60       0.1957
     19  OH        -2.1100   31.6780   43.9370 O.3    60  TYR60      -0.2866
     20  N          4.6830   29.4720   37.8010 N.3    66  THR66      -0.1218
     21  CA         3.2780   29.2620   38.0760 C.3    66  THR66       0.1862
     22  C          2.5120   30.5990   38.0640 C.2    66  THR66       0.2287
     23  O          1.3170   30.6380   37.7890 O.2    66  THR66      -0.2866
     24  CB         3.1720   28.4950   39.4140 C.3    66  THR66       0.1770
     25  OG1        2.4250   27.2860   39.2340 O.3    66  THR66      -0.2211
     26  CG2        2.6170   29.3370   40.5040 C.3    66  THR66       0.0375
     27  N         -4.5070   28.1290   31.4240 N.3    72  ALA72      -0.1231
     28  CA        -5.6330   28.0590   32.3420 C.3    72  ALA72       0.1694
     29  C         -5.2670   27.2940   33.6180 C.2    72  ALA72       0.2592
     30  O         -5.9060   27.4500   34.6580 O.2    72  ALA72      -0.2718
     31  CB        -6.8410   27.4280   31.6500 C.3    72  ALA72       0.0304
     32  N         -4.2260   26.4770   33.5340 N.am   73  ASN73      -0.1960
     33  CA        -3.7890   25.6710   34.6710 C.3    73  ASN73       0.1819
     34  C         -2.8430   26.4230   35.6010 C.2    73  ASN73       0.2621
     35  O         -2.4640   25.9050   36.6580 O.2    73  ASN73      -0.2715
     36  CB        -3.0980   24.4030   34.1840 C.3    73  ASN73       0.1195
     37  CG        -1.9010   24.7050   33.3180 C.2    73  ASN73       0.2630
     38  OD1       -1.9160   25.6550   32.5410 O.2    73  ASN73      -0.2716
     39  ND2       -0.8480   23.9040   33.4520 N.am   73  ASN73      -0.0877
     40  N         -2.4620   27.6390   35.2190 N.am   74  TYR74      -0.1960
     41  CA        -1.5190   28.4030   36.0380 C.3    74  TYR74       0.1771
     42  C         -2.1680   29.5640   36.7720 C.2    74  TYR74       0.2619
     43  O         -3.2880   29.9610   36.4690 O.2    74  TYR74      -0.2715
     44  CB        -0.3490   28.9280   35.2090 C.3    74  TYR74       0.0574
     45  CG         0.4900   27.8410   34.5840 C.ar   74  TYR74      -0.0198
     46  CD1        1.1800   26.9360   35.3710 C.ar   74  TYR74      -0.0009
     47  CD2        0.6150   27.7410   33.2090 C.ar   74  TYR74      -0.0009
     48  CE1        1.9570   25.9450   34.8030 C.ar   74  TYR74       0.0417
     49  CE2        1.3810   26.7600   32.6320 C.ar   74  TYR74       0.0417
     50  CZ         2.0570   25.8660   33.4270 C.ar   74  TYR74       0.1957
     51  OH         2.8270   24.8810   32.8490 O.3    74  TYR74      -0.2866
     52  N         -1.4330   30.1080   37.7380 N.am   75  ALA75      -0.1977
     53  CA        -1.9300   31.1850   38.5790 C.3    75  ALA75       0.1597
     54  C         -1.4090   32.5390   38.1100 C.2    75  ALA75       0.2287
     55  O         -1.1650   33.4260   38.9280 O.2    75  ALA75      -0.2864
     56  CB        -1.5350   30.9440   40.0410 C.3    75  ALA75       0.0319
     57  N         -7.8260   35.0090   38.2930 N.3    79  THR79      -0.1203
     58  CA        -8.6840   33.8410   38.2330 C.3    79  THR79       0.1994
     59  C         -7.9270   32.5840   38.6840 C.2    79  THR79       0.2618
     60  O         -8.4100   31.8290   39.5280 O.2    79  THR79      -0.2717
     61  CB        -9.2350   33.6440   36.8150 C.3    79  THR79       0.1784
     62  OG1      -10.1040   34.7380   36.4910 O.3    79  THR79      -0.2211
     63  CG2      -10.0080   32.3400   36.7200 C.3    79  THR79       0.0376
     64  N         -6.7440   32.3700   38.1130 N.am   80  GLY80      -0.1956
     65  CA        -5.9010   31.2450   38.4850 C.3    80  GLY80       0.1869
     66  C         -5.4610   31.3190   39.9370 C.2    80  GLY80       0.2309
     67  O         -5.3810   30.2950   40.6210 O.2    80  GLY80      -0.2863
     68  N         -8.4850   30.2390   42.0960 N.3    83  LYS83      -0.1231
     69  CA        -8.6270   28.7760   42.0610 C.3    83  LYS83       0.1693
     70  C         -7.6240   28.1560   43.0180 C.2    83  LYS83       0.2592
     71  O         -7.9360   27.2490   43.7800 O.2    83  LYS83      -0.2718
     72  CB        -8.3320   28.2340   40.6570 C.3    83  LYS83       0.0285
     73  CG        -9.3410   28.6320   39.5860 C.3    83  LYS83       0.0035
     74  CD       -10.6190   27.8230   39.7020 C.3    83  LYS83       0.0206
     75  CE       -11.5720   28.1630   38.5640 C.3    83  LYS83       0.1093
     76  NZ       -12.7920   27.3450   38.6340 N.3    83  LYS83      -0.1314
     77  N         -6.4020   28.6600   42.9780 N.am   84  CYS84      -0.1970
     78  CA        -5.3290   28.0600   43.7640 C.3    84  CYS84       0.1712
     79  C         -5.5540   28.1830   45.2780 C.2    84  CYS84       0.2296
     80  O         -5.4300   27.2070   46.0110 O.2    84  CYS84      -0.2864
     81  CB        -3.9750   28.6360   43.3500 C.3    84  CYS84       0.0983
     82  SG        -2.5920   27.8310   44.1690 S.3    84  CYS84      -0.0798
     83  N         -8.3910   28.6700   46.7160 N.3    86  ARG86      -0.1231
     84  CA        -9.5770   27.8550   46.9740 C.3    86  ARG86       0.1694
     85  C         -9.1940   26.3900   47.1950 C.2    86  ARG86       0.2592
     86  O         -9.6380   25.7500   48.1460 O.2    86  ARG86      -0.2718
     87  CB       -10.5430   27.9410   45.7920 C.3    86  ARG86       0.0321
     88  CG       -11.7630   27.0370   45.9100 C.3    86  ARG86       0.0489
     89  CD       -12.3580   26.7540   44.5210 C.3    86  ARG86       0.2205
     90  NE       -11.4790   25.8800   43.7410 N.pl3  86  ARG86      -0.0865
     91  CZ       -11.7260   25.4430   42.5070 C.cat  86  ARG86       0.5346
     92  NH1      -12.8310   25.8120   41.8730 N.pl3  86  ARG86       0.1354
     93  NH2      -10.8620   24.6190   41.9080 N.pl3  86  ARG86       0.1354
     94  N         -8.3810   25.8550   46.2950 N.am   87  ASP87      -0.1960
     95  CA        -7.9560   24.4550   46.3940 C.3    87  ASP87       0.1840
     96  C         -7.2380   24.2460   47.7210 C.2    87  ASP87       0.2621
     97  O         -7.5140   23.2950   48.4610 O.2    87  ASP87      -0.2715
     98  CB        -7.0060   24.1080   45.2490 C.3    87  ASP87       0.1450
     99  CG        -7.7140   23.9870   43.9070 C.2    87  ASP87       0.3671
    100  OD1       -8.9500   24.2010   43.8500 O.co2  87  ASP87      -0.2456
    101  OD2       -7.0270   23.6790   42.9040 O.co2  87  ASP87      -0.2456
    102  N         -6.3170   25.1490   48.0300 N.am   88  ILE88      -0.1977
    103  CA        -5.5240   24.9760   49.2330 C.3    88  ILE88       0.1596
    104  C         -6.4540   25.0250   50.4440 C.2    88  ILE88       0.2287
    105  O         -6.3060   24.2480   51.3770 O.2    88  ILE88      -0.2864
    106  CB        -4.3660   25.9910   49.3080 C.3    88  ILE88       0.0276
    107  CG1       -3.3240   25.6670   48.2250 C.3    88  ILE88       0.0022
    108  CG2       -3.7120   25.9790   50.6910 C.3    88  ILE88       0.0022
    109  CD1       -2.2700   26.7710   48.0160 C.3    88  ILE88       0.0001
    110  N         -9.4810   24.0380   50.5030 N.3    90  TYR90      -0.1227
    111  CA       -10.1290   22.7200   50.5180 C.3    90  TYR90       0.1736
    112  C         -9.2830   21.6960   51.3000 C.2    90  TYR90       0.2595
    113  O         -9.8060   20.9660   52.1530 O.2    90  TYR90      -0.2718
    114  CB       -10.3570   22.2100   49.0870 C.3    90  TYR90       0.0548
    115  CG       -11.4640   22.8700   48.2800 C.ar   90  TYR90      -0.0200
    116  CD1      -12.4320   23.6710   48.8830 C.ar   90  TYR90      -0.0009
    117  CD2      -11.5520   22.6570   46.9010 C.ar   90  TYR90      -0.0009
    118  CE1      -13.4580   24.2670   48.1200 C.ar   90  TYR90       0.0417
    119  CE2      -12.5570   23.2180   46.1360 C.ar   90  TYR90       0.0417
    120  CZ       -13.5110   24.0240   46.7430 C.ar   90  TYR90       0.1957
    121  OH       -14.5080   24.5780   45.9630 O.3    90  TYR90      -0.2866
    122  N         -7.9820   21.6430   51.0080 N.am   91  TYR91      -0.1976
    123  CA        -7.0630   20.7660   51.7430 C.3    91  TYR91       0.1639
    124  C         -7.0990   21.0560   53.2440 C.2    91  TYR91       0.2290
    125  O         -7.2030   20.1400   54.0620 O.2    91  TYR91      -0.2864
    126  CB        -5.6300   20.8900   51.2180 C.3    91  TYR91       0.0560
    127  CG        -5.3360   20.0220   50.0070 C.ar   91  TYR91      -0.0198
    128  CD1       -4.8900   18.7150   50.1570 C.ar   91  TYR91      -0.0009
    129  CD2       -5.5110   20.5090   48.7220 C.ar   91  TYR91      -0.0009
    130  CE1       -4.6220   17.9100   49.0480 C.ar   91  TYR91       0.0417
    131  CE2       -5.2420   19.7180   47.6090 C.ar   91  TYR91       0.0417
    132  CZ        -4.7950   18.4150   47.7810 C.ar   91  TYR91       0.1957
    133  OH        -4.5370   17.6220   46.6780 O.3    91  TYR91      -0.2866
    134  N         -9.4740   22.5460   54.9290 N.3    93  ARG93      -0.1231
    135  CA       -10.7920   22.2440   55.4660 C.3    93  ARG93       0.1694
    136  C        -10.9380   20.7340   55.7000 C.2    93  ARG93       0.2591
    137  O        -11.4360   20.3120   56.7480 O.2    93  ARG93      -0.2718
    138  CB       -11.8990   22.7890   54.5530 C.3    93  ARG93       0.0321
    139  CG       -13.2980   22.5750   55.0980 C.3    93  ARG93       0.0489
    140  CD       -14.3100   23.6000   54.5420 C.3    93  ARG93       0.2205
    141  NE       -14.3230   23.6340   53.0870 N.pl3  93  ARG93      -0.0865
    142  CZ       -14.9450   22.7400   52.3280 C.cat  93  ARG93       0.5346
    143  NH1      -15.6050   21.7410   52.8970 N.pl3  93  ARG93       0.1354
    144  NH2      -14.8900   22.8300   51.0030 N.pl3  93  ARG93       0.1354
    145  N        -10.4880   19.9270   54.7400 N.am   94  MET94      -0.1979
    146  CA       -10.4620   18.4670   54.9130 C.3    94  MET94       0.1605
    147  C         -9.6170   18.0370   56.1070 C.2    94  MET94       0.2287
    148  O         -9.9720   17.0830   56.8190 O.2    94  MET94      -0.2864
    149  CB        -9.9400   17.7780   53.6500 C.3    94  MET94       0.0413
    150  CG       -10.7560   18.0910   52.4120 C.3    94  MET94       0.0598
    151  SD       -12.4720   17.6460   52.6500 S.3    94  MET94      -0.1393
    152  CE       -13.3190   18.9210   51.7310 C.3    94  MET94       0.0692
    153  N        -13.8690   13.0370   50.1170 N.3   110  TYR110     -0.1227
    154  CA       -14.1550   14.2990   49.4470 C.3   110  TYR110      0.1736
    155  C        -13.0290   14.8420   48.5510 C.2   110  TYR110      0.2595
    156  O        -13.2730   15.7030   47.6990 O.2   110  TYR110     -0.2718
    157  CB       -14.5230   15.3690   50.4790 C.3   110  TYR110      0.0548
    158  CG       -15.7090   15.0660   51.3900 C.ar  110  TYR110     -0.0200
    159  CD1      -16.7860   14.2850   50.9640 C.ar  110  TYR110     -0.0009
    160  CD2      -15.7490   15.5870   52.6860 C.ar  110  TYR110     -0.0009
    161  CE1      -17.8810   14.0310   51.8140 C.ar  110  TYR110      0.0417
    162  CE2      -16.8220   15.3350   53.5330 C.ar  110  TYR110      0.0417
    163  CZ       -17.8810   14.5610   53.0910 C.ar  110  TYR110      0.1957
    164  OH       -18.9330   14.3310   53.9480 O.3   110  TYR110     -0.2866
    165  N        -11.8030   14.3640   48.7480 N.am  111  LEU111     -0.1980
    166  CA       -10.6560   14.9450   48.0460 C.3   111  LEU111      0.1596
    167  C         -9.6810   13.9280   47.4270 C.2   111  LEU111      0.2287
    168  O         -9.3260   14.0360   46.2520 O.2   111  LEU111     -0.2864
    169  CB        -9.9080   15.9030   48.9790 C.3   111  LEU111      0.0297
    170  CG        -8.6930   16.6440   48.4140 C.3   111  LEU111      0.0022
    171  CD1       -8.4740   18.0000   49.1190 C.3   111  LEU111      0.0001
    172  CD2       -7.4240   15.7620   48.4700 C.3   111  LEU111      0.0001
    173  N         -8.4530   12.3270   42.9160 N.3   115  ILE115     -0.1245
    174  CA        -7.5550   13.4800   42.7770 C.3   115  ILE115      0.1561
    175  C         -6.5620   13.3130   41.6190 C.2   115  ILE115      0.2260
    176  O         -6.2990   14.2620   40.8940 O.2   115  ILE115     -0.2867
    177  CB        -6.8130   13.8120   44.0930 C.3   115  ILE115      0.0252
    178  CG1       -6.1400   15.1890   44.0060 C.3   115  ILE115      0.0019
    179  CG2       -5.7890   12.7380   44.4350 C.3   115  ILE115      0.0019
    180  CD1       -7.0910   16.3200   43.7700 C.3   115  ILE115      0.0001
    181  N         -8.1600   14.3290   38.4280 N.3   118  ILE118     -0.1231
    182  CA        -8.3500   15.7630   38.3470 C.3   118  ILE118      0.1692
    183  C         -7.0530   16.4630   37.9370 C.2   118  ILE118      0.2592
    184  O         -7.0600   17.2890   37.0290 O.2   118  ILE118     -0.2718
    185  CB        -8.8400   16.3370   39.6740 C.3   118  ILE118      0.0266
    186  CG1      -10.3350   16.0240   39.8620 C.3   118  ILE118      0.0019
    187  CG2       -8.6090   17.8480   39.7100 C.3   118  ILE118      0.0020
    188  CD1      -10.9050   16.5110   41.2060 C.3   118  ILE118      0.0001
    189  N         -5.9540   16.1250   38.6050 N.am  119  ASN119     -0.1974
    190  CA        -4.6610   16.7450   38.3210 C.3   119  ASN119      0.1688
    191  C         -4.1510   16.4500   36.9170 C.2   119  ASN119      0.2292
    192  O         -3.6150   17.3410   36.2620 O.2   119  ASN119     -0.2864
    193  CB        -3.6270   16.3590   39.3800 C.3   119  ASN119      0.1181
    194  CG        -3.9700   16.9400   40.7380 C.2   119  ASN119      0.2629
    195  OD1       -4.7310   17.9050   40.8210 O.2   119  ASN119     -0.2716
    196  ND2       -3.4330   16.3510   41.8050 N.am  119  ASN119     -0.0877
    197  N         -6.5580   18.4350   34.3230 N.3   122  PHE122     -0.1241
    198  CA        -6.4060   19.8840   34.3210 C.3   122  PHE122      0.1605
    199  C         -4.9540   20.3630   34.3560 C.2   122  PHE122      0.2264
    200  O         -4.7030   21.5590   34.4560 O.2   122  PHE122     -0.2867
    201  CB        -7.2280   20.5090   35.4520 C.3   122  PHE122      0.0534
    202  CG        -8.7170   20.4470   35.2150 C.ar  122  PHE122     -0.0203
    203  CD1       -9.3560   21.4390   34.4840 C.ar  122  PHE122     -0.0042
    204  CD2       -9.4730   19.3950   35.7080 C.ar  122  PHE122     -0.0042
    205  CE1      -10.7230   21.3900   34.2580 C.ar  122  PHE122     -0.0003
    206  CE2      -10.8420   19.3400   35.4890 C.ar  122  PHE122     -0.0003
    207  CZ       -11.4690   20.3370   34.7590 C.ar  122  PHE122     -0.0000
    208  N         -2.4900   20.0320   36.5620 N.3   124  LEU124     -0.1245
    209  CA        -2.1020   20.6130   37.8390 C.3   124  LEU124      0.1561
    210  C         -1.0670   19.6790   38.4400 C.2   124  LEU124      0.2260
    211  O         -1.2680   18.4700   38.4620 O.2   124  LEU124     -0.2867
    212  CB        -3.3240   20.6810   38.7580 C.3   124  LEU124      0.0270
    213  CG        -4.5880   21.3240   38.1880 C.3   124  LEU124      0.0019
    214  CD1       -5.7710   21.1370   39.1470 C.3   124  LEU124      0.0001
    215  CD2       -4.3420   22.8150   37.9330 C.3   124  LEU124      0.0001
    216  N          2.9390   21.1180   43.4840 N.3   128  TRP128     -0.1227
    217  CA         2.4380   22.4200   43.9410 C.3   128  TRP128      0.1737
    218  C          1.7330   22.2490   45.2880 C.2   128  TRP128      0.2595
    219  O          1.9590   23.0080   46.2370 O.2   128  TRP128     -0.2718
    220  CB         1.4400   22.9920   42.9290 C.3   128  TRP128      0.0564
    221  CG         1.9780   23.2300   41.5420 C.ar  128  TRP128      0.0003
    222  CD1        3.2940   23.2740   41.1540 C.ar  128  TRP128      0.0946
    223  CD2        1.2040   23.4650   40.3560 C.ar  128  TRP128      0.0152
    224  NE1        3.3770   23.5190   39.8040 N.ar  128  TRP128     -0.2442
    225  CE2        2.1090   23.6440   39.2940 C.ar  128  TRP128      0.0810
    226  CE3       -0.1660   23.5330   40.0920 C.ar  128  TRP128      0.0012
    227  CZ2        1.6890   23.8860   37.9930 C.ar  128  TRP128      0.0191
    228  CZ3       -0.5840   23.7880   38.7950 C.ar  128  TRP128      0.0001
    229  CH2        0.3410   23.9590   37.7650 C.ar  128  TRP128      0.0015
    230  N          0.8650   21.2420   45.3710 N.am  129  TYR129     -0.1976
    231  CA         0.0690   21.0380   46.5730 C.3   129  TYR129      0.1639
    232  C          0.8930   20.4970   47.7440 C.2   129  TYR129      0.2290
    233  O          0.6380   20.8420   48.8950 O.2   129  TYR129     -0.2864
    234  CB        -1.1440   20.1290   46.2680 C.3   129  TYR129      0.0560
    235  CG        -2.0820   20.7640   45.2590 C.ar  129  TYR129     -0.0198
    236  CD1       -3.0480   21.6740   45.6640 C.ar  129  TYR129     -0.0009
    237  CD2       -1.9660   20.4900   43.9020 C.ar  129  TYR129     -0.0009
    238  CE1       -3.8920   22.2750   44.7620 C.ar  129  TYR129      0.0417
    239  CE2       -2.8090   21.0940   42.9780 C.ar  129  TYR129      0.0417
    240  CZ        -3.7700   21.9870   43.4190 C.ar  129  TYR129      0.1957
    241  OH        -4.6260   22.5840   42.5310 O.3   129  TYR129     -0.2866
@<TRIPOS>BOND
     1    27    28    1
     2    31    28    1
     3    28    29    1
     4    38    37    2
     5    49    47   ar
     6    49    50   ar
     7    51    50    1
     8    47    45   ar
     9    37    39   am
    10    37    36    1
    11    50    48   ar
    12    32    29   am
    13    32    33    1
    14    29    30    2
    15    36    33    1
    16   205   203   ar
    17   205   207   ar
    18   198   197    1
    19   198   199    1
    20   198   201    1
    21   199   200    2
    22   203   202   ar
    23    45    44    1
    24    45    46   ar
    25    33    34    1
    26   207   206   ar
    27    48    46   ar
    28    44    41    1
    29   202   201    1
    30   202   204   ar
    31    40    34   am
    32    40    41    1
    33   206   204   ar
    34    34    35    2
    35    41    42    1
    36   192   191    2
    37    43    42    2
    38    62    61    1
    39   208   209    1
    40    63    61    1
    41    42    52   am
    42    61    58    1
    43   191   190    1
    44   184   183    2
    45    52    53    1
    46   229   227   ar
    47   229   228   ar
    48    23    22    2
    49    20    21    1
    50   209   210    1
    51   209   212    1
    52   215   213    1
    53   183   182    1
    54   183   189   am
    55   227   225   ar
    56    22    21    1
    57    21    24    1
    58    54    53    1
    59    54    55    2
    60    64    65    1
    61    64    59   am
    62   213   212    1
    63   213   214    1
    64    58    57    1
    65    58    59    1
    66   190   189    1
    67   190   193    1
    68   182   181    1
    69   182   185    1
    70   210   211    2
    71    65    66    1
    72    75    76    1
    73    75    74    1
    74    53    56    1
    75    59    60    2
    76   228   226   ar
    77    25    24    1
    78   225   224   ar
    79   225   223   ar
    80   193   194    1
    81    24    26    1
    82    73    74    1
    83    73    72    1
    84   185   187    1
    85   185   186    1
    86   224   222   ar
    87   186   188    1
    88    66    67    2
    89   226   223   ar
    90   223   221   ar
    91    72    69    1
    92   194   195    2
    93   194   196   am
    94   176   175    2
    95   222   221   ar
    96   221   220    1
    97   175   174    1
    98    92    91    1
    99    93    91    1
   100    69    68    1
   101    69    70    1
   102    91    90    2
   103   241   240    1
   104   174   173    1
   105   174   177    1
   106   101    99   ar
   107   220   217    1
   108   239   240   ar
   109   239   237   ar
   110    77    70   am
   111    77    78    1
   112    70    71    2
   113    11    10    2
   114    16    14   ar
   115    16    18   ar
   116    14    13   ar
   117    81    78    1
   118    81    82    1
   119   240   238   ar
   120   216   217    1
   121    90    89    1
   122    78    79    1
   123   180   178    1
   124   100    99   ar
   125     9    12    1
   126     9    10    1
   127     9     8    1
   128   237   235   ar
   129    99    98    1
   130    18    19    1
   131    18    17   ar
   132    13    12    1
   133    13    15   ar
   134   217   218    1
   135   178   177    1
   136   177   179    1
   137     4     3    2
   138     6     5    1
   139    89    88    1
   140    17    15   ar
   141   238   236   ar
   142     8     3   am
   143     3     2    1
   144    98    95    1
   145   235   236   ar
   146   235   234    1
   147    79    80    2
   148   218   230   am
   149   218   219    2
   150   230   231    1
   151     5     2    1
   152     5     7    1
   153    87    88    1
   154    87    84    1
   155   121   120    1
   156     2     1    1
   157   119   120   ar
   158   119   117   ar
   159   168   167    2
   160   234   231    1
   161    94    95    1
   162    94    85   am
   163    95    96    1
   164   231   232    1
   165   133   132    1
   166    83    84    1
   167   120   118   ar
   168   117   115   ar
   169    84    85    1
   170    85    86    2
   171   167   166    1
   172   131   132   ar
   173   131   129   ar
   174   156   155    2
   175    96   102   am
   176    96    97    2
   177   232   233    2
   178   132   130   ar
   179   109   107    1
   180   102   103    1
   181   166   165    1
   182   166   169    1
   183   118   116   ar
   184   107   106    1
   185   115   116   ar
   186   115   114    1
   187   170   172    1
   188   170   169    1
   189   170   171    1
   190   155   165   am
   191   155   154    1
   192   129   127   ar
   193   130   128   ar
   194   114   111    1
   195   103   106    1
   196   103   104    1
   197   106   108    1
   198   154   153    1
   199   154   157    1
   200   127   128   ar
   201   127   126    1
   202   104   105    2
   203   157   158    1
   204   110   111    1
   205   111   112    1
   206   159   158   ar
   207   159   161   ar
   208   144   142    1
   209   122   112   am
   210   122   123    1
   211   126   123    1
   212   112   113    2
   213   158   160   ar
   214   152   151    1
   215   123   124    1
   216   161   163   ar
   217   142   143    1
   218   142   141    2
   219   150   151    1
   220   150   149    1
   221   160   162   ar
   222   141   140    1
   223   163   162   ar
   224   163   164    1
   225   124   125    2
   226   149   146    1
   227   140   139    1
   228   138   139    1
   229   138   135    1
   230   145   146    1
   231   145   136   am
   232   146   147    1
   233   134   135    1
   234   135   136    1
   235   136   137    2
   236   147   148    2
