@<TRIPOS>MOLECULE
tmp/5tovB00.pdb
 170 165 0 0 0
SMALL
GASTEIGER

@<TRIPOS>ATOM
      1  N         40.7580   48.7930   24.8710 N.3   139  THR139     -0.1203
      2  CA        39.6130   49.4770   25.5240 C.3   139  THR139      0.1994
      3  C         38.9200   48.6370   26.5750 C.2   139  THR139      0.2619
      4  O         38.9390   47.3960   26.5180 O.2   139  THR139     -0.2717
      5  CB        38.5430   49.9380   24.5130 C.3   139  THR139      0.1784
      6  OG1       37.8170   48.8040   24.0090 O.3   139  THR139     -0.2211
      7  CG2       39.2210   50.6600   23.3310 C.3   139  THR139      0.0376
      8  N         38.2900   49.3140   27.5150 N.am  140  THR140     -0.1938
      9  CA        37.5440   48.6770   28.5750 C.3   140  THR140      0.2028
     10  C         36.3710   47.8640   28.0260 C.2   140  THR140      0.2642
     11  O         36.1040   46.7700   28.5020 O.2   140  THR140     -0.2714
     12  CB        37.0190   49.7580   29.5310 C.3   140  THR140      0.1808
     13  OG1       38.1880   50.3810   30.0840 O.3   140  THR140     -0.2208
     14  CG2       36.2140   49.2080   30.6020 C.3   140  THR140      0.0379
     15  N         35.6290   48.4410   27.0800 N.am  141  THR141     -0.1950
     16  CA        34.5360   47.7350   26.4490 C.3   141  THR141      0.1897
     17  C         35.0170   46.4210   25.7750 C.2   141  THR141      0.2313
     18  O         34.3530   45.3820   25.8910 O.2   141  THR141     -0.2863
     19  CB        33.8010   48.6570   25.4450 C.3   141  THR141      0.1794
     20  OG1       33.0020   49.5500   26.2150 O.3   141  THR141     -0.2208
     21  CG2       32.9050   47.8490   24.5060 C.3   141  THR141      0.0378
     22  N         28.0280   60.4050   33.7750 N.3   201  ALA201     -0.1231
     23  CA        27.6090   59.0650   34.1910 C.3   201  ALA201      0.1694
     24  C         28.7610   58.1140   34.0530 C.2   201  ALA201      0.2592
     25  O         29.1270   57.7300   32.9190 O.2   201  ALA201     -0.2718
     26  CB        26.4200   58.5860   33.3980 C.3   201  ALA201      0.0304
     27  N         29.3410   57.7340   35.1890 N.am  202  GLY202     -0.1957
     28  CA        30.4890   56.8070   35.2310 C.3   202  GLY202      0.1869
     29  C         31.7320   57.6340   35.5990 C.2   202  GLY202      0.2309
     30  O         32.0190   58.6750   34.9830 O.2   202  GLY202     -0.2863
     31  N         35.0790   56.2650   35.8680 N.3   204  GLY204     -0.1210
     32  CA        36.2990   55.5030   35.6220 C.3   204  GLY204      0.1956
     33  C         37.2950   56.4360   34.9720 C.2   204  GLY204      0.2612
     34  O         37.1620   57.6610   35.0660 O.2   204  GLY204     -0.2717
     35  N         38.2540   55.8500   34.2570 N.am  205  TRP205     -0.1962
     36  CA        39.3380   56.5950   33.5250 C.3   205  TRP205      0.1771
     37  C         38.7530   57.6860   32.6430 C.2   205  TRP205      0.2620
     38  O         39.1670   58.8490   32.6710 O.2   205  TRP205     -0.2715
     39  CB        40.1990   55.5730   32.7240 C.3   205  TRP205      0.0590
     40  CG        41.1190   55.9910   31.5190 C.ar  205  TRP205      0.0006
     41  CD1       40.9310   55.6440   30.1970 C.ar  205  TRP205      0.0946
     42  CD2       42.3860   56.6800   31.5600 C.ar  205  TRP205      0.0152
     43  NE1       41.9560   56.1140   29.4260 N.ar  205  TRP205     -0.2442
     44  CE2       42.8620   56.7570   30.2260 C.ar  205  TRP205      0.0810
     45  CE3       43.1410   57.2690   32.5810 C.ar  205  TRP205      0.0012
     46  CZ2       44.0570   57.4080   29.8860 C.ar  205  TRP205      0.0191
     47  CZ3       44.3410   57.9050   32.2500 C.ar  205  TRP205      0.0001
     48  CH2       44.7860   57.9710   30.9080 C.ar  205  TRP205      0.0015
     49  N         37.7580   57.3120   31.8550 N.am  206  CYS206     -0.1954
     50  CA        37.1310   58.2240   30.9360 C.3   206  CYS206      0.1843
     51  C         36.3080   59.3030   31.6330 C.2   206  CYS206      0.2626
     52  O         36.4870   60.5110   31.3920 O.2   206  CYS206     -0.2714
     53  CB        36.2570   57.3710   30.0490 C.3   206  CYS206      0.0997
     54  SG        35.4750   58.2830   28.7920 S.3   206  CYS206     -0.0797
     55  N         35.3690   58.8670   32.4810 N.am  207  GLY207     -0.1954
     56  CA        34.4850   59.7980   33.1370 C.3   207  GLY207      0.1869
     57  C         35.1670   60.8100   34.0590 C.2   207  GLY207      0.2309
     58  O         34.7930   61.9840   34.0950 O.2   207  GLY207     -0.2863
     59  N         27.2910   60.5130   38.4070 N.3   224  THR224     -0.1203
     60  CA        26.4890   59.3280   38.7320 C.3   224  THR224      0.1994
     61  C         27.3460   58.0700   38.6700 C.2   224  THR224      0.2618
     62  O         28.2880   57.9790   37.8800 O.2   224  THR224     -0.2717
     63  CB        25.1920   59.1750   37.8910 C.3   224  THR224      0.1784
     64  OG1       25.4680   58.6640   36.5760 O.3   224  THR224     -0.2211
     65  CG2       24.4260   60.4670   37.8190 C.3   224  THR224      0.0376
     66  N         27.0020   57.0800   39.4800 N.am  225  GLU225     -0.1965
     67  CA        27.7670   55.8350   39.5690 C.3   225  GLU225      0.1733
     68  C         26.9170   54.6960   40.0910 C.2   225  GLU225      0.2616
     69  O         25.8580   54.9030   40.7100 O.2   225  GLU225     -0.2715
     70  CB        28.9880   56.0000   40.5080 C.3   225  GLU225      0.0429
     71  CG        30.3660   56.1370   39.8280 C.3   225  GLU225      0.1163
     72  CD        30.8570   54.8940   39.0820 C.2   225  GLU225      0.3649
     73  OE1       30.3170   53.7670   39.2640 O.co2 225  GLU225     -0.2457
     74  OE2       31.8030   55.0460   38.2730 O.co2 225  GLU225     -0.2457
     75  N         27.3880   53.4930   39.8320 N.am  226  VAL226     -0.1963
     76  CA        26.9100   52.2970   40.4740 C.3   226  VAL226      0.1727
     77  C         27.9370   51.6590   41.4060 C.2   226  VAL226      0.2616
     78  O         27.6030   50.7010   42.1090 O.2   226  VAL226     -0.2715
     79  CB        26.3990   51.2520   39.4440 C.3   226  VAL226      0.0290
     80  CG1       25.2690   51.8380   38.6490 C.3   226  VAL226      0.0023
     81  CG2       27.5310   50.7660   38.5160 C.3   226  VAL226      0.0023
     82  N         29.1960   52.1220   41.3830 N.am  227  ASP227     -0.1971
     83  CA        30.2560   51.4930   42.2050 C.3   227  ASP227      0.1709
     84  C         30.5470   52.4100   43.3980 C.2   227  ASP227      0.2293
     85  O         30.9960   53.5260   43.2070 O.2   227  ASP227     -0.2864
     86  CB        31.5330   51.3280   41.3810 C.3   227  ASP227      0.1436
     87  CG        32.6560   50.6180   42.1510 C.2   227  ASP227      0.3671
     88  OD1       32.5790   50.4820   43.3800 O.co2 227  ASP227     -0.2456
     89  OD2       33.6210   50.1460   41.4970 O.co2 227  ASP227     -0.2456
     90  N         34.0100   54.2420   43.4790 N.3   230  LYS230     -0.1245
     91  CA        34.1310   55.2960   42.4850 C.3   230  LYS230      0.1561
     92  C         33.3530   56.5470   42.8890 C.2   230  LYS230      0.2260
     93  O         33.7840   57.6980   42.6470 O.2   230  LYS230     -0.2867
     94  CB        33.6310   54.7850   41.1240 C.3   230  LYS230      0.0271
     95  CG        34.5380   53.7580   40.4680 C.3   230  LYS230      0.0035
     96  CD        35.8760   54.4060   40.2260 C.3   230  LYS230      0.0206
     97  CE        36.7160   53.6230   39.2340 C.3   230  LYS230      0.1093
     98  NZ        38.0830   54.2080   39.2230 N.3   230  LYS230     -0.1314
     99  N         29.7210   58.0040   30.2430 N.3   257  ALA257     -0.1231
    100  CA        31.0720   57.4730   30.1450 C.3   257  ALA257      0.1694
    101  C         31.1700   56.1510   30.8780 C.2   257  ALA257      0.2593
    102  O         32.1650   55.8680   31.5750 O.2   257  ALA257     -0.2718
    103  CB        32.0540   58.5110   30.7020 C.3   257  ALA257      0.0304
    104  N         30.1760   55.2740   30.6510 N.am  258  SER258     -0.1938
    105  CA        30.0140   54.0550   31.5020 C.3   258  SER258      0.2055
    106  C         30.4230   52.7240   30.8900 C.2   258  SER258      0.2644
    107  O         30.7140   51.8060   31.6200 O.2   258  SER258     -0.2714
    108  CB        28.5640   53.9530   32.0050 C.3   258  SER258      0.2130
    109  OG        27.6590   53.6290   30.9560 O.3   258  SER258     -0.2179
    110  N         30.3930   52.5950   29.5700 N.am  259  GLY259     -0.1939
    111  CA        30.5110   51.2840   28.9300 C.3   259  GLY259      0.2014
    112  C         29.2620   50.4010   29.0980 C.2   259  GLY259      0.2639
    113  O         29.3040   49.2190   28.7970 O.2   259  GLY259     -0.2714
    114  N         28.1450   50.9960   29.5460 N.am  260  ASN260     -0.1958
    115  CA        26.9130   50.2410   29.8690 C.3   260  ASN260      0.1819
    116  C         25.8380   50.6060   28.8900 C.2   260  ASN260      0.2622
    117  O         26.0410   51.4250   28.0060 O.2   260  ASN260     -0.2715
    118  CB        26.4630   50.5710   31.3160 C.3   260  ASN260      0.1195
    119  CG        25.7310   49.4300   31.9970 C.2   260  ASN260      0.2630
    120  OD1       25.1190   48.5670   31.3470 O.2   260  ASN260     -0.2716
    121  ND2       25.8200   49.3980   33.3350 N.am  260  ASN260     -0.0877
    122  N         24.6880   49.9660   29.0030 N.am  261  THR261     -0.1937
    123  CA        23.5420   50.2690   28.1620 C.3   261  THR261      0.2028
    124  C         22.4840   51.0750   28.9610 C.2   261  THR261      0.2642
    125  O         22.3500   50.8820   30.1510 O.2   261  THR261     -0.2714
    126  CB        22.9650   48.9860   27.5740 C.3   261  THR261      0.1808
    127  OG1       22.0000   49.3250   26.5830 O.3   261  THR261     -0.2208
    128  CG2       22.3650   48.0510   28.6460 C.3   261  THR261      0.0379
    129  N         21.7960   51.9920   28.3080 N.am  262  ASP262     -0.1957
    130  CA        20.5630   52.5900   28.8400 C.3   262  ASP262      0.1840
    131  C         20.8540   53.2950   30.1490 C.2   262  ASP262      0.2621
    132  O         20.2690   52.9830   31.1720 O.2   262  ASP262     -0.2715
    133  CB        19.4680   51.5210   29.0540 C.3   262  ASP262      0.1450
    134  CG        18.9300   50.9840   27.7430 C.2   262  ASP262      0.3671
    135  OD1       18.1640   51.7060   27.0700 O.co2 262  ASP262     -0.2456
    136  OD2       19.2800   49.8340   27.3900 O.co2 262  ASP262     -0.2456
    137  N         21.8380   54.1750   30.1080 N.am  263  VAL263     -0.1977
    138  CA        22.2050   54.9250   31.2610 C.3   263  VAL263      0.1596
    139  C         21.1620   56.0440   31.5610 C.2   263  VAL263      0.2287
    140  O         21.1250   56.5820   32.6780 O.2   263  VAL263     -0.2864
    141  CB        23.6400   55.4640   31.0730 C.3   263  VAL263      0.0276
    142  CG1       24.0460   56.3120   32.2410 C.3   263  VAL263      0.0022
    143  CG2       24.5880   54.2700   30.9650 C.3   263  VAL263      0.0022
    144  N         30.4860   59.4760   25.5180 N.3   281  ALA281     -0.1231
    145  CA        31.9340   59.2260   25.3990 C.3   281  ALA281      0.1694
    146  C         32.2970   57.7720   25.5040 C.2   281  ALA281      0.2593
    147  O         33.4710   57.4410   25.3650 O.2   281  ALA281     -0.2718
    148  CB        32.6990   60.0210   26.4360 C.3   281  ALA281      0.0304
    149  N         31.3190   56.8950   25.7120 N.am  282  GLY282     -0.1942
    150  CA        31.5650   55.4500   25.7260 C.3   282  GLY282      0.2014
    151  C         31.6750   54.8690   24.3470 C.2   282  GLY282      0.2638
    152  O         31.3580   55.5310   23.3370 O.2   282  GLY282     -0.2714
    153  N         32.0720   53.6070   24.2860 N.am  283  HIS283     -0.1973
    154  CA        32.4400   52.9680   23.0360 C.3   283  HIS283      0.1656
    155  C         31.3050   52.7680   22.0300 C.2   283  HIS283      0.2291
    156  O         31.5230   52.8820   20.8000 O.2   283  HIS283     -0.2864
    157  CB        33.1270   51.6170   23.2920 C.3   283  HIS283      0.0771
    158  CG        33.6710   51.0010   22.0480 C.ar  283  HIS283      0.0820
    159  ND1       34.7580   51.5250   21.3830 N.ar  283  HIS283     -0.2267
    160  CD2       33.2240   49.9730   21.2950 C.ar  283  HIS283      0.1154
    161  CE1       34.9780   50.8210   20.2900 C.ar  283  HIS283      0.1986
    162  NE2       34.0610   49.8730   20.2110 N.ar  283  HIS283     -0.2212
    163  N         30.2400   58.0080   20.0760 N.3   326  LEU326     -0.1245
    164  CA        31.4210   58.5760   20.7040 C.3   326  LEU326      0.1561
    165  C         31.7650   59.9740   20.1010 C.2   326  LEU326      0.2260
    166  O         31.9010   60.1470   18.8770 O.2   326  LEU326     -0.2867
    167  CB        32.5070   57.5230   20.5470 C.3   326  LEU326      0.0270
    168  CG        33.7970   57.5360   21.2950 C.3   326  LEU326      0.0019
    169  CD1       34.3480   56.1270   21.2860 C.3   326  LEU326      0.0001
    170  CD2       34.7660   58.4470   20.5800 C.3   326  LEU326      0.0001
@<TRIPOS>BOND
     1   166   165    2
     2   163   164    1
     3   165   164    1
     4   162   161   ar
     5   162   160   ar
     6   161   159   ar
     7   167   164    1
     8   167   168    1
     9   170   168    1
    10   156   155    2
    11   169   168    1
    12   160   158   ar
    13   159   158   ar
    14   155   154    1
    15   158   157    1
    16   154   157    1
    17   154   153    1
    18     7     5    1
    19   152   151    2
    20     6     5    1
    21   153   151   am
    22   151   150    1
    23    21    19    1
    24     5     2    1
    25     1     2    1
    26   147   146    2
    27   145   146    1
    28   145   144    1
    29   145   148    1
    30    19    20    1
    31    19    16    1
    32   146   149   am
    33     2     3    1
    34   149   150    1
    35    17    18    2
    36    17    16    1
    37    16    15    1
    38     4     3    2
    39     3     8   am
    40   127   126    1
    41   135   134   ar
    42    15    10   am
    43   136   134   ar
    44     8     9    1
    45   126   123    1
    46   126   128    1
    47   134   133    1
    48   117   116    2
    49    10    11    2
    50    10     9    1
    51   123   124    1
    52   123   122    1
    53   129   130    1
    54   129   124   am
    55     9    12    1
    56    54    53    1
    57   113   112    2
    58   130   133    1
    59   130   131    1
    60   116   122   am
    61   116   115    1
    62   111   112    1
    63   111   110    1
    64   124   125    2
    65   112   114   am
    66    43    41   ar
    67    43    44   ar
    68    12    13    1
    69    12    14    1
    70   114   115    1
    71   110   106   am
    72   115   118    1
    73    46    44   ar
    74    46    48   ar
    75    53    50    1
    76   137   131   am
    77   137   138    1
    78   100    99    1
    79   100   103    1
    80   100   101    1
    81   131   132    2
    82    41    40   ar
    83    44    42   ar
    84   104   101   am
    85   104   105    1
    86   101   102    2
    87   106   105    1
    88   106   107    2
    89    48    47   ar
    90    50    51    1
    91    50    49    1
    92   109   108    1
    93   143   141    1
    94   141   138    1
    95   141   142    1
    96   138   139    1
    97   118   119    1
    98   120   119    2
    99    52    51    2
   100   105   108    1
   101    40    42   ar
   102    40    39    1
   103    42    45   ar
   104   139   140    2
   105    51    55   am
   106    49    37   am
   107   119   121   am
   108    47    45   ar
   109    55    56    1
   110    37    38    2
   111    37    36    1
   112    39    36    1
   113    25    24    2
   114    56    57    1
   115    26    23    1
   116    36    35    1
   117    22    23    1
   118    24    23    1
   119    24    27   am
   120    57    58    2
   121    35    33   am
   122    33    34    2
   123    33    32    1
   124    30    29    2
   125    27    28    1
   126    28    29    1
   127    32    31    1
   128    64    63    1
   129    65    63    1
   130    62    61    2
   131    63    60    1
   132    74    72   ar
   133    59    60    1
   134    81    79    1
   135    80    79    1
   136    61    60    1
   137    61    66   am
   138    72    73   ar
   139    72    71    1
   140    98    97    1
   141    97    96    1
   142    79    76    1
   143    66    67    1
   144    67    68    1
   145    67    70    1
   146    71    70    1
   147    75    68   am
   148    75    76    1
   149    68    69    2
   150    96    95    1
   151    95    94    1
   152    76    77    1
   153    94    91    1
   154    86    87    1
   155    86    83    1
   156    82    77   am
   157    82    83    1
   158    77    78    2
   159    89    87   ar
   160    87    88   ar
   161    83    84    1
   162    91    92    1
   163    91    90    1
   164    93    92    2
   165    85    84    2
