@<TRIPOS>MOLECULE
tmp/5toyB00.pdb
 147 140 0 0 0
SMALL
GASTEIGER

@<TRIPOS>ATOM
      1  N        -31.0940   32.9050    7.7430 N.3    43  SER43      -0.1217
      2  CA       -31.4700   32.9960    9.1540 C.3    43  SER43       0.1889
      3  C        -32.9080   32.6060    9.4710 C.2    43  SER43       0.2288
      4  O        -33.2910   32.5460   10.6500 O.2    43  SER43      -0.2866
      5  CB       -31.1910   34.3840    9.6900 C.3    43  SER43       0.2089
      6  OG       -29.7870   34.5380    9.7910 O.3    43  SER43      -0.2183
      7  N        -33.2590   29.9320   12.1530 N.3    46  LYS46      -0.1245
      8  CA       -33.2640   30.2080   13.5940 C.3    46  LYS46       0.1561
      9  C        -34.5690   29.8060   14.2320 C.2    46  LYS46       0.2260
     10  O        -34.5930   29.4830   15.4280 O.2    46  LYS46      -0.2867
     11  CB       -32.9540   31.6840   13.8330 C.3    46  LYS46       0.0271
     12  CG       -31.5480   32.0080   13.3580 C.3    46  LYS46       0.0035
     13  CD       -31.1500   33.4670   13.4610 C.3    46  LYS46       0.0206
     14  CE       -29.7180   33.6720   13.0060 C.3    46  LYS46       0.1093
     15  NZ       -29.4150   35.0910   12.8180 N.3    46  LYS46      -0.1314
     16  N        -20.1090   37.5380   12.7630 N.3    77  ASN77      -0.1225
     17  CA       -20.2100   38.7000   11.8820 C.3    77  ASN77       0.1785
     18  C        -21.3210   39.6610   12.2410 C.2    77  ASN77       0.2597
     19  O        -21.4540   40.6880   11.5750 O.2    77  ASN77      -0.2718
     20  CB       -20.3910   38.2890   10.4330 C.3    77  ASN77       0.1169
     21  CG       -21.7080   37.5770   10.2100 C.2    77  ASN77       0.2627
     22  OD1      -22.0880   36.7150   11.0090 O.2    77  ASN77      -0.2716
     23  ND2      -22.4460   37.9910    9.2010 N.am   77  ASN77      -0.0877
     24  N        -22.2610   39.2500   13.0830 N.am   78  TYR78      -0.1976
     25  CA       -23.4910   40.0230   13.3010 C.3    78  TYR78       0.1639
     26  C        -24.0340   39.5910   14.6590 C.2    78  TYR78       0.2290
     27  O        -24.6510   38.5250   14.8020 O.2    78  TYR78      -0.2864
     28  CB       -24.5450   39.7480   12.2140 C.3    78  TYR78       0.0560
     29  CG       -25.7180   40.7070   12.3010 C.ar   78  TYR78      -0.0198
     30  CD1      -26.9630   40.3170   12.7940 C.ar   78  TYR78      -0.0009
     31  CD2      -25.5600   42.0280   11.9290 C.ar   78  TYR78      -0.0009
     32  CE1      -28.0060   41.2170   12.8930 C.ar   78  TYR78       0.0417
     33  CE2      -26.5910   42.9180   12.0410 C.ar   78  TYR78       0.0417
     34  CZ       -27.8170   42.5080   12.4970 C.ar   78  TYR78       0.1957
     35  OH       -28.8180   43.4470   12.5580 O.3    78  TYR78      -0.2866
     36  N        -31.9650   38.5640   15.0740 N.3   103  SER103     -0.1217
     37  CA       -31.1780   37.7820   14.1130 C.3   103  SER103      0.1889
     38  C        -29.6900   37.7360   14.5050 C.2   103  SER103      0.2288
     39  O        -28.8130   37.7190   13.6640 O.2   103  SER103     -0.2866
     40  CB       -31.3890   38.2080   12.6590 C.3   103  SER103      0.2089
     41  OG       -31.2600   37.0630   11.8160 O.3   103  SER103     -0.2183
     42  N        -26.3210   36.2420   15.2820 N.3   105  ASN105     -0.1240
     43  CA       -25.6790   34.9840   14.8490 C.3   105  ASN105      0.1653
     44  C        -24.8960   34.2970   15.9380 C.2   105  ASN105      0.2266
     45  O        -24.7660   33.0810   15.9180 O.2   105  ASN105     -0.2867
     46  CB       -24.7530   35.2340   13.6560 C.3   105  ASN105      0.1155
     47  CG       -25.5020   35.3370   12.3330 C.2   105  ASN105      0.2627
     48  OD1      -26.6620   34.9730   12.2350 O.2   105  ASN105     -0.2716
     49  ND2      -24.8470   35.8690   11.3200 N.am  105  ASN105     -0.0877
     50  N        -23.5950   29.6220   11.8790 N.3   139  ALA139     -0.1231
     51  CA       -23.5800   30.9660   11.3190 C.3   139  ALA139      0.1679
     52  C        -22.1840   31.5470   11.3890 C.2   139  ALA139      0.2434
     53  O        -21.5010   31.3570   12.3890 O.2   139  ALA139     -0.2733
     54  CB       -24.5500   31.8560   12.0910 C.3   139  ALA139      0.0304
     55  N        -21.7280   32.2210   10.3370 N.am  140  PRO140     -0.2718
     56  CA       -22.5450   32.7070    9.2370 C.3   140  PRO140      0.1535
     57  C        -22.4900   31.8200    8.0110 C.2   140  PRO140      0.2599
     58  O        -23.1000   32.1770    7.0050 O.2   140  PRO140     -0.2715
     59  CB       -21.8870   34.0510    8.8990 C.3   140  PRO140      0.0310
     60  CG       -20.4680   33.8100    9.1900 C.3   140  PRO140      0.0237
     61  CD       -20.4540   32.9530   10.4300 C.3   140  PRO140      0.0939
     62  N        -21.6860   30.7550    8.0230 N.am  141  THR141     -0.1937
     63  CA       -21.5200   30.0060    6.7780 C.3   141  THR141      0.2028
     64  C        -22.7840   29.3210    6.2860 C.2   141  THR141      0.2642
     65  O        -22.8970   29.0260    5.0960 O.2   141  THR141     -0.2714
     66  CB       -20.3460   29.0160    6.7820 C.3   141  THR141      0.1808
     67  OG1      -20.5450   28.0100    7.7620 O.3   141  THR141     -0.2208
     68  CG2      -18.9910   29.7370    6.9930 C.3   141  THR141      0.0379
     69  N        -23.7800   29.1510    7.1510 N.am  142  LEU142     -0.1963
     70  CA       -25.0380   28.5980    6.6790 C.3   142  LEU142      0.1728
     71  C        -25.7100   29.5240    5.6700 C.2   142  LEU142      0.2616
     72  O        -26.6540   29.0920    4.9960 O.2   142  LEU142     -0.2715
     73  CB       -25.9670   28.2350    7.8430 C.3   142  LEU142      0.0311
     74  CG       -26.5160   29.3600    8.7170 C.3   142  LEU142      0.0022
     75  CD1      -27.7310   30.0310    8.0860 C.3   142  LEU142      0.0001
     76  CD2      -26.8510   28.8670   10.1010 C.3   142  LEU142      0.0001
     77  N        -25.2120   30.7620    5.5440 N.am  143  ASN143     -0.1958
     78  CA       -25.8190   31.7650    4.6400 C.3   143  ASN143      0.1819
     79  C        -25.1120   31.9060    3.2920 C.2   143  ASN143      0.2621
     80  O        -25.3980   32.8420    2.5490 O.2   143  ASN143     -0.2715
     81  CB       -25.8220   33.1540    5.2990 C.3   143  ASN143      0.1195
     82  CG       -26.6050   33.2040    6.5970 C.2   143  ASN143      0.2630
     83  OD1      -27.8180   32.9960    6.6340 O.2   143  ASN143     -0.2716
     84  ND2      -25.9190   33.4610    7.6670 N.am  143  ASN143     -0.0877
     85  N        -24.2160   30.9900    2.9380 N.am  144  THR144     -0.1951
     86  CA       -23.5150   31.1200    1.6630 C.3   144  THR144      0.1897
     87  C        -24.4010   31.0450    0.4270 C.2   144  THR144      0.2313
     88  O        -24.1050   31.6680   -0.6060 O.2   144  THR144     -0.2863
     89  CB       -22.3970   30.0780    1.4970 C.3   144  THR144      0.1794
     90  OG1      -22.8930   28.7410    1.6850 O.3   144  THR144     -0.2208
     91  CG2      -21.2810   30.3470    2.4500 C.3   144  THR144      0.0378
     92  N        -37.0840   42.8130   12.7140 N.3   189  THR189     -0.1218
     93  CA       -36.4510   42.9060   11.3960 C.3   189  THR189      0.1862
     94  C        -37.3930   42.7890   10.2020 C.2   189  THR189      0.2287
     95  O        -36.9090   42.7730    9.0570 O.2   189  THR189     -0.2866
     96  CB       -35.3610   41.8490   11.2150 C.3   189  THR189      0.1770
     97  OG1      -35.9820   40.5630   11.1650 O.3   189  THR189     -0.2211
     98  CG2      -34.3740   41.8880   12.3400 C.3   189  THR189      0.0375
     99  N        -39.9370   35.5890   10.8000 N.3   207  LYS207     -0.1231
    100  CA       -38.4870   35.5900   10.8590 C.3   207  LYS207      0.1693
    101  C        -37.9330   35.7880    9.4680 C.2   207  LYS207      0.2593
    102  O        -38.2510   35.0330    8.5500 O.2   207  LYS207     -0.2718
    103  CB       -37.9320   34.2830   11.4270 C.3   207  LYS207      0.0285
    104  CG       -36.4120   34.2160   11.5010 C.3   207  LYS207      0.0035
    105  CD       -35.8560   35.1000   12.6000 C.3   207  LYS207      0.0206
    106  CE       -34.3350   35.3070   12.5010 C.3   207  LYS207      0.1093
    107  NZ       -34.0220   36.3740   11.5190 N.3   207  LYS207     -0.1314
    108  N        -37.0490   36.7710    9.3150 N.am  208  THR208     -0.1939
    109  CA       -36.4070   37.0930    8.0310 C.3   208  THR208      0.2028
    110  C        -35.1180   36.2920    7.8880 C.2   208  THR208      0.2643
    111  O        -34.6140   35.6930    8.8450 O.2   208  THR208     -0.2714
    112  CB       -36.0710   38.5880    7.9510 C.3   208  THR208      0.1808
    113  OG1      -35.3300   38.9420    9.1300 O.3   208  THR208     -0.2208
    114  CG2      -37.3320   39.4110    7.8910 C.3   208  THR208      0.0379
    115  N        -34.5510   36.3380    6.6970 N.am  209  GLY209     -0.1939
    116  CA       -33.1900   35.8530    6.4970 C.3   209  GLY209      0.2014
    117  C        -32.5540   36.4850    5.2830 C.2   209  GLY209      0.2640
    118  O        -33.2580   36.8980    4.3520 O.2   209  GLY209     -0.2714
    119  N        -31.2210   36.6050    5.3370 N.am  210  SER210     -0.1935
    120  CA       -30.4200   37.1870    4.2500 C.3   210  SER210      0.2055
    121  C        -29.1680   36.3330    4.0420 C.2   210  SER210      0.2644
    122  O        -28.7160   35.6620    4.9650 O.2   210  SER210     -0.2714
    123  CB       -29.9970   38.6300    4.5960 C.3   210  SER210      0.2130
    124  OG       -28.9380   38.6360    5.5350 O.3   210  SER210     -0.2179
    125  N        -28.6080   36.3750    2.8340 N.am  211  GLY211     -0.1939
    126  CA       -27.3330   35.7560    2.5920 C.3   211  GLY211      0.2014
    127  C        -26.7650   36.2180    1.2820 C.2   211  GLY211      0.2638
    128  O        -27.2930   37.1290    0.6430 O.2   211  GLY211     -0.2714
    129  N        -25.7550   35.4600    0.8800 N.am  212  ASP212     -0.1971
    130  CA       -25.1480   35.7360   -0.4250 C.3   212  ASP212      0.1709
    131  C        -26.1340   35.4110   -1.5400 C.2   212  ASP212      0.2293
    132  O        -27.2060   34.8800   -1.3040 O.2   212  ASP212     -0.2864
    133  CB       -23.8570   34.9320   -0.6130 C.3   212  ASP212      0.1436
    134  CG       -22.5890   35.7680   -0.4570 C.2   212  ASP212      0.3671
    135  OD1      -22.6620   36.9850   -0.1870 O.co2 212  ASP212     -0.2456
    136  OD2      -21.4900   35.1690   -0.5760 O.co2 212  ASP212     -0.2456
    137  N        -36.1050   42.9380   -0.4170 N.3   247  ARG247     -0.1245
    138  CA       -37.2240   42.7370    0.4840 C.3   247  ARG247      0.1563
    139  C        -38.5380   43.1270   -0.1630 C.2   247  ARG247      0.2260
    140  O        -39.5880   42.5620    0.1480 O.2   247  ARG247     -0.2867
    141  CB       -37.0160   43.4830    1.7950 C.3   247  ARG247      0.0307
    142  CG       -35.8950   42.8890    2.6160 C.3   247  ARG247      0.0489
    143  CD       -35.6880   43.6230    3.9350 C.3   247  ARG247      0.2205
    144  NE       -34.5170   43.0970    4.6150 N.pl3 247  ARG247     -0.0865
    145  CZ       -33.2610   43.4560    4.3450 C.cat 247  ARG247      0.5346
    146  NH1      -32.9970   44.4840    3.5350 N.pl3 247  ARG247      0.1354
    147  NH2      -32.2660   42.8280    4.9390 N.pl3 247  ARG247      0.1354
@<TRIPOS>BOND
     1   131   132    2
     2   131   130    1
     3   133   134    1
     4   133   130    1
     5    88    87    2
     6   136   134   ar
     7   134   135   ar
     8   130   129    1
     9   137   138    1
    10   139   140    2
    11   139   138    1
    12    87    86    1
    13   138   141    1
    14   128   127    2
    15   129   127   am
    16   127   126    1
    17    89    86    1
    18    89    90    1
    19    89    91    1
    20    86    85    1
    21   141   142    1
    22    80    79    2
    23   126   125    1
    24   142   143    1
    25   125   121   am
    26    85    79   am
    27    79    78    1
    28   146   145    1
    29   143   144    1
    30   121   120    1
    31   121   122    2
    32   120   123    1
    33   120   119    1
    34   145   144    2
    35   145   147    1
    36   118   117    2
    37   123   124    1
    38    78    81    1
    39    78    77    1
    40    72    71    2
    41    65    64    2
    42   117   119   am
    43   117   116    1
    44    81    82    1
    45    77    71   am
    46    71    70    1
    47    64    63    1
    48    64    69   am
    49   116   115    1
    50    82    83    2
    51    82    84   am
    52    70    69    1
    53    70    73    1
    54   115   110   am
    55    63    66    1
    56    63    62    1
    57    66    68    1
    58    66    67    1
    59    58    57    2
    60     1     2    1
    61    73    74    1
    62   110   109    1
    63   110   111    2
    64   114   112    1
    65   112   109    1
    66   112   113    1
    67    57    62   am
    68    57    56    1
    69   109   108    1
    70    75    74    1
    71   102   101    2
    72    74    76    1
    73    59    60    1
    74    59    56    1
    75    95    94    2
    76     2     3    1
    77     2     5    1
    78    60    61    1
    79    23    21   am
    80    56    55    1
    81   108   101   am
    82   101   100    1
    83     3     4    2
    84     5     6    1
    85    94    93    1
    86    21    20    1
    87    21    22    2
    88    55    61    1
    89    55    52   am
    90    20    17    1
    91    99   100    1
    92   100   103    1
    93    97    96    1
    94    96    93    1
    95    96    98    1
    96    51    52    1
    97    51    50    1
    98    51    54    1
    99    49    47   am
   100    52    53    2
   101    93    92    1
   102   103   104    1
   103   104   105    1
   104   107   106    1
   105    19    18    2
   106    41    40    1
   107    17    18    1
   108    17    16    1
   109    31    33   ar
   110    31    29   ar
   111    33    34   ar
   112     7     8    1
   113    28    29    1
   114    28    25    1
   115    48    47    2
   116    18    24   am
   117    29    30   ar
   118    47    46    1
   119    34    35    1
   120    34    32   ar
   121   106   105    1
   122    40    37    1
   123    30    32   ar
   124    15    14    1
   125    14    13    1
   126    24    25    1
   127    25    26    1
   128    12    13    1
   129    12    11    1
   130     8    11    1
   131     8     9    1
   132    46    43    1
   133    39    38    2
   134    37    38    1
   135    37    36    1
   136     9    10    2
   137    26    27    2
   138    43    42    1
   139    43    44    1
   140    45    44    2
