@<TRIPOS>MOLECULE
tmp/5tozA00.pdb
 146 137 0 0 0
SMALL
GASTEIGER

@<TRIPOS>ATOM
      1  N         -2.7400   19.3590    1.2620 N.3    14  LEU14      -0.1231
      2  CA        -1.9670   19.4220    0.0070 C.3    14  LEU14       0.1696
      3  C         -2.8950   19.9040   -1.0970 C.2    14  LEU14       0.2632
      4  O         -2.4980   20.7310   -1.9080 O.2    14  LEU14      -0.2714
      5  CB        -1.2920   18.0940   -0.3730 C.3    14  LEU14       0.0284
      6  CG        -0.1860   17.6220    0.5660 C.3    14  LEU14       0.0019
      7  CD1        0.2050   16.1960    0.2650 C.3    14  LEU14       0.0001
      8  CD2        1.0220   18.5540    0.5250 C.3    14  LEU14       0.0001
      9  N         -4.1380   19.4310   -1.0680 N.am   15  GLY15      -0.1718
     10  CA        -5.1450   19.8110   -2.0450 C.2    15  GLY15       0.1480
     11  C         -6.5630   19.4190   -1.7060 C.2    15  GLY15       0.2820
     12  O         -6.8190   18.6690   -0.7560 O.2    15  GLY15      -0.2669
     13  N         -7.4900   19.9780   -2.4890 N.am   16  LYS16      -0.1943
     14  CA        -8.9350   19.7460   -2.4600 C.3    16  LYS16       0.1599
     15  C         -9.3230   19.6150   -3.9430 C.2    16  LYS16       0.2287
     16  O         -8.8180   20.3730   -4.7820 O.2    16  LYS16      -0.2864
     17  CB        -9.6760   20.9080   -1.7410 C.3    16  LYS16       0.0298
     18  CG       -11.2090   20.9600   -1.9000 C.3    16  LYS16       0.0038
     19  CD       -12.0030   19.8000   -1.2400 C.3    16  LYS16       0.0206
     20  CE       -13.2670   19.5090   -2.0320 C.3    16  LYS16       0.1093
     21  NZ       -14.0170   18.2800   -1.5810 N.3    16  LYS16      -0.1314
     22  N         -6.6090   15.7940   -0.2540 N.3    22  VAL22      -0.1245
     23  CA        -5.3300   15.1170   -0.0810 C.3    22  VAL22       0.1561
     24  C         -4.5930   15.8870    1.0200 C.2    22  VAL22       0.2260
     25  O         -4.4740   17.1110    0.9520 O.2    22  VAL22      -0.2867
     26  CB        -4.4960   15.0290   -1.3830 C.3    22  VAL22       0.0252
     27  CG1       -3.2740   14.1380   -1.1720 C.3    22  VAL22       0.0019
     28  CG2       -5.3450   14.5040   -2.5450 C.3    22  VAL22       0.0019
     29  N          1.1350   11.0120    1.5830 N.3    39  ALA39      -0.1245
     30  CA         0.0400   11.8390    1.0510 C.3    39  ALA39       0.1562
     31  C         -1.2220   10.9550    1.2040 C.2    39  ALA39       0.2260
     32  O         -1.2300    9.7730    0.8120 O.2    39  ALA39      -0.2867
     33  CB         0.2900   12.1830   -0.4100 C.3    39  ALA39       0.0290
     34  N          2.2460    7.5700   -9.7160 N.3    70  VAL70      -0.1245
     35  CA         2.3710    7.7500   -8.2570 C.3    70  VAL70       0.1561
     36  C          2.1570    6.4050   -7.5360 C.2    70  VAL70       0.2260
     37  O          1.2390    5.6550   -7.8850 O.2    70  VAL70      -0.2867
     38  CB         1.4920    8.9200   -7.6830 C.3    70  VAL70       0.0252
     39  CG1        0.0020    8.5970   -7.7430 C.3    70  VAL70       0.0019
     40  CG2        1.8980    9.2760   -6.2440 C.3    70  VAL70       0.0019
     41  N         -0.6070    7.1910   -0.1070 N.3    84  MET84      -0.1230
     42  CA         0.2940    7.2320   -1.2660 C.3    84  MET84       0.1702
     43  C          1.6300    7.8160   -0.8650 C.2    84  MET84       0.2592
     44  O          1.7190    8.4850    0.1650 O.2    84  MET84      -0.2718
     45  CB        -0.3160    8.1080   -2.4080 C.3    84  MET84       0.0401
     46  CG        -1.6650    7.6210   -2.9150 C.3    84  MET84       0.0596
     47  SD        -2.5190    8.7950   -4.0210 S.3    84  MET84      -0.1393
     48  CE        -3.1930    9.8970   -2.8200 C.3    84  MET84       0.0692
     49  N          2.6700    7.6110   -1.6950 N.am   85  GLU85      -0.1966
     50  CA         3.9610    8.2540   -1.4270 C.3    85  GLU85       0.1733
     51  C          3.7910    9.7800   -1.5550 C.2    85  GLU85       0.2616
     52  O          2.9490   10.2670   -2.3310 O.2    85  GLU85      -0.2715
     53  CB         5.0460    7.7730   -2.4100 C.3    85  GLU85       0.0429
     54  CG         4.6770    7.9990   -3.8730 C.3    85  GLU85       0.1163
     55  CD         5.7480    7.6450   -4.8870 C.2    85  GLU85       0.3649
     56  OE1        6.9190    7.4830   -4.4820 O.co2  85  GLU85      -0.2457
     57  OE2        5.4310    7.6140   -6.0970 O.co2  85  GLU85      -0.2457
     58  N          4.5590   10.5170   -0.7540 N.am   86  TYR86      -0.1960
     59  CA         4.5200   11.9540   -0.7430 C.3    86  TYR86       0.1771
     60  C          5.6480   12.4920   -1.6380 C.2    86  TYR86       0.2619
     61  O          6.8100   12.1400   -1.4330 O.2    86  TYR86      -0.2715
     62  CB         4.6720   12.4740    0.6980 C.3    86  TYR86       0.0574
     63  CG         4.8830   13.9670    0.7900 C.ar   86  TYR86      -0.0198
     64  CD1        3.9850   14.8570    0.2030 C.ar   86  TYR86      -0.0009
     65  CD2        5.9500   14.4970    1.5190 C.ar   86  TYR86      -0.0009
     66  CE1        4.1950   16.2330    0.2580 C.ar   86  TYR86       0.0417
     67  CE2        6.1270   15.8700    1.6420 C.ar   86  TYR86       0.0417
     68  CZ         5.2470   16.7340    1.0090 C.ar   86  TYR86       0.1957
     69  OH         5.4130   18.0840    1.1390 O.3    86  TYR86      -0.2866
     70  N          5.2980   13.3480   -2.6210 N.am   87  LEU87      -0.1977
     71  CA         6.2880   13.9380   -3.5220 C.3    87  LEU87       0.1596
     72  C          6.3780   15.4490   -3.1750 C.2    87  LEU87       0.2287
     73  O          5.5000   16.2290   -3.5840 O.2    87  LEU87      -0.2864
     74  CB         5.8890   13.6820   -4.9970 C.3    87  LEU87       0.0297
     75  CG         6.4560   12.4110   -5.6540 C.3    87  LEU87       0.0022
     76  CD1        6.1050   11.1540   -4.8710 C.3    87  LEU87       0.0001
     77  CD2        5.9070   12.2260   -7.0720 C.3    87  LEU87       0.0001
     78  N          5.8230   18.4610   -5.4690 N.3    90  GLY90      -0.1210
     79  CA         4.4310   18.7340   -5.8260 C.3    90  GLY90       0.1956
     80  C          4.0880   18.6830   -7.3010 C.2    90  GLY90       0.2612
     81  O          4.7740   18.0110   -8.0680 O.2    90  GLY90      -0.2717
     82  N          3.0090   19.3930   -7.7010 N.am   91  CYS91      -0.1970
     83  CA         2.4750   19.3500   -9.0710 C.3    91  CYS91       0.1712
     84  C          3.4060   19.9840  -10.1100 C.2    91  CYS91       0.2296
     85  O          4.0990   20.9730   -9.8350 O.2    91  CYS91      -0.2864
     86  CB         1.0600   19.9260   -9.1530 C.3    91  CYS91       0.0983
     87  SG         0.9730   21.7340   -8.9980 S.3    91  CYS91      -0.0798
     88  N          2.6670   21.6990  -12.8360 N.3    93  ARG93      -0.1231
     89  CA         2.2150   23.0330  -13.2210 C.3    93  ARG93       0.1694
     90  C          2.9320   24.1380  -12.4250 C.2    93  ARG93       0.2592
     91  O          3.5020   25.0460  -13.0340 O.2    93  ARG93      -0.2718
     92  CB         0.6960   23.1430  -13.0560 C.3    93  ARG93       0.0321
     93  CG         0.1600   24.5410  -13.4110 C.3    93  ARG93       0.0489
     94  CD        -1.2510   24.7420  -12.9540 C.3    93  ARG93       0.2205
     95  NE        -1.3190   24.8660  -11.5010 N.pl3  93  ARG93      -0.0865
     96  CZ        -2.4460   24.7700  -10.8040 C.cat  93  ARG93       0.5346
     97  NH1       -3.5990   24.5360  -11.4220 N.pl3  93  ARG93       0.1354
     98  NH2       -2.4280   24.8880   -9.4830 N.pl3  93  ARG93       0.1354
     99  N          2.9070   24.0550  -11.0840 N.am   94  ASP94      -0.1974
    100  CA         3.5710   25.0360  -10.2110 C.3    94  ASP94       0.1709
    101  C          5.0810   24.8960  -10.2760 C.2    94  ASP94       0.2293
    102  O          5.7830   25.9030  -10.1760 O.2    94  ASP94      -0.2864
    103  CB         3.0680   24.9350   -8.7560 C.3    94  ASP94       0.1436
    104  CG         1.5780   25.1920   -8.6000 C.2    94  ASP94       0.3671
    105  OD1        0.9050   25.4510   -9.6260 O.co2  94  ASP94      -0.2456
    106  OD2        1.0740   25.0880   -7.4610 O.co2  94  ASP94      -0.2456
    107  N         -1.3520   20.0260  -13.7560 N.3   135  ARG135     -0.1231
    108  CA        -1.7390   20.1420  -12.3430 C.3   135  ARG135      0.1694
    109  C         -1.8880   18.7510  -11.6840 C.2   135  ARG135      0.2592
    110  O         -1.8530   18.6700  -10.4540 O.2   135  ARG135     -0.2718
    111  CB        -3.0640   20.9190  -12.2040 C.3   135  ARG135      0.0321
    112  CG        -4.2870   20.1660  -12.7280 C.3   135  ARG135      0.0489
    113  CD        -5.5740   20.9510  -12.5580 C.3   135  ARG135      0.2205
    114  NE        -5.9870   21.4990  -13.8450 N.pl3 135  ARG135     -0.0865
    115  CZ        -6.7920   20.8830  -14.7020 C.cat 135  ARG135      0.5346
    116  NH1       -7.3390   19.7130  -14.3880 N.pl3 135  ARG135      0.1354
    117  NH2       -7.0800   21.4440  -15.8650 N.pl3 135  ARG135      0.1354
    118  N         -2.1010   17.6710  -12.5100 N.am  136  ASN136     -0.1974
    119  CA        -2.3160   16.2780  -12.0600 C.3   136  ASN136      0.1688
    120  C         -1.1110   15.3890  -12.2730 C.2   136  ASN136      0.2292
    121  O         -1.2200   14.1710  -12.1940 O.2   136  ASN136     -0.2864
    122  CB        -3.5790   15.6650  -12.7040 C.3   136  ASN136      0.1181
    123  CG        -4.8270   16.3700  -12.2920 C.2   136  ASN136      0.2629
    124  OD1       -4.9640   16.8060  -11.1450 O.2   136  ASN136     -0.2716
    125  ND2       -5.7380   16.5650  -13.2360 N.am  136  ASN136     -0.0877
    126  N          2.8490   14.8830  -10.9450 N.3   138  LEU138     -0.1245
    127  CA         3.6880   15.1900   -9.7890 C.3   138  LEU138      0.1561
    128  C          5.1600   15.0840  -10.1450 C.2   138  LEU138      0.2260
    129  O          5.5170   14.3630  -11.0470 O.2   138  LEU138     -0.2867
    130  CB         3.3800   14.2280   -8.6510 C.3   138  LEU138      0.0270
    131  CG         2.0650   14.3380   -7.9480 C.3   138  LEU138      0.0019
    132  CD1        1.9280   13.1640   -6.9850 C.3   138  LEU138      0.0001
    133  CD2        1.9850   15.6270   -7.1510 C.3   138  LEU138      0.0001
    134  N         -0.4860   11.3520  -11.5590 N.3   148  ALA148     -0.1231
    135  CA        -1.2550   11.1530  -10.3210 C.3   148  ALA148      0.1694
    136  C         -2.7410   11.4200  -10.5390 C.2   148  ALA148      0.2592
    137  O         -3.1760   11.6310  -11.6780 O.2   148  ALA148     -0.2718
    138  CB        -0.7120   12.0620   -9.2240 C.3   148  ALA148      0.0304
    139  N         -3.5290   11.4180   -9.4350 N.am  149  ASP149     -0.1974
    140  CA        -4.9630   11.7110   -9.4080 C.3   149  ASP149      0.1709
    141  C         -5.7930   10.8320  -10.3600 C.2   149  ASP149      0.2293
    142  O         -6.2010   11.2670  -11.4410 O.2   149  ASP149     -0.2864
    143  CB        -5.2390   13.2120   -9.6310 C.3   149  ASP149      0.1436
    144  CG        -6.6490   13.6630   -9.2570 C.2   149  ASP149      0.3671
    145  OD1       -7.4760   12.8020   -8.8940 O.co2 149  ASP149     -0.2456
    146  OD2       -6.9090   14.8760   -9.2960 O.co2 149  ASP149     -0.2456
@<TRIPOS>BOND
     1   117   115    1
     2   115   116    1
     3   115   114    2
     4   114   113    1
     5   107   108    1
     6    93    92    1
     7    93    94    1
     8   125   123   am
     9    89    92    1
    10    89    88    1
    11    89    90    1
    12    91    90    2
    13    94    95    1
    14   112   113    1
    15   112   111    1
    16   122   123    1
    17   122   119    1
    18   118   119    1
    19   118   109   am
    20    90    99   am
    21   108   111    1
    22   108   109    1
    23   123   124    2
    24   120   121    2
    25   120   119    1
    26   109   110    2
    27   137   136    2
    28   134   135    1
    29    95    96    2
    30   142   141    2
    31    97    96    1
    32    99   100    1
    33   129   128    2
    34   126   127    1
    35    96    98    1
    36   136   135    1
    37   136   139   am
    38   141   140    1
    39   135   138    1
    40   101   100    1
    41   101   102    2
    42   100   103    1
    43   128   127    1
    44    84    85    2
    45    84    83    1
    46   127   130    1
    47    34    35    1
    48   143   140    1
    49   143   144    1
    50   105   104   ar
    51   139   140    1
    52   146   144   ar
    53   144   145   ar
    54    86    83    1
    55    86    87    1
    56    83    82    1
    57   103   104    1
    58   130   131    1
    59   104   106   ar
    60    35    38    1
    61    35    36    1
    62    81    80    2
    63   131   133    1
    64   131   132    1
    65    37    36    2
    66    39    38    1
    67    82    80   am
    68    38    40    1
    69    80    79    1
    70    77    75    1
    71    57    55   ar
    72    79    78    1
    73    75    74    1
    74    75    76    1
    75    74    71    1
    76    55    56   ar
    77    55    54    1
    78    16    15    2
    79    47    46    1
    80    47    48    1
    81    15    14    1
    82    54    53    1
    83    73    72    2
    84    71    72    1
    85    71    70    1
    86    46    45    1
    87    70    60   am
    88    28    26    1
    89    13    14    1
    90    13    11   am
    91    14    17    1
    92    53    50    1
    93    45    42    1
    94    52    51    2
    95    10    11    1
    96    10     9    2
    97    20    21    1
    98    20    19    1
    99     4     3    2
   100    18    17    1
   101    18    19    1
   102    11    12    2
   103    49    50    1
   104    49    43   am
   105    60    61    2
   106    60    59    1
   107    51    50    1
   108    51    58   am
   109    26    27    1
   110    26    23    1
   111    42    43    1
   112    42    41    1
   113     3     9    1
   114     3     2    1
   115    43    44    2
   116    58    59    1
   117    59    62    1
   118    33    30    1
   119     5     2    1
   120     5     6    1
   121    22    23    1
   122    23    24    1
   123     2     1    1
   124    64    66   ar
   125    64    63   ar
   126    66    68   ar
   127     7     6    1
   128     8     6    1
   129    62    63    1
   130    63    65   ar
   131    32    31    2
   132    25    24    2
   133    68    69    1
   134    68    67   ar
   135    30    31    1
   136    30    29    1
   137    65    67   ar
