@<TRIPOS>MOLECULE
tmp/5tp0A00.pdb
 118 117 0 0 0
SMALL
GASTEIGER

@<TRIPOS>ATOM
      1  N         12.6460   -7.5070  -17.0700 N.3    40  HIS40      -0.1241
      2  CA        11.4200   -7.4330  -17.8630 C.3    40  HIS40       0.1621
      3  C         11.2700   -6.0840  -18.5400 C.2    40  HIS40       0.2264
      4  O         10.3950   -5.9580  -19.4090 O.2    40  HIS40      -0.2867
      5  CB        10.1680   -7.8470  -17.0780 C.3    40  HIS40       0.0745
      6  CG         9.5470   -6.8170  -16.2670 C.ar   40  HIS40       0.0817
      7  ND1        9.6960   -6.6770  -14.9290 N.ar   40  HIS40      -0.2268
      8  CD2        8.6510   -5.8690  -16.6440 C.ar   40  HIS40       0.1154
      9  CE1        8.9440   -5.6730  -14.4890 C.ar   40  HIS40       0.1986
     10  NE2        8.3160   -5.1470  -15.5180 N.ar   40  HIS40      -0.2212
     11  N          1.1380    1.6080   -3.1000 N.3   171  ASP171     -0.1225
     12  CA         1.9210    0.5510   -3.7770 C.3   171  ASP171      0.1805
     13  C          2.6430    1.1840   -4.9610 C.2   171  ASP171      0.2598
     14  O          2.3450    2.2840   -5.3920 O.2   171  ASP171     -0.2718
     15  CB         0.9750   -0.5640   -4.2530 C.3   171  ASP171      0.1424
     16  CG         1.5870   -1.8840   -4.5990 C.2   171  ASP171      0.3668
     17  OD1        2.7900   -2.0970   -4.4940 O.co2 171  ASP171     -0.2456
     18  OD2        0.7300   -2.7470   -5.0100 O.co2 171  ASP171     -0.2456
     19  N          3.6130    0.4340   -5.5180 N.am  172  SER172     -0.1938
     20  CA         4.0930    0.7310   -6.8280 C.3   172  SER172      0.2055
     21  C          3.1750    0.1620   -7.9020 C.2   172  SER172      0.2643
     22  O          2.2220   -0.5660   -7.5790 O.2   172  SER172     -0.2714
     23  CB         5.5260    0.2570   -7.0220 C.3   172  SER172      0.2130
     24  OG         5.6320   -1.1320   -6.8490 O.3   172  SER172     -0.2179
     25  N          3.4180    0.4660   -9.1630 N.am  173  CYS173     -0.1953
     26  CA         2.5190    0.0510  -10.2270 C.3   173  CYS173      0.1843
     27  C          3.2150    0.0430  -11.5980 C.2   173  CYS173      0.2628
     28  O          4.4360    0.2690  -11.6990 O.2   173  CYS173     -0.2714
     29  CB         1.2500    0.9470  -10.1770 C.3   173  CYS173      0.0997
     30  SG        -0.2280    0.3040  -10.9680 S.3   173  CYS173     -0.0797
     31  N          2.4700   -0.1800  -12.6620 N.am  174  GLN174     -0.1931
     32  CA         2.9680   -0.2670  -13.9940 C.3   174  GLN174      0.1817
     33  C          3.7900    0.9470  -14.3310 C.2   174  GLN174      0.2332
     34  O          3.3650    2.0780  -14.0780 O.2   174  GLN174     -0.2860
     35  CB         1.7710   -0.3870  -14.9990 C.2   174  GLN174      0.0077
     36  CG         2.0990   -0.5210  -16.4400 C.2   174  GLN174      0.0587
     37  CD         0.9460   -0.8350  -17.3460 C.2   174  GLN174      0.2841
     38  OE1       -0.1350   -1.0570  -16.8880 O.2   174  GLN174     -0.2667
     39  NE2        1.1900   -0.8160  -18.6540 N.am  174  GLN174     -0.0837
     40  N          8.1510   -0.1580  -12.7150 N.3   177  SER177     -0.1217
     41  CA         9.0040   -1.3200  -12.9150 C.3   177  SER177      0.1889
     42  C         10.4130   -0.9300  -13.2470 C.2   177  SER177      0.2288
     43  O         10.6310   -0.0300  -14.0570 O.2   177  SER177     -0.2866
     44  CB         8.4670   -2.1580  -14.0810 C.3   177  SER177      0.2089
     45  OG         7.2520   -2.7390  -13.7520 O.3   177  SER177     -0.2183
     46  N         11.7250   -2.6200   -8.5110 N.3   191  VAL191     -0.1231
     47  CA        10.2850   -2.8150   -8.7450 C.3   191  VAL191      0.1692
     48  C         10.1450   -3.8870   -9.8160 C.2   191  VAL191      0.2593
     49  O         10.6160   -3.7720  -10.9240 O.2   191  VAL191     -0.2718
     50  CB         9.6220   -1.5000   -9.2050 C.3   191  VAL191      0.0266
     51  CG1        8.1380   -1.7230   -9.4050 C.3   191  VAL191      0.0020
     52  CG2        9.8160   -0.3420   -8.2010 C.3   191  VAL191      0.0020
     53  N          9.3650   -4.9490   -9.4870 N.am  192  SER192     -0.1938
     54  CA         9.2480   -6.0810  -10.3900 C.3   192  SER192      0.2055
     55  C          7.7780   -6.3550  -10.8250 C.2   192  SER192      0.2643
     56  O          7.4860   -6.2160  -11.9680 O.2   192  SER192     -0.2714
     57  CB         9.9390   -7.3060   -9.7950 C.3   192  SER192      0.2130
     58  OG         9.8930   -8.4120  -10.6880 O.3   192  SER192     -0.2179
     59  N          6.9050   -6.7670   -9.8810 N.am  193  TRP193     -0.1959
     60  CA         5.5200   -7.1370  -10.2780 C.3   193  TRP193      0.1771
     61  C          4.6380   -7.0990   -9.0880 C.2   193  TRP193      0.2620
     62  O          4.9840   -6.8400   -7.9950 O.2   193  TRP193     -0.2715
     63  CB         5.5400   -8.5090  -10.9560 C.3   193  TRP193      0.0590
     64  CG         5.9500   -9.6600  -10.1120 C.ar  193  TRP193      0.0006
     65  CD1        7.1980  -10.1230   -9.8570 C.ar  193  TRP193      0.0946
     66  CD2        5.0520  -10.5930   -9.4280 C.ar  193  TRP193      0.0152
     67  NE1        7.1850  -11.2340   -9.0770 N.ar  193  TRP193     -0.2442
     68  CE2        5.8800  -11.5430   -8.8030 C.ar  193  TRP193      0.0810
     69  CE3        3.6490  -10.7090   -9.3330 C.ar  193  TRP193      0.0012
     70  CZ2        5.3370  -12.5940   -8.0420 C.ar  193  TRP193      0.0191
     71  CZ3        3.1360  -11.7690   -8.5600 C.ar  193  TRP193      0.0001
     72  CH2        3.9970  -12.6900   -7.9460 C.ar  193  TRP193      0.0015
     73  N          3.3530   -7.3810   -9.3880 N.am  194  GLY194     -0.1940
     74  CA         2.2860   -7.5240   -8.4340 C.3   194  GLY194      0.2014
     75  C          1.0460   -7.9170   -9.1790 C.2   194  GLY194      0.2639
     76  O          1.0410   -7.9730  -10.3700 O.2   194  GLY194     -0.2714
     77  N         -0.0220   -8.2130   -8.4250 N.am  195  HIS195     -0.1959
     78  CA        -1.3740   -8.3690   -9.0580 C.3   195  HIS195      0.1787
     79  C         -2.1610   -7.1500   -8.7680 C.2   195  HIS195      0.2621
     80  O         -2.3980   -6.8100   -7.6200 O.2   195  HIS195     -0.2715
     81  CB        -2.1650   -9.5350   -8.5400 C.3   195  HIS195      0.0785
     82  CG        -3.4960   -9.7230   -9.2350 C.ar  195  HIS195      0.0821
     83  ND1       -3.6150   -9.7530  -10.6080 N.ar  195  HIS195     -0.2267
     84  CD2       -4.7240   -9.9090   -8.7300 C.ar  195  HIS195      0.1154
     85  CE1       -4.8850   -9.9550  -10.9310 C.ar  195  HIS195      0.1986
     86  NE2       -5.5620  -10.0450   -9.7990 N.ar  195  HIS195     -0.2212
     87  N         -2.5210   -6.4270   -9.8090 N.am  196  GLY196     -0.1940
     88  CA        -3.1120   -5.1220   -9.6430 C.3   196  GLY196      0.2014
     89  C         -2.1170   -4.1750   -9.0020 C.2   196  GLY196      0.2639
     90  O         -0.8930   -4.4460   -8.9810 O.2   196  GLY196     -0.2714
     91  N         -2.6090   -3.1220   -8.4160 N.am  197  CYS197     -0.1967
     92  CA        -1.7740   -2.1330   -7.6790 C.3   197  CYS197      0.1712
     93  C         -2.5940   -1.6930   -6.4800 C.2   197  CYS197      0.2296
     94  O         -3.7730   -1.3230   -6.6470 O.2   197  CYS197     -0.2864
     95  CB        -1.3920   -0.9060   -8.5160 C.3   197  CYS197      0.0983
     96  SG        -0.4810   -1.4650  -10.0150 S.3   197  CYS197     -0.0798
     97  N         -2.1230   -7.8880   -1.7760 N.3   202  ARG202     -0.1245
     98  CA        -1.3810   -7.9520   -3.0110 C.3   202  ARG202      0.1563
     99  C         -0.2940   -6.8640   -3.0370 C.2   202  ARG202      0.2260
    100  O         -0.3700   -5.9350   -3.8200 O.2   202  ARG202     -0.2867
    101  CB        -2.3100   -7.8340   -4.2520 C.3   202  ARG202      0.0307
    102  CG        -3.4000   -8.8800   -4.3430 C.3   202  ARG202      0.0489
    103  CD        -2.8580  -10.3080   -4.5560 C.3   202  ARG202      0.2205
    104  NE        -3.8910  -11.2700   -4.7370 N.pl3 202  ARG202     -0.0865
    105  CZ        -4.4120  -12.1030   -3.7240 C.cat 202  ARG202      0.5346
    106  NH1       -3.8640  -12.1420   -2.3980 N.pl3 202  ARG202      0.1354
    107  NH2       -5.3330  -13.0100   -4.0040 N.pl3 202  ARG202      0.1354
    108  N          3.5100   -5.0970   -3.4570 N.3   204  GLY204     -0.1210
    109  CA         4.4860   -5.1960   -4.5100 C.3   204  GLY204      0.1956
    110  C          5.5470   -6.2520   -4.2530 C.2   204  GLY204      0.2611
    111  O          5.9150   -6.4600   -3.1240 O.2   204  GLY204     -0.2717
    112  N          6.0010   -6.8310   -5.3490 N.am  205  VAL205     -0.1979
    113  CA         7.0850   -7.8420   -5.3280 C.3   205  VAL205      0.1595
    114  C          8.2840   -7.1630   -6.0500 C.2   205  VAL205      0.2287
    115  O          8.1620   -6.5530   -7.0820 O.2   205  VAL205     -0.2864
    116  CB         6.6760   -9.1290   -6.0190 C.3   205  VAL205      0.0276
    117  CG1        7.7680  -10.1860   -5.8070 C.3   205  VAL205      0.0022
    118  CG2        5.3010   -9.6410   -5.5030 C.3   205  VAL205      0.0022
@<TRIPOS>BOND
     1     4     3    2
     2    39    37   am
     3     3     2    1
     4     2     5    1
     5     2     1    1
     6    37    38    2
     7    37    36    1
     8     5     6    1
     9     8     6   ar
    10     8    10   ar
    11    36    35    2
    12     6     7   ar
    13    10     9   ar
    14    35    32    1
    15     7     9   ar
    16    33    34    2
    17    33    32    1
    18    44    45    1
    19    44    41    1
    20    43    42    2
    21    32    31    1
    22    42    41    1
    23    41    40    1
    24    31    27   am
    25    56    55    2
    26    28    27    2
    27    27    26    1
    28    30    29    1
    29    30    96    1
    30    63    60    1
    31    63    64    1
    32    85    83   ar
    33    85    86   ar
    34    49    48    2
    35    55    54    1
    36    55    59   am
    37    58    57    1
    38    83    82   ar
    39    54    57    1
    40    54    53    1
    41    76    75    2
    42    60    59    1
    43    60    61    1
    44    26    29    1
    45    26    25    1
    46    64    65   ar
    47    64    66   ar
    48    96    95    1
    49    65    67   ar
    50    48    53   am
    51    48    47    1
    52    87    88    1
    53    87    79   am
    54    86    84   ar
    55    88    89    1
    56    66    69   ar
    57    66    68   ar
    58    51    50    1
    59    73    61   am
    60    73    74    1
    61    69    71   ar
    62    82    84   ar
    63    82    81    1
    64    50    47    1
    65    50    52    1
    66    75    74    1
    67    75    77   am
    68    25    21   am
    69    61    62    2
    70    67    68   ar
    71    78    79    1
    72    78    81    1
    73    78    77    1
    74    89    90    2
    75    89    91   am
    76    68    70   ar
    77    79    80    2
    78    47    46    1
    79    71    72   ar
    80    95    92    1
    81    91    92    1
    82    70    72   ar
    83    21    22    2
    84    21    20    1
    85    92    93    1
    86   115   114    2
    87    23    24    1
    88    23    20    1
    89    20    19    1
    90    94    93    2
    91   114   113    1
    92   116   117    1
    93   116   118    1
    94   116   113    1
    95    19    13   am
    96    14    13    2
    97   112   113    1
    98   112   110   am
    99    18    16   ar
   100    13    12    1
   101   104   103    1
   102   104   105    2
   103    16    17   ar
   104    16    15    1
   105   103   102    1
   106   109   110    1
   107   109   108    1
   108   102   101    1
   109    15    12    1
   110   110   111    2
   111   101    98    1
   112   107   105    1
   113   100    99    2
   114    12    11    1
   115   105   106    1
   116    99    98    1
   117    98    97    1
