@<TRIPOS>MOLECULE
tmp/5tp9A01.pdb
 107 102 0 0 0
SMALL
GASTEIGER

@<TRIPOS>ATOM
      1  N        -15.8410  -14.3360   15.7580 N.3   108  ILE108     -0.1245
      2  CA       -14.4820  -13.8400   15.7890 C.3   108  ILE108      0.1561
      3  C        -13.6160  -15.0650   15.4950 C.2   108  ILE108      0.2260
      4  O        -13.8730  -16.1350   16.0400 O.2   108  ILE108     -0.2867
      5  CB       -14.1360  -13.2470   17.1800 C.3   108  ILE108      0.0252
      6  CG1      -14.8810  -11.9100   17.4310 C.3   108  ILE108      0.0019
      7  CG2      -12.6010  -13.0570   17.3350 C.3   108  ILE108      0.0019
      8  CD1      -15.0630  -11.5880   18.9120 C.3   108  ILE108      0.0001
      9  N        -14.8210   -6.3720   21.3850 N.3   120  VAL120     -0.1231
     10  CA       -14.7060   -7.4040   22.4040 C.3   120  VAL120      0.1678
     11  C        -15.8580   -8.4210   22.0970 C.2   120  VAL120      0.2434
     12  O        -16.8940   -8.0090   21.5700 O.2   120  VAL120     -0.2733
     13  CB       -14.9010   -6.7960   23.8110 C.3   120  VAL120      0.0265
     14  CG1      -13.6340   -6.1020   24.3040 C.3   120  VAL120      0.0020
     15  CG2      -16.0900   -5.8500   23.8470 C.3   120  VAL120      0.0020
     16  N        -15.7230   -9.7300   22.3710 N.am  121  PRO121     -0.2718
     17  CA       -16.8690  -10.6410   22.1310 C.3   121  PRO121      0.1535
     18  C        -18.0580  -10.2760   23.0430 C.2   121  PRO121      0.2599
     19  O        -17.8200   -9.8750   24.1830 O.2   121  PRO121     -0.2715
     20  CB       -16.3090  -12.0110   22.5190 C.3   121  PRO121      0.0310
     21  CG       -15.2260  -11.6870   23.5030 C.3   121  PRO121      0.0237
     22  CD       -14.5920  -10.4360   23.0020 C.3   121  PRO121      0.0939
     23  N        -19.3180  -10.3840   22.5580 N.am  122  PHE122     -0.1960
     24  CA       -20.4730  -10.0510   23.4020 C.3   122  PHE122      0.1771
     25  C        -21.4610  -11.2080   23.5460 C.2   122  PHE122      0.2619
     26  O        -22.4460  -11.0720   24.2770 O.2   122  PHE122     -0.2715
     27  CB       -21.1700   -8.7600   22.9540 C.3   122  PHE122      0.0574
     28  CG       -21.6750   -8.7960   21.5350 C.ar  122  PHE122     -0.0200
     29  CD1      -20.8490   -8.4430   20.4780 C.ar  122  PHE122     -0.0042
     30  CD2      -22.9880   -9.1480   21.2590 C.ar  122  PHE122     -0.0042
     31  CE1      -21.3010   -8.5200   19.1670 C.ar  122  PHE122     -0.0003
     32  CE2      -23.4470   -9.2060   19.9440 C.ar  122  PHE122     -0.0003
     33  CZ       -22.5960   -8.9060   18.9070 C.ar  122  PHE122     -0.0000
     34  N        -21.2250  -12.3280   22.8240 N.am  123  VAL123     -0.1963
     35  CA       -22.0150  -13.5670   22.9100 C.3   123  VAL123      0.1727
     36  C        -21.0000  -14.7100   22.9000 C.2   123  VAL123      0.2619
     37  O        -20.1100  -14.7180   22.0390 O.2   123  VAL123     -0.2715
     38  CB       -23.0570  -13.7680   21.7590 C.3   123  VAL123      0.0290
     39  CG1      -23.8080  -15.1020   21.8960 C.3   123  VAL123      0.0023
     40  CG2      -24.0260  -12.6160   21.6540 C.3   123  VAL123      0.0023
     41  N        -21.1330  -15.6700   23.8220 N.am  124  GLU124     -0.1932
     42  CA       -20.2330  -16.8220   23.8490 C.3   124  GLU124      0.1818
     43  C        -20.6660  -17.8490   22.7780 C.2   124  GLU124      0.2332
     44  O        -21.8470  -18.2430   22.7070 O.2   124  GLU124     -0.2860
     45  CB       -20.2240  -17.4730   25.2420 C.2   124  GLU124      0.0097
     46  CG       -19.4450  -18.7800   25.3420 C.2   124  GLU124      0.0837
     47  CD       -19.3520  -19.4220   26.7210 C.2   124  GLU124      0.3877
     48  OE1      -20.3040  -19.2860   27.5260 O.co2 124  GLU124     -0.2406
     49  OE2      -18.3290  -20.0960   26.9820 O.co2 124  GLU124     -0.2406
     50  N        -13.8980  -22.6130   21.4270 N.3   233  THR233     -0.1203
     51  CA       -14.6680  -21.5110   22.0050 C.3   233  THR233      0.1994
     52  C        -14.1620  -20.1440   21.5380 C.2   233  THR233      0.2619
     53  O        -12.9480  -19.8990   21.4390 O.2   233  THR233     -0.2717
     54  CB       -14.7990  -21.6230   23.5350 C.3   233  THR233      0.1784
     55  OG1      -15.6440  -20.5650   23.9910 O.3   233  THR233     -0.2211
     56  CG2      -13.4700  -21.5510   24.2540 C.3   233  THR233      0.0376
     57  N        -15.1310  -19.2670   21.2100 N.am  234  THR234     -0.1938
     58  CA       -14.8940  -17.9080   20.7180 C.3   234  THR234      0.2028
     59  C        -16.1530  -17.0910   21.0360 C.2   234  THR234      0.2642
     60  O        -16.9430  -17.4900   21.8840 O.2   234  THR234     -0.2714
     61  CB       -14.5190  -17.9610   19.1990 C.3   234  THR234      0.1808
     62  OG1      -14.2030  -16.6470   18.7440 O.3   234  THR234     -0.2208
     63  CG2      -15.6400  -18.5460   18.3200 C.3   234  THR234      0.0379
     64  N        -16.3690  -15.9990   20.3210 N.am  235  GLY235     -0.1954
     65  CA       -17.5650  -15.2090   20.5180 C.3   235  GLY235      0.1869
     66  C        -17.9550  -14.4490   19.2900 C.2   235  GLY235      0.2309
     67  O        -17.1750  -14.3570   18.3300 O.2   235  GLY235     -0.2863
     68  N        -19.7380   -1.9190   25.3120 N.3   254  LEU254     -0.1231
     69  CA       -20.0570   -3.3520   25.5170 C.3   254  LEU254      0.1693
     70  C        -19.6720   -3.8340   26.9350 C.2   254  LEU254      0.2591
     71  O        -20.4380   -4.5600   27.5930 O.2   254  LEU254     -0.2718
     72  CB       -19.3820   -4.2270   24.4320 C.3   254  LEU254      0.0284
     73  CG       -19.9820   -4.0740   23.0090 C.3   254  LEU254      0.0019
     74  CD1      -19.1250   -4.7920   21.9700 C.3   254  LEU254      0.0001
     75  CD2      -21.4550   -4.5440   22.9660 C.3   254  LEU254      0.0001
     76  N        -18.4820   -3.4050   27.4120 N.am  255  LEU255     -0.1980
     77  CA       -18.0160   -3.7340   28.7610 C.3   255  LEU255      0.1596
     78  C        -18.8900   -3.0710   29.7980 C.2   255  LEU255      0.2287
     79  O        -19.1570   -3.6780   30.8220 O.2   255  LEU255     -0.2864
     80  CB       -16.5390   -3.3290   28.9590 C.3   255  LEU255      0.0297
     81  CG       -15.5360   -4.2350   28.3050 C.3   255  LEU255      0.0022
     82  CD1      -14.2440   -3.4930   28.0300 C.3   255  LEU255      0.0001
     83  CD2      -15.2690   -5.4400   29.1750 C.3   255  LEU255      0.0001
     84  N        -22.2010   -5.1800   29.9790 N.3   258  VAL258     -0.1245
     85  CA       -22.0740   -6.4070   30.7940 C.3   258  VAL258      0.1561
     86  C        -22.1210   -6.0590   32.2910 C.2   258  VAL258      0.2260
     87  O        -22.8450   -6.7110   33.0440 O.2   258  VAL258     -0.2867
     88  CB       -20.8510   -7.3050   30.4460 C.3   258  VAL258      0.0252
     89  CG1      -20.7800   -8.5160   31.3770 C.3   258  VAL258      0.0019
     90  CG2      -20.9040   -7.7660   28.9980 C.3   258  VAL258      0.0019
     91  N        -26.6370   -6.6870   29.4350 N.3   263  MET263     -0.1245
     92  CA       -26.3810   -7.8600   28.6110 C.3   263  MET263      0.1570
     93  C        -27.1490   -9.0680   29.1050 C.2   263  MET263      0.2261
     94  O        -27.6790   -9.8130   28.2900 O.2   263  MET263     -0.2867
     95  CB       -24.8880   -8.1800   28.5580 C.3   263  MET263      0.0387
     96  CG       -24.1680   -7.4770   27.4380 C.3   263  MET263      0.0595
     97  SD       -24.4730   -8.1930   25.8170 S.3   263  MET263     -0.1393
     98  CE       -24.5590   -9.8280   26.2420 C.3   263  MET263      0.0692
     99  N        -30.0930  -11.3890   27.1070 N.3   267  GLU267     -0.1196
    100  CA       -29.9840  -12.8470   27.0670 C.3   267  GLU267      0.1783
    101  C        -31.2940  -13.4440   27.5510 C.2   267  GLU267      0.2306
    102  O        -31.7890  -14.4090   26.9580 O.2   267  GLU267     -0.2863
    103  CB       -28.8280  -13.3370   27.9540 C.2   267  GLU267      0.0071
    104  CG       -27.4330  -12.8860   27.5140 C.2   267  GLU267      0.0834
    105  CD       -26.2770  -13.1560   28.4700 C.2   267  GLU267      0.3877
    106  OE1      -25.2390  -12.4630   28.3530 O.co2 267  GLU267     -0.2406
    107  OE2      -26.3930  -14.0670   29.3240 O.co2 267  GLU267     -0.2406
@<TRIPOS>BOND
     1     3     2    1
     2     3     4    2
     3     1     2    1
     4     2     5    1
     5     5     7    1
     6     5     6    1
     7     6     8    1
     8    63    61    1
     9    67    66    2
    10    62    61    1
    11    33    31   ar
    12    33    32   ar
    13    31    29   ar
    14    61    58    1
    15    66    65    1
    16    32    30   ar
    17    64    65    1
    18    64    59   am
    19    29    28   ar
    20    58    59    1
    21    58    57    1
    22    59    60    2
    23    57    52   am
    24    30    28   ar
    25     9    10    1
    26    50    51    1
    27    53    52    2
    28    28    27    1
    29    52    51    1
    30    12    11    2
    31    40    38    1
    32    38    39    1
    33    38    35    1
    34    74    73    1
    35    51    54    1
    36    37    36    2
    37    11    16   am
    38    11    10    1
    39    17    16    1
    40    17    20    1
    41    17    18    1
    42    16    22    1
    43    10    13    1
    44    20    21    1
    45    23    18   am
    46    23    24    1
    47    44    43    2
    48    43    42    1
    49    34    35    1
    50    34    25   am
    51    36    35    1
    52    36    41   am
    53    27    24    1
    54    75    73    1
    55    22    21    1
    56    73    72    1
    57    18    19    2
    58    24    25    1
    59    54    55    1
    60    54    56    1
    61    25    26    2
    62    13    15    1
    63    13    14    1
    64    41    42    1
    65    42    45    1
    66    72    69    1
    67    45    46    2
    68    68    69    1
    69    46    47    1
    70    69    70    1
    71    97    98    1
    72    97    96    1
    73    47    49   ar
    74    47    48   ar
    75    70    76   am
    76    70    71    2
    77   102   101    2
    78   100    99    1
    79   100   101    1
    80   100   103    1
    81    76    77    1
    82    96    95    1
    83   104   103    2
    84   104   105    1
    85    82    81    1
    86    94    93    2
    87    81    80    1
    88    81    83    1
    89   106   105   ar
    90   105   107   ar
    91    95    92    1
    92    92    93    1
    93    92    91    1
    94    77    80    1
    95    77    78    1
    96    90    88    1
    97    78    79    2
    98    84    85    1
    99    88    85    1
   100    88    89    1
   101    85    86    1
   102    86    87    2
