@<TRIPOS>MOLECULE
tmp/5tp9B00.pdb
 84 81 0 0 0
SMALL
GASTEIGER

@<TRIPOS>ATOM
      1  N        -10.9030   -8.4550   32.4680 N.3   123  ILE123     -0.1245
      2  CA       -11.1360   -7.4230   31.4730 C.3   123  ILE123      0.1561
      3  C        -12.3860   -6.6600   31.9510 C.2   123  ILE123      0.2260
      4  O        -13.4630   -7.2510   32.0420 O.2   123  ILE123     -0.2867
      5  CB       -11.3270   -8.0480   30.0570 C.3   123  ILE123      0.0252
      6  CG1      -10.0660   -8.8200   29.6120 C.3   123  ILE123      0.0019
      7  CG2      -11.7600   -6.9810   29.0440 C.3   123  ILE123      0.0019
      8  CD1      -10.1750   -9.5470   28.3300 C.3   123  ILE123      0.0001
      9  N         -7.7920  -10.2600   23.1990 N.3   135  LYS135     -0.1231
     10  CA        -9.0560  -10.9760   23.1070 C.3   135  LYS135      0.1678
     11  C         -8.9900  -11.9490   24.2860 C.2   135  LYS135      0.2434
     12  O         -7.8750  -12.3320   24.6390 O.2   135  LYS135     -0.2733
     13  CB        -9.1390  -11.7350   21.7690 C.3   135  LYS135      0.0284
     14  CG        -9.4930  -10.8370   20.5740 C.3   135  LYS135      0.0035
     15  CD       -11.0010  -10.5010   20.5710 C.3   135  LYS135      0.0206
     16  CE       -11.4050   -9.6510   19.4070 C.3   135  LYS135      0.1093
     17  NZ       -11.0080   -8.2450   19.6330 N.3   135  LYS135     -0.1314
     18  N        -10.1010  -12.2700   24.9920 N.am  136  PRO136     -0.2729
     19  CA        -9.9740  -13.1370   26.1810 C.3   136  PRO136      0.1401
     20  C         -9.3470  -14.5010   25.9460 C.2   136  PRO136      0.2269
     21  O         -9.6140  -15.1070   24.9210 O.2   136  PRO136     -0.2865
     22  CB       -11.4100  -13.2970   26.6870 C.3   136  PRO136      0.0296
     23  CG       -12.2560  -12.3530   25.9070 C.3   136  PRO136      0.0237
     24  CD       -11.5120  -11.9220   24.6970 C.3   136  PRO136      0.0939
     25  N         -9.7670  -16.7790   28.3860 N.3   138  LYS138     -0.1231
     26  CA       -10.6730  -17.5400   29.2610 C.3   138  LYS138      0.1693
     27  C        -11.8990  -16.6900   29.5760 C.2   138  LYS138      0.2592
     28  O        -11.7810  -15.4820   29.7750 O.2   138  LYS138     -0.2718
     29  CB        -9.9580  -17.9150   30.5880 C.3   138  LYS138      0.0285
     30  CG       -10.7670  -18.8130   31.5320 C.3   138  LYS138      0.0035
     31  CD        -9.8970  -19.8830   32.1730 C.3   138  LYS138      0.0206
     32  CE       -10.6820  -21.0710   32.6760 C.3   138  LYS138      0.1093
     33  NZ       -11.3880  -21.8010   31.5840 N.3   138  LYS138     -0.1314
     34  N        -13.0760  -17.3310   29.6270 N.am  139  TYR139     -0.1976
     35  CA       -14.3400  -16.6970   29.9710 C.3   139  TYR139      0.1639
     36  C        -14.8980  -17.4280   31.1600 C.2   139  TYR139      0.2290
     37  O        -15.0470  -18.6460   31.1250 O.2   139  TYR139     -0.2864
     38  CB       -15.3070  -16.6990   28.7840 C.3   139  TYR139      0.0560
     39  CG       -16.6440  -16.0320   29.0470 C.ar  139  TYR139     -0.0198
     40  CD1      -16.7150  -14.7060   29.4660 C.ar  139  TYR139     -0.0009
     41  CD2      -17.8410  -16.7040   28.8000 C.ar  139  TYR139     -0.0009
     42  CE1      -17.9460  -14.0880   29.7140 C.ar  139  TYR139      0.0417
     43  CE2      -19.0780  -16.0760   28.9860 C.ar  139  TYR139      0.0417
     44  CZ       -19.1220  -14.7770   29.4650 C.ar  139  TYR139      0.1957
     45  OH       -20.3320  -14.1660   29.6520 O.3   139  TYR139     -0.2866
     46  N        -20.2200  -12.5150   34.9700 N.3   243  ARG243     -0.1231
     47  CA       -19.3830  -13.2760   34.0590 C.3   243  ARG243      0.1694
     48  C        -18.4320  -12.3000   33.4080 C.2   243  ARG243      0.2593
     49  O        -18.8380  -11.1980   33.0470 O.2   243  ARG243     -0.2718
     50  CB       -20.2250  -13.9770   32.9840 C.3   243  ARG243      0.0321
     51  CG       -21.0830  -15.1300   33.4920 C.3   243  ARG243      0.0489
     52  CD       -20.3660  -16.4650   33.4410 C.3   243  ARG243      0.2205
     53  NE       -20.4340  -17.1060   32.1240 N.pl3 243  ARG243     -0.0865
     54  CZ       -21.4590  -17.8380   31.6880 C.cat 243  ARG243      0.5346
     55  NH1      -22.5340  -18.0140   32.4500 N.pl3 243  ARG243      0.1354
     56  NH2      -21.4210  -18.3920   30.4800 N.pl3 243  ARG243      0.1354
     57  N        -17.1570  -12.6660   33.3280 N.am  244  SER244     -0.1938
     58  CA       -16.1310  -11.8190   32.7050 C.3   244  SER244      0.2055
     59  C        -14.9980  -12.6660   32.1290 C.2   244  SER244      0.2643
     60  O        -14.8640  -13.8550   32.4530 O.2   244  SER244     -0.2714
     61  CB       -15.5910  -10.7760   33.6910 C.3   244  SER244      0.2130
     62  OG       -15.1240  -11.3720   34.8910 O.3   244  SER244     -0.2179
     63  N        -14.1750  -12.0280   31.3050 N.am  245  GLY245     -0.1954
     64  CA       -13.0370  -12.6890   30.6980 C.3   245  GLY245      0.1869
     65  C        -11.7080  -12.2790   31.2850 C.2   245  GLY245      0.2309
     66  O        -11.5790  -11.1930   31.8650 O.2   245  GLY245     -0.2863
     67  N         -6.4020  -16.2350   19.4330 N.3   265  LEU265     -0.1245
     68  CA        -7.4700  -16.8150   18.5900 C.3   265  LEU265      0.1561
     69  C         -7.0560  -18.1340   17.9980 C.2   265  LEU265      0.2260
     70  O         -7.7940  -19.1000   18.1120 O.2   265  LEU265     -0.2867
     71  CB        -7.9930  -15.8340   17.5090 C.3   265  LEU265      0.0270
     72  CG        -8.6420  -14.5780   18.0640 C.3   265  LEU265      0.0019
     73  CD1       -8.8350  -13.5140   16.9960 C.3   265  LEU265      0.0001
     74  CD2       -9.9320  -14.9110   18.8000 C.3   265  LEU265      0.0001
     75  N         -7.1970  -20.8010   20.6320 N.3   268  HIS268     -0.1241
     76  CA        -8.5730  -21.2210   20.9210 C.3   268  HIS268      0.1621
     77  C         -9.0310  -22.2140   19.8140 C.2   268  HIS268      0.2264
     78  O         -9.6210  -23.2380   20.1230 O.2   268  HIS268     -0.2867
     79  CB        -9.5290  -20.0040   20.9370 C.3   268  HIS268      0.0745
     80  CG        -9.5900  -19.2750   22.2500 C.ar  268  HIS268      0.0817
     81  ND1      -10.2100  -19.8320   23.3540 N.ar  268  HIS268     -0.2268
     82  CD2       -9.1830  -18.0250   22.5670 C.ar  268  HIS268      0.1154
     83  CE1      -10.1000  -18.9340   24.3190 C.ar  268  HIS268      0.1986
     84  NE2       -9.5170  -17.8210   23.8860 N.ar  268  HIS268     -0.2212
@<TRIPOS>BOND
     1    73    72    1
     2    71    72    1
     3    71    68    1
     4    69    70    2
     5    69    68    1
     6    72    74    1
     7    68    67    1
     8    16    17    1
     9    16    15    1
    10    77    78    2
    11    77    76    1
    12    15    14    1
    13    14    13    1
    14    75    76    1
    15    76    79    1
    16    79    80    1
    17    13    10    1
    18    80    82   ar
    19    80    81   ar
    20    82    84   ar
    21    10     9    1
    22    10    11    1
    23    81    83   ar
    24    84    83   ar
    25    11    12    2
    26    11    18   am
    27    24    18    1
    28    24    23    1
    29    21    20    2
    30    18    19    1
    31    23    22    1
    32    20    19    1
    33    19    22    1
    34     8     6    1
    35    25    26    1
    36    38    39    1
    37    38    35    1
    38    41    43   ar
    39    41    39   ar
    40    43    44   ar
    41     7     5    1
    42    39    40   ar
    43    26    27    1
    44    26    29    1
    45    44    45    1
    46    44    42   ar
    47    40    42   ar
    48    27    34   am
    49    27    28    2
    50     6     5    1
    51    34    35    1
    52    35    36    1
    53     5     2    1
    54    56    54    1
    55    29    30    1
    56    64    65    1
    57    64    63    1
    58    37    36    2
    59    65    66    2
    60    63    59   am
    61     2     3    1
    62     2     1    1
    63    30    31    1
    64    33    32    1
    65    54    53    2
    66    54    55    1
    67     3     4    2
    68    53    52    1
    69    59    60    2
    70    59    58    1
    71    31    32    1
    72    58    57    1
    73    58    61    1
    74    50    51    1
    75    50    47    1
    76    49    48    2
    77    57    48   am
    78    48    47    1
    79    52    51    1
    80    61    62    1
    81    47    46    1
