@<TRIPOS>MOLECULE
tmp/5tpaB00.pdb
 90 87 0 0 0
SMALL
GASTEIGER

@<TRIPOS>ATOM
      1  N         10.6980   -8.5360  -32.3550 N.3   119  ILE119     -0.1245
      2  CA        10.8730   -7.4560  -31.3810 C.3   119  ILE119      0.1561
      3  C         12.1060   -6.6640  -31.8200 C.2   119  ILE119      0.2260
      4  O         13.2090   -7.2190  -31.9190 O.2   119  ILE119     -0.2867
      5  CB        10.9970   -8.0160  -29.9200 C.3   119  ILE119      0.0252
      6  CG1        9.8090   -8.9480  -29.5700 C.3   119  ILE119      0.0019
      7  CG2       11.1500   -6.8840  -28.8750 C.3   119  ILE119      0.0019
      8  CD1       10.0420   -9.8460  -28.4410 C.3   119  ILE119      0.0001
      9  N          5.4420   -8.0670  -25.6500 N.3   130  SER130     -0.1202
     10  CA         5.4520   -8.9620  -24.4880 C.3   130  SER130      0.2020
     11  C          6.8690   -9.5680  -24.3840 C.2   130  SER130      0.2619
     12  O          7.7240   -9.3790  -25.2850 O.2   130  SER130     -0.2717
     13  CB         4.4740  -10.0990  -24.7180 C.3   130  SER130      0.2103
     14  OG         4.9580  -10.9400  -25.7600 O.3   130  SER130     -0.2182
     15  N          7.0840  -10.3660  -23.3280 N.am  131  LYS131     -0.1966
     16  CA         8.3060  -11.1350  -23.1760 C.3   131  LYS131      0.1713
     17  C          8.2830  -12.1070  -24.3720 C.2   131  LYS131      0.2458
     18  O          7.1840  -12.5100  -24.7750 O.2   131  LYS131     -0.2730
     19  CB         8.2840  -11.9000  -21.8370 C.3   131  LYS131      0.0311
     20  CG         8.8070  -11.0780  -20.6590 C.3   131  LYS131      0.0038
     21  CD        10.3500  -10.8030  -20.7640 C.3   131  LYS131      0.0206
     22  CE        10.9010   -9.8540  -19.7290 C.3   131  LYS131      0.1093
     23  NZ        10.2880   -8.5030  -19.8130 N.3   131  LYS131     -0.1314
     24  N          9.4290  -12.4170  -25.0280 N.am  132  PRO132     -0.2727
     25  CA         9.3620  -13.2880  -26.2170 C.3   132  PRO132      0.1402
     26  C          8.8220  -14.6930  -25.9700 C.2   132  PRO132      0.2269
     27  O          9.0290  -15.2830  -24.9050 O.2   132  PRO132     -0.2865
     28  CB        10.7960  -13.3050  -26.7640 C.3   132  PRO132      0.0296
     29  CG        11.6320  -12.7120  -25.7350 C.3   132  PRO132      0.0237
     30  CD        10.8070  -11.9710  -24.7460 C.3   132  PRO132      0.0939
     31  N          9.3220  -16.9200  -28.4970 N.3   134  LYS134     -0.1231
     32  CA        10.2650  -17.6270  -29.3640 C.3   134  LYS134      0.1693
     33  C         11.4660  -16.7450  -29.6140 C.2   134  LYS134      0.2592
     34  O         11.3080  -15.5470  -29.8420 O.2   134  LYS134     -0.2718
     35  CB         9.6250  -18.0580  -30.6990 C.3   134  LYS134      0.0285
     36  CG        10.5610  -18.8990  -31.5840 C.3   134  LYS134      0.0035
     37  CD         9.9100  -20.1790  -32.0960 C.3   134  LYS134      0.0206
     38  CE        10.9360  -21.1610  -32.6270 C.3   134  LYS134      0.1093
     39  NZ        11.8200  -21.7220  -31.5600 N.3   134  LYS134     -0.1314
     40  N         12.6680  -17.3420  -29.5290 N.am  135  TYR135     -0.1976
     41  CA        13.9540  -16.7250  -29.7970 C.3   135  TYR135      0.1639
     42  C         14.4700  -17.4210  -31.0380 C.2   135  TYR135      0.2290
     43  O         14.4900  -18.6480  -31.0980 O.2   135  TYR135     -0.2864
     44  CB        14.9110  -16.9110  -28.6120 C.3   135  TYR135      0.0560
     45  CG        16.3050  -16.3370  -28.8040 C.ar  135  TYR135     -0.0198
     46  CD1       16.4890  -15.0160  -29.1990 C.ar  135  TYR135     -0.0009
     47  CD2       17.4380  -17.0830  -28.4840 C.ar  135  TYR135     -0.0009
     48  CE1       17.7640  -14.4650  -29.3090 C.ar  135  TYR135      0.0417
     49  CE2       18.7110  -16.5300  -28.5460 C.ar  135  TYR135      0.0417
     50  CZ        18.8720  -15.2180  -28.9630 C.ar  135  TYR135      0.1957
     51  OH        20.1310  -14.6730  -29.0620 O.3   135  TYR135     -0.2866
     52  N         20.0710  -12.3890  -34.2080 N.3   239  ARG239     -0.1231
     53  CA        19.3060  -13.2610  -33.3310 C.3   239  ARG239      0.1694
     54  C         18.3260  -12.3650  -32.5940 C.2   239  ARG239      0.2593
     55  O         18.7180  -11.4150  -31.9040 O.2   239  ARG239     -0.2718
     56  CB        20.2050  -14.0730  -32.3820 C.3   239  ARG239      0.0321
     57  CG        20.6500  -15.4020  -32.9860 C.3   239  ARG239      0.0489
     58  CD        21.0580  -16.4130  -31.9300 C.3   239  ARG239      0.2205
     59  NE        22.4530  -16.2510  -31.5100 N.pl3 239  ARG239     -0.0865
     60  CZ        22.9340  -16.6020  -30.3170 C.cat 239  ARG239      0.5346
     61  NH1       22.1290  -17.1210  -29.3940 N.pl3 239  ARG239      0.1354
     62  NH2       24.2180  -16.4250  -30.0330 N.pl3 239  ARG239      0.1354
     63  N         17.0480  -12.5970  -32.8650 N.am  240  SER240     -0.1938
     64  CA        15.9610  -11.7900  -32.3460 C.3   240  SER240      0.2055
     65  C         14.8160  -12.6560  -31.8280 C.2   240  SER240      0.2643
     66  O         14.7430  -13.8490  -32.1310 O.2   240  SER240     -0.2714
     67  CB        15.4650  -10.8420  -33.4490 C.3   240  SER240      0.2130
     68  OG        15.3990  -11.4300  -34.7450 O.3   240  SER240     -0.2179
     69  N         13.9060  -12.0390  -31.0890 N.am  241  GLY241     -0.1954
     70  CA        12.7250  -12.7270  -30.5960 C.3   241  GLY241      0.1869
     71  C         11.4100  -12.3220  -31.2450 C.2   241  GLY241      0.2309
     72  O         11.2740  -11.2140  -31.7920 O.2   241  GLY241     -0.2863
     73  N          5.6450  -16.3130  -19.7070 N.3   261  LEU261     -0.1245
     74  CA         6.6530  -16.8540  -18.7860 C.3   261  LEU261      0.1561
     75  C          6.1940  -18.1840  -18.1990 C.2   261  LEU261      0.2260
     76  O          6.9800  -19.1360  -18.1970 O.2   261  LEU261     -0.2867
     77  CB         7.0470  -15.8800  -17.6640 C.3   261  LEU261      0.0270
     78  CG         7.7320  -14.5680  -18.0360 C.3   261  LEU261      0.0019
     79  CD1        8.1290  -13.8210  -16.8000 C.3   261  LEU261      0.0001
     80  CD2        8.9460  -14.7980  -18.9110 C.3   261  LEU261      0.0001
     81  N          6.4870  -21.0080  -20.7400 N.3   264  HIS264     -0.1241
     82  CA         7.8840  -21.3800  -20.9560 C.3   264  HIS264      0.1621
     83  C          8.2960  -22.3310  -19.8220 C.2   264  HIS264      0.2264
     84  O          8.9020  -23.3700  -20.0740 O.2   264  HIS264     -0.2867
     85  CB         8.8050  -20.1480  -20.9430 C.3   264  HIS264      0.0745
     86  CG         8.8920  -19.4230  -22.2550 C.ar  264  HIS264      0.0817
     87  ND1        9.4720  -20.0070  -23.3650 N.ar  264  HIS264     -0.2268
     88  CD2        8.5050  -18.1650  -22.5750 C.ar  264  HIS264      0.1154
     89  CE1        9.3770  -19.1030  -24.3290 C.ar  264  HIS264      0.1986
     90  NE2        8.8130  -17.9800  -23.8960 N.ar  264  HIS264     -0.2212
@<TRIPOS>BOND
     1    68    67    1
     2    52    53    1
     3    67    64    1
     4    53    54    1
     5    53    56    1
     6    57    56    1
     7    57    58    1
     8    63    54   am
     9    63    64    1
    10    38    37    1
    11    38    39    1
    12    54    55    2
    13     1     2    1
    14    64    65    1
    15    66    65    2
    16    37    36    1
    17    58    59    1
    18     4     3    2
    19    65    69   am
    20     3     2    1
    21    72    71    2
    22    36    35    1
    23    59    60    2
    24     2     5    1
    25    71    70    1
    26    43    42    2
    27    69    70    1
    28    42    41    1
    29    35    32    1
    30    60    62    1
    31    60    61    1
    32     5     6    1
    33     5     7    1
    34    34    33    2
    35    41    40    1
    36    41    44    1
    37    33    40   am
    38    33    32    1
    39     6     8    1
    40    32    31    1
    41    48    46   ar
    42    48    50   ar
    43    46    45   ar
    44    51    50    1
    45    50    49   ar
    46    45    44    1
    47    45    47   ar
    48    49    47   ar
    49    28    25    1
    50    28    29    1
    51    25    26    1
    52    25    24    1
    53    26    27    2
    54    14    13    1
    55    29    30    1
    56     9    10    1
    57    12    11    2
    58    24    30    1
    59    24    17   am
    60    18    17    2
    61    13    10    1
    62    10    11    1
    63    11    15   am
    64    17    16    1
    65    89    90   ar
    66    89    87   ar
    67    90    88   ar
    68    87    86   ar
    69    15    16    1
    70    16    19    1
    71    88    86   ar
    72    86    85    1
    73    19    20    1
    74    82    85    1
    75    82    81    1
    76    82    83    1
    77    21    20    1
    78    21    22    1
    79    84    83    2
    80    23    22    1
    81    73    74    1
    82    80    78    1
    83    74    75    1
    84    74    77    1
    85    75    76    2
    86    78    77    1
    87    78    79    1
