@<TRIPOS>MOLECULE
tmp/5tpaA01.pdb
 99 94 0 0 0
SMALL
GASTEIGER

@<TRIPOS>ATOM
      1  N         15.0780  -14.5020  -15.7060 N.3   108  ILE108     -0.1245
      2  CA        13.7080  -14.0030  -15.7390 C.3   108  ILE108      0.1561
      3  C         12.7870  -15.1800  -15.4420 C.2   108  ILE108      0.2260
      4  O         12.8680  -16.2090  -16.1000 O.2   108  ILE108     -0.2867
      5  CB        13.3560  -13.3510  -17.1190 C.3   108  ILE108      0.0252
      6  CG1       14.1990  -12.0660  -17.3790 C.3   108  ILE108      0.0019
      7  CG2       11.8310  -13.0610  -17.2240 C.3   108  ILE108      0.0019
      8  CD1       14.3250  -11.6290  -18.8100 C.3   108  ILE108      0.0001
      9  N         14.2650   -6.5150  -21.4740 N.3   120  VAL120     -0.1231
     10  CA        14.1370   -7.5670  -22.4790 C.3   120  VAL120      0.1678
     11  C         15.2450   -8.6090  -22.1690 C.2   120  VAL120      0.2434
     12  O         16.2610   -8.2130  -21.6020 O.2   120  VAL120     -0.2733
     13  CB        14.1970   -7.0360  -23.9390 C.3   120  VAL120      0.0265
     14  CG1       13.0220   -6.1080  -24.2340 C.3   120  VAL120      0.0020
     15  CG2       15.5340   -6.3690  -24.2590 C.3   120  VAL120      0.0020
     16  N         15.0710   -9.9240  -22.4580 N.am  121  PRO121     -0.2718
     17  CA        16.1620  -10.8830  -22.1690 C.3   121  PRO121      0.1535
     18  C         17.3740  -10.5610  -23.0220 C.2   121  PRO121      0.2599
     19  O         17.1910  -10.1830  -24.1790 O.2   121  PRO121     -0.2715
     20  CB        15.5640  -12.2260  -22.5640 C.3   121  PRO121      0.0310
     21  CG        14.4700  -11.8630  -23.5570 C.3   121  PRO121      0.0237
     22  CD        13.9240  -10.5720  -23.1290 C.3   121  PRO121      0.0939
     23  N         18.6030  -10.6470  -22.4760 N.am  122  PHE122     -0.1960
     24  CA        19.7480  -10.2780  -23.3270 C.3   122  PHE122      0.1771
     25  C         20.7470  -11.4120  -23.4840 C.2   122  PHE122      0.2619
     26  O         21.7500  -11.2660  -24.1790 O.2   122  PHE122     -0.2715
     27  CB        20.4130   -8.9690  -22.8780 C.3   122  PHE122      0.0574
     28  CG        20.9190   -8.9950  -21.4690 C.ar  122  PHE122     -0.0200
     29  CD1       22.1990   -9.4450  -21.1840 C.ar  122  PHE122     -0.0042
     30  CD2       20.1170   -8.5690  -20.4190 C.ar  122  PHE122     -0.0042
     31  CE1       22.6550   -9.5000  -19.8650 C.ar  122  PHE122     -0.0003
     32  CE2       20.5780   -8.6110  -19.1070 C.ar  122  PHE122     -0.0003
     33  CZ        21.8450   -9.0720  -18.8370 C.ar  122  PHE122     -0.0000
     34  N         20.4880  -12.5240  -22.7910 N.am  123  VAL123     -0.1963
     35  CA        21.2620  -13.7650  -22.8560 C.3   123  VAL123      0.1727
     36  C         20.2210  -14.8620  -22.7650 C.2   123  VAL123      0.2616
     37  O         19.4200  -14.8510  -21.8330 O.2   123  VAL123     -0.2715
     38  CB        22.3460  -13.9660  -21.7510 C.3   123  VAL123      0.0290
     39  CG1       23.0100  -15.3460  -21.8610 C.3   123  VAL123      0.0023
     40  CG2       23.3930  -12.8660  -21.7530 C.3   123  VAL123      0.0023
     41  N         20.2390  -15.7960  -23.7310 N.am  124  GLU124     -0.1977
     42  CA        19.3800  -16.9570  -23.7130 C.3   124  GLU124      0.1602
     43  C         19.9140  -17.9530  -22.6670 C.2   124  GLU124      0.2287
     44  O         21.1140  -18.2670  -22.6360 O.2   124  GLU124     -0.2864
     45  CB        19.3270  -17.6310  -25.0750 C.3   124  GLU124      0.0415
     46  CG        18.3940  -18.8390  -25.0910 C.3   124  GLU124      0.1163
     47  CD        18.4230  -19.6610  -26.3630 C.2   124  GLU124      0.3649
     48  OE1       19.5230  -19.8300  -26.9370 O.co2 124  GLU124     -0.2457
     49  OE2       17.3460  -20.1490  -26.7760 O.co2 124  GLU124     -0.2457
     50  N         13.2060  -22.6510  -21.4380 N.3   233  THR233     -0.1203
     51  CA        13.9840  -21.5210  -21.9470 C.3   233  THR233      0.1994
     52  C         13.4200  -20.1870  -21.4420 C.2   233  THR233      0.2619
     53  O         12.2060  -19.9680  -21.3560 O.2   233  THR233     -0.2717
     54  CB        14.1990  -21.5810  -23.4820 C.3   233  THR233      0.1784
     55  OG1       15.1450  -20.5840  -23.8860 O.3   233  THR233     -0.2211
     56  CG2       12.9190  -21.4260  -24.2800 C.3   233  THR233      0.0376
     57  N         14.3330  -19.3220  -21.0830 N.am  234  THR234     -0.1938
     58  CA        14.0870  -18.0040  -20.5350 C.3   234  THR234      0.2028
     59  C         15.3540  -17.1970  -20.8610 C.2   234  THR234      0.2642
     60  O         16.1260  -17.6060  -21.7330 O.2   234  THR234     -0.2714
     61  CB        13.7760  -18.1380  -19.0160 C.3   234  THR234      0.1808
     62  OG1       13.5890  -16.8390  -18.4950 O.3   234  THR234     -0.2208
     63  CG2       14.9010  -18.8650  -18.2210 C.3   234  THR234      0.0379
     64  N         15.5980  -16.1100  -20.1440 N.am  235  GLY235     -0.1954
     65  CA        16.8100  -15.3540  -20.3820 C.3   235  GLY235      0.1869
     66  C         17.3030  -14.5950  -19.1890 C.2   235  GLY235      0.2309
     67  O         16.6380  -14.5680  -18.1550 O.2   235  GLY235     -0.2863
     68  N         17.9250   -3.5090  -27.4360 N.3   255  LEU255     -0.1245
     69  CA        17.4870   -3.8200  -28.8060 C.3   255  LEU255      0.1561
     70  C         18.3240   -3.0620  -29.8480 C.2   255  LEU255      0.2260
     71  O         18.5640   -3.5970  -30.9270 O.2   255  LEU255     -0.2867
     72  CB        15.9790   -3.5650  -29.0100 C.3   255  LEU255      0.0270
     73  CG        15.0410   -4.3180  -28.0700 C.3   255  LEU255      0.0019
     74  CD1       13.6990   -3.6340  -27.9580 C.3   255  LEU255      0.0001
     75  CD2       14.9320   -5.7680  -28.4360 C.3   255  LEU255      0.0001
     76  N         21.6750   -5.0450  -30.2190 N.3   258  VAL258     -0.1245
     77  CA        21.4330   -6.2350  -31.0660 C.3   258  VAL258      0.1561
     78  C         21.4560   -5.8160  -32.5530 C.2   258  VAL258      0.2260
     79  O         22.1040   -6.4710  -33.3730 O.2   258  VAL258     -0.2867
     80  CB        20.0880   -6.9680  -30.7280 C.3   258  VAL258      0.0252
     81  CG1       19.9320   -8.2660  -31.5260 C.3   258  VAL258      0.0019
     82  CG2       19.9450   -7.2260  -29.2360 C.3   258  VAL258      0.0019
     83  N         25.9490   -6.8930  -29.5360 N.3   263  MET263     -0.1245
     84  CA        25.6790   -8.1030  -28.7630 C.3   263  MET263      0.1570
     85  C         26.5970   -9.2460  -29.1620 C.2   263  MET263      0.2261
     86  O         27.2310   -9.8410  -28.2910 O.2   263  MET263     -0.2867
     87  CB        24.2100   -8.5390  -28.9000 C.3   263  MET263      0.0387
     88  CG        23.2560   -7.7340  -28.0520 C.3   263  MET263      0.0595
     89  SD        23.7490   -7.4570  -26.3240 S.3   263  MET263     -0.1393
     90  CE        23.7090   -9.1200  -25.7150 C.3   263  MET263      0.0692
     91  N         29.3560  -11.5060  -27.1090 N.3   267  GLU267     -0.1245
     92  CA        29.1870  -12.9510  -27.0980 C.3   267  GLU267      0.1567
     93  C         30.4660  -13.6070  -27.5890 C.2   267  GLU267      0.2260
     94  O         30.8950  -14.6040  -27.0080 O.2   267  GLU267     -0.2867
     95  CB        27.9880  -13.3600  -27.9790 C.3   267  GLU267      0.0388
     96  CG        26.6210  -13.0230  -27.3900 C.3   267  GLU267      0.1160
     97  CD        25.4530  -13.0790  -28.3610 C.2   267  GLU267      0.3649
     98  OE1       24.5290  -12.2440  -28.2240 O.co2 267  GLU267     -0.2457
     99  OE2       25.4560  -13.9570  -29.2550 O.co2 267  GLU267     -0.2457
@<TRIPOS>BOND
     1    79    78    2
     2    78    77    1
     3    81    80    1
     4    77    80    1
     5    77    76    1
     6    71    70    2
     7    80    82    1
     8    70    69    1
     9    83    84    1
    10    99    97   ar
    11    85    84    1
    12    85    86    2
    13    72    69    1
    14    72    73    1
    15    87    84    1
    16    87    88    1
    17    69    68    1
    18    75    73    1
    19    97    98   ar
    20    97    96    1
    21    73    74    1
    22    88    89    1
    23    95    96    1
    24    95    92    1
    25    93    92    1
    26    93    94    2
    27    91    92    1
    28    48    47   ar
    29    49    47   ar
    30    47    46    1
    31    89    90    1
    32    46    45    1
    33    45    42    1
    34    56    54    1
    35    15    13    1
    36    14    13    1
    37    19    18    2
    38    26    25    2
    39    13    10    1
    40    55    54    1
    41    41    42    1
    42    41    36   am
    43    42    43    1
    44    21    22    1
    45    21    20    1
    46    25    24    1
    47    25    34   am
    48    54    51    1
    49    24    27    1
    50    24    23    1
    51    22    16    1
    52    18    23   am
    53    18    17    1
    54    27    28    1
    55    35    34    1
    56    35    36    1
    57    35    38    1
    58    36    37    2
    59    43    44    2
    60    20    17    1
    61    10    11    1
    62    10     9    1
    63    16    17    1
    64    16    11   am
    65    11    12    2
    66    51    52    1
    67    51    50    1
    68    39    38    1
    69    40    38    1
    70    60    59    2
    71    28    29   ar
    72    28    30   ar
    73    52    53    2
    74    52    57   am
    75    29    31   ar
    76    57    58    1
    77    59    58    1
    78    59    64   am
    79    58    61    1
    80    30    32   ar
    81    65    64    1
    82    65    66    1
    83    31    33   ar
    84    66    67    2
    85    32    33   ar
    86    61    62    1
    87    61    63    1
    88     8     6    1
    89     6     5    1
    90     7     5    1
    91     5     2    1
    92     4     3    2
    93     2     1    1
    94     2     3    1
