@<TRIPOS>MOLECULE
tmp/5tpbB00.pdb
 107 108 0 0 0
SMALL
GASTEIGER

@<TRIPOS>ATOM
      1  N         48.8410   13.1320   61.7450 N.3   241  TYR241     -0.1241
      2  CA        47.8550   13.3180   60.6810 C.3   241  TYR241      0.1605
      3  C         48.1660   14.5720   59.8740 C.2   241  TYR241      0.2264
      4  O         48.1310   14.5400   58.6420 O.2   241  TYR241     -0.2867
      5  CB        46.4340   13.3840   61.2440 C.3   241  TYR241      0.0534
      6  CG        45.3770   13.4300   60.1740 C.ar  241  TYR241     -0.0201
      7  CD1       44.8530   12.2560   59.6340 C.ar  241  TYR241     -0.0009
      8  CD2       44.9070   14.6440   59.6870 C.ar  241  TYR241     -0.0009
      9  CE1       43.8880   12.2920   58.6410 C.ar  241  TYR241      0.0417
     10  CE2       43.9450   14.6910   58.6940 C.ar  241  TYR241      0.0417
     11  CZ        43.4360   13.5130   58.1770 C.ar  241  TYR241      0.1957
     12  OH        42.4810   13.5590   57.1910 O.3   241  TYR241     -0.2866
     13  N         42.1960   15.9650   67.3930 N.3   367  PHE367     -0.1227
     14  CA        41.6990   17.3070   67.1170 C.3   367  PHE367      0.1736
     15  C         40.4150   17.2760   66.2930 C.2   367  PHE367      0.2595
     16  O         40.0270   16.2390   65.7510 O.2   367  PHE367     -0.2718
     17  CB        42.7790   18.1390   66.4100 C.3   367  PHE367      0.0547
     18  CG        43.0310   17.7310   64.9810 C.ar  367  PHE367     -0.0202
     19  CD1       43.9740   16.7600   64.6760 C.ar  367  PHE367     -0.0042
     20  CD2       42.3320   18.3310   63.9410 C.ar  367  PHE367     -0.0042
     21  CE1       44.2160   16.3940   63.3580 C.ar  367  PHE367     -0.0003
     22  CE2       42.5640   17.9640   62.6270 C.ar  367  PHE367     -0.0003
     23  CZ        43.5090   16.9960   62.3350 C.ar  367  PHE367     -0.0000
     24  N         39.7520   18.4250   66.2140 N.am  368  HIS368     -0.1961
     25  CA        38.5070   18.5630   65.4660 C.3   368  HIS368      0.1787
     26  C         38.3050   20.0250   65.0940 C.2   368  HIS368      0.2620
     27  O         38.6280   20.9200   65.8780 O.2   368  HIS368     -0.2715
     28  CB        37.3240   18.0810   66.3120 C.3   368  HIS368      0.0785
     29  CG        36.0190   18.0340   65.5710 C.ar  368  HIS368      0.0821
     30  ND1       35.7630   17.1170   64.5750 N.ar  368  HIS368     -0.2267
     31  CD2       34.8960   18.7820   65.6900 C.ar  368  HIS368      0.1154
     32  CE1       34.5410   17.3050   64.1100 C.ar  368  HIS368      0.1986
     33  NE2       33.9950   18.3110   64.7680 N.ar  368  HIS368     -0.2212
     34  N         37.7580   20.2600   63.9030 N.am  369  GLN369     -0.1977
     35  CA        37.5200   21.6160   63.4220 C.3   369  GLN369      0.1601
     36  C         36.2710   22.2070   64.0690 C.2   369  GLN369      0.2287
     37  O         35.1850   21.6370   63.9660 O.2   369  GLN369     -0.2864
     38  CB        37.3440   21.6380   61.9040 C.3   369  GLN369      0.0394
     39  CG        38.5050   21.0500   61.1060 C.3   369  GLN369      0.0908
     40  CD        39.7440   21.9370   61.0530 C.2   369  GLN369      0.2608
     41  OE1       39.6490   23.1630   60.9550 O.2   369  GLN369     -0.2717
     42  NE2       40.9170   21.3130   61.0720 N.am  369  GLN369     -0.0878
     43  N         34.9790    8.7410   69.3700 N.3   381  TRP381     -0.1227
     44  CA        34.9800    8.5320   67.9270 C.3   381  TRP381      0.1737
     45  C         36.2750    7.8870   67.4230 C.2   381  TRP381      0.2595
     46  O         36.2300    6.9930   66.5800 O.2   381  TRP381     -0.2718
     47  CB        34.7250    9.8510   67.1930 C.3   381  TRP381      0.0564
     48  CG        34.6080    9.6700   65.7290 C.ar  381  TRP381      0.0003
     49  CD1       33.4640    9.4900   65.0140 C.ar  381  TRP381      0.0946
     50  CD2       35.6860    9.6290   64.7910 C.ar  381  TRP381      0.0152
     51  NE1       33.7600    9.3480   63.6830 N.ar  381  TRP381     -0.2442
     52  CE2       35.1190    9.4250   63.5190 C.ar  381  TRP381      0.0810
     53  CE3       37.0800    9.7460   64.9030 C.ar  381  TRP381      0.0012
     54  CZ2       35.8970    9.3400   62.3620 C.ar  381  TRP381      0.0191
     55  CZ3       37.8490    9.6620   63.7580 C.ar  381  TRP381      0.0001
     56  CH2       37.2560    9.4610   62.5020 C.ar  381  TRP381      0.0015
     57  N         37.4150    8.3390   67.9390 N.am  382  TYR382     -0.1976
     58  CA        38.7010    7.6960   67.6480 C.3   382  TYR382      0.1639
     59  C         38.7410    6.2370   68.0970 C.2   382  TYR382      0.2290
     60  O         39.3640    5.3980   67.4460 O.2   382  TYR382     -0.2864
     61  CB        39.8550    8.4470   68.3200 C.3   382  TYR382      0.0560
     62  CG        40.1140    9.8160   67.7520 C.ar  382  TYR382     -0.0198
     63  CD1       40.3470    9.9940   66.3910 C.ar  382  TYR382     -0.0009
     64  CD2       40.1380   10.9380   68.5740 C.ar  382  TYR382     -0.0009
     65  CE1       40.5920   11.2490   65.8690 C.ar  382  TYR382      0.0417
     66  CE2       40.3830   12.2000   68.0600 C.ar  382  TYR382      0.0417
     67  CZ        40.6120   12.3470   66.7070 C.ar  382  TYR382      0.1957
     68  OH        40.8600   13.5920   66.1860 O.3   382  TYR382     -0.2866
     69  N         37.0210    3.8250   65.7260 N.3   385  GLN385     -0.1245
     70  CA        37.6540    3.5450   64.4210 C.3   385  GLN385      0.1566
     71  C         38.6520    2.3840   64.4980 C.2   385  GLN385      0.2260
     72  O         39.7330    2.5110   65.0790 O.2   385  GLN385     -0.2867
     73  CB        38.3630    4.7910   63.8670 C.3   385  GLN385      0.0367
     74  CG        37.4830    6.0310   63.7170 C.3   385  GLN385      0.0905
     75  CD        36.3850    5.8730   62.6750 C.2   385  GLN385      0.2608
     76  OE1       36.6590    5.6590   61.4940 O.2   385  GLN385     -0.2717
     77  NE2       35.1370    5.9890   63.1080 N.am  385  GLN385     -0.0878
     78  N         42.1150    6.5960   56.9270 N.3   386  ARG386     -0.1231
     79  CA        42.3650    5.5820   57.9440 C.3   386  ARG386      0.1694
     80  C         43.3230    6.0980   59.0130 C.2   386  ARG386      0.2593
     81  O         43.3170    5.6210   60.1480 O.2   386  ARG386     -0.2718
     82  CB        42.9250    4.3090   57.3060 C.3   386  ARG386      0.0321
     83  CG        41.8660    3.3910   56.7180 C.3   386  ARG386      0.0489
     84  CD        40.8790    2.9350   57.7800 C.3   386  ARG386      0.2205
     85  NE        41.4690    1.9590   58.6920 N.pl3 386  ARG386     -0.0865
     86  CZ        40.8720    1.5050   59.7890 C.cat 386  ARG386      0.5346
     87  NH1       41.4840    0.6160   60.5600 N.pl3 386  ARG386      0.1354
     88  NH2       39.6620    1.9390   60.1160 N.pl3 386  ARG386      0.1354
     89  N         44.1460    7.0740   58.6430 N.am  387  THR387     -0.1939
     90  CA        45.0920    7.6450   59.5510 C.3   387  THR387      0.2028
     91  C         44.2010    8.5250   60.3350 C.2   387  THR387      0.2642
     92  O         43.2720    9.0730   59.8110 O.2   387  THR387     -0.2714
     93  CB        46.1250    8.5020   58.8360 C.3   387  THR387      0.1808
     94  OG1       46.8510    7.6880   57.9150 O.3   387  THR387     -0.2208
     95  CG2       47.0670    9.0670   59.8010 C.3   387  THR387      0.0379
     96  N         44.4620    8.6230   61.6120 N.am  388  LEU388     -0.1963
     97  CA        43.6000    9.3660   62.4790 C.3   388  LEU388      0.1728
     98  C         44.2970   10.5540   63.0930 C.2   388  LEU388      0.2616
     99  O         45.5080   10.6750   63.1200 O.2   388  LEU388     -0.2715
    100  CB        43.0480    8.4660   63.5730 C.3   388  LEU388      0.0311
    101  CG        42.0320    7.4070   63.1540 C.3   388  LEU388      0.0022
    102  CD1       41.8010    6.3740   64.2390 C.3   388  LEU388      0.0001
    103  CD2       40.7330    7.9810   62.6220 C.3   388  LEU388      0.0001
    104  N         43.4800   11.4390   63.5870 N.am  389  GLY389     -0.1955
    105  CA        43.9500   12.6090   64.3160 C.3   389  GLY389      0.1869
    106  C         44.6840   12.3530   65.6250 C.2   389  GLY389      0.2309
    107  O         45.2410   13.2890   66.1930 O.2   389  GLY389     -0.2863
@<TRIPOS>BOND
     1    83    82    1
     2    83    84    1
     3    78    79    1
     4    12    11    1
     5    82    79    1
     6    84    85    1
     7    94    93    1
     8    79    80    1
     9    11     9   ar
    10    11    10   ar
    11     9     7   ar
    12     4     3    2
    13    89    80   am
    14    89    90    1
    15    85    86    2
    16    10     8   ar
    17    93    90    1
    18    93    95    1
    19    80    81    2
    20    90    91    1
    21     7     6   ar
    22     8     6   ar
    23    86    88    1
    24    86    87    1
    25    92    91    2
    26     3     2    1
    27     6     5    1
    28    91    96   am
    29     2     5    1
    30     2     1    1
    31    41    40    2
    32    40    42   am
    33    40    39    1
    34    39    38    1
    35    76    75    2
    36    96    97    1
    37    38    35    1
    38    23    22   ar
    39    23    21   ar
    40    54    56   ar
    41    54    52   ar
    42    97    98    1
    43    97   100    1
    44    56    55   ar
    45   103   101    1
    46    22    20   ar
    47    75    77   am
    48    75    74    1
    49    98    99    2
    50    98   104   am
    51   101   100    1
    52   101   102    1
    53    21    19   ar
    54    35    34    1
    55    35    36    1
    56    52    51   ar
    57    52    50   ar
    58   104   105    1
    59    51    49   ar
    60    74    73    1
    61    55    53   ar
    62    73    70    1
    63    34    26   am
    64    20    18   ar
    65    37    36    2
    66    32    30   ar
    67    32    33   ar
    68   105   106    1
    69    70    71    1
    70    70    69    1
    71    71    72    2
    72    30    29   ar
    73    19    18   ar
    74    33    31   ar
    75    50    53   ar
    76    50    48   ar
    77    18    17    1
    78    49    48   ar
    79    26    25    1
    80    26    27    2
    81    25    24    1
    82    25    28    1
    83    29    31   ar
    84    29    28    1
    85   106   107    2
    86    48    47    1
    87    16    15    2
    88    65    63   ar
    89    65    67   ar
    90    68    67    1
    91    24    15   am
    92    15    14    1
    93    63    62   ar
    94    17    14    1
    95    46    45    2
    96    67    66   ar
    97    14    13    1
    98    47    44    1
    99    45    44    1
   100    45    57   am
   101    60    59    2
   102    58    57    1
   103    58    59    1
   104    58    61    1
   105    62    61    1
   106    62    64   ar
   107    44    43    1
   108    66    64   ar
