@<TRIPOS>MOLECULE
tmp/5tpcA02.pdb
 97 98 0 0 0
SMALL
GASTEIGER

@<TRIPOS>ATOM
      1  N          7.9610   13.4040   13.7990 N.3   245  TYR245     -0.1227
      2  CA         6.5800   13.1470   14.1950 C.3   245  TYR245      0.1736
      3  C          6.2990   13.7640   15.5600 C.2   245  TYR245      0.2595
      4  O          5.2530   14.3760   15.7600 O.2   245  TYR245     -0.2718
      5  CB         6.2260   11.6570   14.2210 C.3   245  TYR245      0.0548
      6  CG         4.7240   11.4430   14.3530 C.ar  245  TYR245     -0.0200
      7  CD1        4.1150   11.3760   15.6060 C.ar  245  TYR245     -0.0009
      8  CD2        3.9080   11.3510   13.2160 C.ar  245  TYR245     -0.0009
      9  CE1        2.7440   11.2140   15.7320 C.ar  245  TYR245      0.0417
     10  CE2        2.5320   11.1810   13.3330 C.ar  245  TYR245      0.0417
     11  CZ         1.9570   11.1160   14.5930 C.ar  245  TYR245      0.1957
     12  OH         0.5910   10.9520   14.7300 O.3   245  TYR245     -0.2866
     13  N          7.2390   13.5900   16.4900 N.am  246  ASP246     -0.1974
     14  CA         7.1210   14.1550   17.8410 C.3   246  ASP246      0.1709
     15  C          8.2400   15.1560   18.1250 C.2   246  ASP246      0.2293
     16  O          9.1830   14.8230   18.8470 O.2   246  ASP246     -0.2864
     17  CB         7.1890   13.0500   18.8850 C.3   246  ASP246      0.1436
     18  CG         5.8260   12.5610   19.3010 C.2   246  ASP246      0.3671
     19  OD1        5.0070   13.3760   19.7910 O.co2 246  ASP246     -0.2456
     20  OD2        5.5830   11.3460   19.1620 O.co2 246  ASP246     -0.2456
     21  N          9.6370    4.8960   16.3700 N.3   380  PHE380     -0.1227
     22  CA         9.2140    4.6170   17.7430 C.3   380  PHE380      0.1736
     23  C          7.8520    3.9150   17.7900 C.2   380  PHE380      0.2595
     24  O          7.1070    3.9210   16.8040 O.2   380  PHE380     -0.2718
     25  CB         9.1820    5.9100   18.5680 C.3   380  PHE380      0.0547
     26  CG         8.1690    6.9160   18.0810 C.ar  380  PHE380     -0.0202
     27  CD1        8.5020    7.8260   17.0920 C.ar  380  PHE380     -0.0042
     28  CD2        6.8850    6.9540   18.6240 C.ar  380  PHE380     -0.0042
     29  CE1        7.5800    8.7570   16.6410 C.ar  380  PHE380     -0.0003
     30  CE2        5.9580    7.8820   18.1750 C.ar  380  PHE380     -0.0003
     31  CZ         6.3060    8.7810   17.1780 C.ar  380  PHE380     -0.0000
     32  N          7.5400    3.3150   18.9360 N.am  381  HIS381     -0.1961
     33  CA         6.2670    2.6180   19.1440 C.3   381  HIS381      0.1787
     34  C          5.9030    2.6350   20.6290 C.2   381  HIS381      0.2620
     35  O          6.7770    2.5140   21.4850 O.2   381  HIS381     -0.2715
     36  CB         6.3800    1.1790   18.6310 C.3   381  HIS381      0.0785
     37  CG         5.0660    0.4610   18.4960 C.ar  381  HIS381      0.0821
     38  ND1        4.0740    0.8670   17.6310 N.ar  381  HIS381     -0.2267
     39  CD2        4.6020   -0.6590   19.0960 C.ar  381  HIS381      0.1154
     40  CE1        3.0480    0.0400   17.7170 C.ar  381  HIS381      0.1986
     41  NE2        3.3440   -0.8980   18.5940 N.ar  381  HIS381     -0.2212
     42  N          4.6110    2.7860   20.9210 N.am  382  GLN382     -0.1977
     43  CA         4.1030    2.7840   22.2940 C.3   382  GLN382      0.1601
     44  C          4.0500    1.3870   22.9110 C.2   382  GLN382      0.2287
     45  O          3.3660    0.5050   22.3930 O.2   382  GLN382     -0.2864
     46  CB         2.6910    3.3860   22.3240 C.3   382  GLN382      0.0394
     47  CG         2.6370    4.8860   22.1060 C.3   382  GLN382      0.0908
     48  CD         3.1300    5.6510   23.3170 C.2   382  GLN382      0.2608
     49  OE1        2.8170    5.3090   24.4580 O.2   382  GLN382     -0.2717
     50  NE2        3.9040    6.6920   23.0730 N.am  382  GLN382     -0.0878
     51  N          7.1370   -2.0520    9.2650 N.3   394  TRP394     -0.1227
     52  CA         5.8750   -1.3350    9.0870 C.3   394  TRP394      0.1737
     53  C          6.0750   -0.0120    8.3500 C.2   394  TRP394      0.2595
     54  O          5.2760    0.3310    7.4780 O.2   394  TRP394     -0.2718
     55  CB         5.1960   -1.0930   10.4390 C.3   394  TRP394      0.0564
     56  CG         3.8520   -0.4120   10.3450 C.ar  394  TRP394      0.0003
     57  CD1        2.6330   -1.0220   10.2310 C.ar  394  TRP394      0.0946
     58  CD2        3.5900    1.0010   10.3660 C.ar  394  TRP394      0.0152
     59  NE1        1.6310   -0.0830   10.1770 N.ar  394  TRP394     -0.2442
     60  CE2        2.1870    1.1660   10.2560 C.ar  394  TRP394      0.0810
     61  CE3        4.4000    2.1390   10.4590 C.ar  394  TRP394      0.0012
     62  CZ2        1.5760    2.4280   10.2380 C.ar  394  TRP394      0.0191
     63  CZ3        3.7950    3.3920   10.4410 C.ar  394  TRP394      0.0001
     64  CH2        2.3910    3.5230   10.3360 C.ar  394  TRP394      0.0015
     65  N          7.1390    0.7180    8.6950 N.am  395  TYR395     -0.1976
     66  CA         7.4660    1.9820    8.0250 C.3   395  TYR395      0.1639
     67  C          7.7730    1.7640    6.5400 C.2   395  TYR395      0.2290
     68  O          7.2610    2.4840    5.6770 O.2   395  TYR395     -0.2864
     69  CB         8.6630    2.6880    8.6960 C.3   395  TYR395      0.0560
     70  CG         8.4250    3.1730   10.1190 C.ar  395  TYR395     -0.0198
     71  CD1        7.5220    4.2050   10.3890 C.ar  395  TYR395     -0.0009
     72  CD2        9.1240    2.6110   11.1930 C.ar  395  TYR395     -0.0009
     73  CE1        7.3060    4.6480   11.6960 C.ar  395  TYR395      0.0417
     74  CE2        8.9250    3.0530   12.5020 C.ar  395  TYR395      0.0417
     75  CZ         8.0160    4.0750   12.7470 C.ar  395  TYR395      0.1957
     76  OH         7.8050    4.5150   14.0460 O.3   395  TYR395     -0.2866
     77  N          2.1980   10.8550    5.1580 N.3   403  SER403     -0.1202
     78  CA         2.3460   11.2030    6.5800 C.3   403  SER403      0.2020
     79  C          2.6560   10.0570    7.5560 C.2   403  SER403      0.2618
     80  O          2.9260   10.2960    8.7370 O.2   403  SER403     -0.2717
     81  CB         1.1390   12.0240    7.0570 C.3   403  SER403      0.2103
     82  OG        -0.0890   11.4400    6.6620 O.3   403  SER403     -0.2182
     83  N          2.6380    8.8230    7.0550 N.am  404  ARG404     -0.1979
     84  CA         2.9380    7.6400    7.8740 C.3   404  ARG404      0.1597
     85  C          4.4440    7.2860    7.9330 C.2   404  ARG404      0.2287
     86  O          4.8450    6.3300    8.6080 O.2   404  ARG404     -0.2864
     87  CB         2.0740    6.4480    7.4280 C.3   404  ARG404      0.0334
     88  CG         0.6240    6.5180    7.9170 C.3   404  ARG404      0.0492
     89  CD        -0.3460    5.7300    7.0380 C.3   404  ARG404      0.2205
     90  NE        -1.1070    6.5700    6.1010 N.pl3 404  ARG404     -0.0865
     91  CZ        -0.7030    6.9220    4.8760 C.cat 404  ARG404      0.5346
     92  NH1        0.4740    6.5230    4.4040 N.pl3 404  ARG404      0.1354
     93  NH2       -1.4810    7.6820    4.1150 N.pl3 404  ARG404      0.1354
     94  N          7.1310    9.2990   11.4670 N.3   407  GLY407     -0.1225
     95  CA         7.7040    8.7090   12.6830 C.3   407  GLY407      0.1811
     96  C          9.1210    8.1750   12.5500 C.2   407  GLY407      0.2280
     97  O          9.8230    7.9890   13.5490 O.2   407  GLY407     -0.2866
@<TRIPOS>BOND
     1    93    91    1
     2    92    91    1
     3    91    90    2
     4    77    78    1
     5    68    67    2
     6    90    89    1
     7    67    66    1
     8    78    81    1
     9    78    79    1
    10    82    81    1
    11    89    88    1
    12    83    79   am
    13    83    84    1
    14    87    84    1
    15    87    88    1
    16    54    53    2
    17    79    80    2
    18    84    85    1
    19    85    86    2
    20    66    65    1
    21    66    69    1
    22    53    65   am
    23    53    52    1
    24    69    70    1
    25    52    51    1
    26    52    55    1
    27    70    71   ar
    28    70    72   ar
    29    59    57   ar
    30    59    60   ar
    31    57    56   ar
    32    62    60   ar
    33    62    64   ar
    34    60    58   ar
    35    64    63   ar
    36    56    58   ar
    37    56    55    1
    38    58    61   ar
    39    71    73   ar
    40    63    61   ar
    41    72    74   ar
    42    94    95    1
    43    73    75   ar
    44    74    75   ar
    45    96    95    1
    46    96    97    2
    47    75    76    1
    48     8    10   ar
    49     8     6   ar
    50    10    11   ar
    51     1     2    1
    52     2     5    1
    53     2     3    1
    54     5     6    1
    55     6     7   ar
    56    11    12    1
    57    11     9   ar
    58     3     4    2
    59     3    13   am
    60     7     9   ar
    61    21    22    1
    62    13    14    1
    63    29    27   ar
    64    29    31   ar
    65    24    23    2
    66    27    26   ar
    67    31    30   ar
    68    38    40   ar
    69    38    37   ar
    70    40    41   ar
    71    22    23    1
    72    22    25    1
    73    23    32   am
    74    14    15    1
    75    14    17    1
    76    26    25    1
    77    26    28   ar
    78    15    16    2
    79    30    28   ar
    80    37    36    1
    81    37    39   ar
    82    41    39   ar
    83    36    33    1
    84    17    18    1
    85    32    33    1
    86    33    34    1
    87    20    18   ar
    88    18    19   ar
    89    34    42   am
    90    34    35    2
    91    42    43    1
    92    47    46    1
    93    47    48    1
    94    43    46    1
    95    43    44    1
    96    45    44    2
    97    50    48   am
    98    48    49    2
