@<TRIPOS>MOLECULE
tmp/5tpgA00.pdb
 101 101 0 0 0
SMALL
GASTEIGER

@<TRIPOS>ATOM
      1  N          0.9250   -4.1980   18.0530 N.3   112  TYR112     -0.1241
      2  CA         0.8000   -5.6600   18.0540 C.3   112  TYR112      0.1605
      3  C         -0.5710   -6.1050   17.5640 C.2   112  TYR112      0.2264
      4  O         -1.5860   -5.4960   17.8930 O.2   112  TYR112     -0.2867
      5  CB         1.0450   -6.2620   19.4370 C.3   112  TYR112      0.0534
      6  CG         2.4630   -6.1450   19.9520 C.ar  112  TYR112     -0.0201
      7  CD1        3.5100   -6.8520   19.3590 C.ar  112  TYR112     -0.0009
      8  CD2        2.7640   -5.3350   21.0500 C.ar  112  TYR112     -0.0009
      9  CE1        4.8140   -6.7620   19.8440 C.ar  112  TYR112      0.0417
     10  CE2        4.0740   -5.2100   21.5250 C.ar  112  TYR112      0.0417
     11  CZ         5.0980   -5.9290   20.9310 C.ar  112  TYR112      0.1957
     12  OH         6.4040   -5.7930   21.4080 O.3   112  TYR112     -0.2866
     13  N         -1.6740  -12.3270   13.7700 N.3   118  PHE118     -0.1241
     14  CA        -0.3770  -12.1980   13.1150 C.3   118  PHE118      0.1605
     15  C         -0.0210  -13.4520   12.3230 C.2   118  PHE118      0.2264
     16  O          0.3570  -13.3670   11.1300 O.2   118  PHE118     -0.2867
     17  CB         0.7540  -11.8610   14.1030 C.3   118  PHE118      0.0534
     18  CG         2.0540  -11.5790   13.4000 C.ar  118  PHE118     -0.0203
     19  CD1        2.3560  -10.3150   12.9400 C.ar  118  PHE118     -0.0042
     20  CD2        2.9210  -12.6090   13.1380 C.ar  118  PHE118     -0.0042
     21  CE1        3.5370  -10.0690   12.2530 C.ar  118  PHE118     -0.0003
     22  CE2        4.1030  -12.3770   12.4570 C.ar  118  PHE118     -0.0003
     23  CZ         4.3860  -11.1040   12.0070 C.ar  118  PHE118     -0.0000
     24  N          3.0600  -10.2490    5.8220 N.3   127  PHE127     -0.1227
     25  CA         3.7980   -9.8940    7.0060 C.3   127  PHE127      0.1736
     26  C          3.3410   -8.5040    7.4250 C.2   127  PHE127      0.2595
     27  O          3.4630   -7.5410    6.6630 O.2   127  PHE127     -0.2718
     28  CB         5.3170   -9.9490    6.7530 C.3   127  PHE127      0.0547
     29  CG         6.1140  -10.0540    8.0440 C.ar  127  PHE127     -0.0202
     30  CD1        6.3650   -8.9470    8.7710 C.ar  127  PHE127     -0.0042
     31  CD2        6.5390  -11.2880    8.5350 C.ar  127  PHE127     -0.0042
     32  CE1        7.0730   -9.0240    9.9670 C.ar  127  PHE127     -0.0003
     33  CE2        7.2490  -11.3740    9.7210 C.ar  127  PHE127     -0.0003
     34  CZ         7.4820  -10.2400   10.4520 C.ar  127  PHE127     -0.0000
     35  N          2.7880   -8.4180    8.6230 N.am  128  HIS128     -0.1975
     36  CA         2.3630   -7.1100    9.1870 C.3   128  HIS128      0.1656
     37  C          3.5640   -6.3550    9.7450 C.2   128  HIS128      0.2291
     38  O          4.2310   -6.8630   10.6500 O.2   128  HIS128     -0.2864
     39  CB         1.3140   -7.3090   10.2830 C.3   128  HIS128      0.0771
     40  CG         0.0240   -7.8710    9.7840 C.ar  128  HIS128      0.0820
     41  ND1       -1.0750   -7.1100    9.4500 N.ar  128  HIS128     -0.2267
     42  CD2       -0.3150   -9.1430    9.5200 C.ar  128  HIS128      0.1154
     43  CE1       -2.0550   -7.9060    9.0580 C.ar  128  HIS128      0.1986
     44  NE2       -1.6110   -9.1450    9.0860 N.ar  128  HIS128     -0.2212
     45  N          8.4800   -3.3480   18.3290 N.3   145  PRO145     -0.2116
     46  CA         8.9070   -3.4050   16.9490 C.3   145  PRO145      0.1372
     47  C          8.8050   -2.0180   16.3380 C.2   145  PRO145      0.2244
     48  O          7.9050   -1.2500   16.6910 O.2   145  PRO145     -0.2868
     49  CB         7.9270   -4.4030   16.3190 C.3   145  PRO145      0.0268
     50  CG         6.7060   -4.2580   17.1610 C.3   145  PRO145      0.0207
     51  CD         7.2060   -4.0550   18.5440 C.3   145  PRO145      0.0892
     52  N         13.4860   -2.6270   12.5920 N.3   149  HIS149     -0.1226
     53  CA        13.3590   -4.0470   12.8800 C.3   149  HIS149      0.1752
     54  C         12.7090   -4.8310   11.7140 C.2   149  HIS149      0.2595
     55  O         13.1980   -5.8810   11.3000 O.2   149  HIS149     -0.2718
     56  CB        12.5500   -4.2560   14.1590 C.3   149  HIS149      0.0759
     57  CG        12.1340   -5.6710   14.3730 C.ar  149  HIS149      0.0818
     58  ND1       13.0260   -6.7020   14.6050 N.ar  149  HIS149     -0.2268
     59  CD2       10.9090   -6.2360   14.3240 C.ar  149  HIS149      0.1154
     60  CE1       12.3490   -7.8360   14.6990 C.ar  149  HIS149      0.1986
     61  NE2       11.0680   -7.5700   14.5620 N.ar  149  HIS149     -0.2212
     62  N         11.6430   -4.2880   11.1650 N.am  150  GLU150     -0.1979
     63  CA        10.9740   -4.9860   10.0650 C.3   150  GLU150      0.1602
     64  C         11.9170   -5.1000    8.8820 C.2   150  GLU150      0.2287
     65  O         12.0600   -6.1780    8.2900 O.2   150  GLU150     -0.2864
     66  CB         9.7000   -4.2750    9.6200 C.3   150  GLU150      0.0415
     67  CG         8.7140   -3.7940   10.6970 C.3   150  GLU150      0.1163
     68  CD         8.1290   -4.8500   11.5950 C.2   150  GLU150      0.3649
     69  OE1        7.2240   -4.4630   12.3490 O.co2 150  GLU150     -0.2457
     70  OE2        8.5150   -6.0540   11.5860 O.co2 150  GLU150     -0.2457
     71  N         13.5370   -8.6660    9.4010 N.3   154  HIS154     -0.1241
     72  CA        12.6760   -9.6400    8.7050 C.3   154  HIS154      0.1621
     73  C         12.7990   -9.7500    7.1990 C.2   154  HIS154      0.2264
     74  O         12.8560  -10.8500    6.6300 O.2   154  HIS154     -0.2867
     75  CB        11.2140   -9.3700    9.0040 C.3   154  HIS154      0.0745
     76  CG        10.8200   -9.7020   10.4100 C.ar  154  HIS154      0.0817
     77  ND1       10.6540  -11.0020   10.8430 N.ar  154  HIS154     -0.2268
     78  CD2       10.5280   -8.9140   11.4750 C.ar  154  HIS154      0.1154
     79  CE1       10.2980  -10.9940   12.1100 C.ar  154  HIS154      0.1986
     80  NE2       10.2450   -9.7450   12.5180 N.ar  154  HIS154     -0.2212
     81  N          7.5740  -19.8310   16.6020 N.3   189  TYR189     -0.1241
     82  CA         7.9210  -18.6830   15.7640 C.3   189  TYR189      0.1605
     83  C          8.9080  -17.7780   16.5060 C.2   189  TYR189      0.2264
     84  O          9.9550  -17.3600   15.9460 O.2   189  TYR189     -0.2867
     85  CB         6.6420  -17.9090   15.3910 C.3   189  TYR189      0.0534
     86  CG         6.8520  -16.6130   14.6560 C.ar  189  TYR189     -0.0201
     87  CD1        7.1520  -15.4550   15.3280 C.ar  189  TYR189     -0.0009
     88  CD2        6.7260  -16.5530   13.2590 C.ar  189  TYR189     -0.0009
     89  CE1        7.3830  -14.2480   14.6490 C.ar  189  TYR189      0.0417
     90  CE2        6.9330  -15.3620   12.5870 C.ar  189  TYR189      0.0417
     91  CZ         7.2380  -14.2250   13.2740 C.ar  189  TYR189      0.1957
     92  OH         7.4620  -13.0010   12.6130 O.3   189  TYR189     -0.2866
     93  N         11.9880  -15.0490   15.1870 N.3   194  GLU194     -0.1245
     94  CA        12.3520  -13.8610   15.9650 C.3   194  GLU194      0.1567
     95  C         13.7430  -13.9220   16.5970 C.2   194  GLU194      0.2260
     96  O         14.4720  -12.9680   16.5030 O.2   194  GLU194     -0.2867
     97  CB        11.2890  -13.4820   17.0100 C.3   194  GLU194      0.0388
     98  CG        11.1980  -12.0130   17.2190 C.3   194  GLU194      0.1160
     99  CD        10.4080  -11.3240   16.1310 C.2   194  GLU194      0.3649
    100  OE1        9.3320  -11.8640   15.7950 O.co2 194  GLU194     -0.2457
    101  OE2       10.8210  -10.2490   15.6490 O.co2 194  GLU194     -0.2457
@<TRIPOS>BOND
     1    24    25    1
     2    74    73    2
     3    27    26    2
     4    28    25    1
     5    28    29    1
     6    25    26    1
     7    73    72    1
     8    26    35   am
     9    29    31   ar
    10    29    30   ar
    11    65    64    2
    12    31    33   ar
    13    35    36    1
    14    72    75    1
    15    72    71    1
    16    30    32   ar
    17    64    63    1
    18    75    76    1
    19    43    44   ar
    20    43    41   ar
    21    44    42   ar
    22    36    37    1
    23    36    39    1
    24    41    40   ar
    25    42    40   ar
    26    66    63    1
    27    66    67    1
    28    33    34   ar
    29    37    38    2
    30    40    39    1
    31    32    34   ar
    32    63    62    1
    33    76    77   ar
    34    76    78   ar
    35    67    68    1
    36    77    79   ar
    37    16    15    2
    38    62    54   am
    39    55    54    2
    40    78    80   ar
    41    70    68   ar
    42    68    69   ar
    43    54    53    1
    44    23    21   ar
    45    23    22   ar
    46    79    80   ar
    47    21    19   ar
    48    15    14    1
    49    22    20   ar
    50    90    88   ar
    51    90    91   ar
    52    52    53    1
    53    92    91    1
    54    53    56    1
    55    19    18   ar
    56    14    13    1
    57    14    17    1
    58    20    18   ar
    59    88    86   ar
    60    91    89   ar
    61    18    17    1
    62    56    57    1
    63    59    57   ar
    64    59    61   ar
    65    57    58   ar
    66    61    60   ar
    67    58    60   ar
    68    89    87   ar
    69    86    87   ar
    70    86    85    1
    71    93    94    1
    72    85    82    1
    73   101    99   ar
    74    82    83    1
    75    82    81    1
    76   100    99   ar
    77    84    83    2
    78    94    95    1
    79    94    97    1
    80    99    98    1
    81    49    46    1
    82    49    50    1
    83    47    48    2
    84    47    46    1
    85    96    95    2
    86    46    45    1
    87    97    98    1
    88    50    51    1
    89     3     4    2
    90     3     2    1
    91     1     2    1
    92     2     5    1
    93    45    51    1
    94     7     9   ar
    95     7     6   ar
    96     5     6    1
    97     9    11   ar
    98     6     8   ar
    99    11    12    1
   100    11    10   ar
   101     8    10   ar
