@<TRIPOS>MOLECULE
tmp/5tpgA01.pdb
 226 223 0 0 0
SMALL
GASTEIGER

@<TRIPOS>ATOM
      1  N          0.9250   -4.1980   18.0530 N.3   112  TYR112     -0.1227
      2  CA         0.8000   -5.6600   18.0540 C.3   112  TYR112      0.1736
      3  C         -0.5710   -6.1050   17.5640 C.2   112  TYR112      0.2595
      4  O         -1.5860   -5.4960   17.8930 O.2   112  TYR112     -0.2718
      5  CB         1.0450   -6.2620   19.4370 C.3   112  TYR112      0.0548
      6  CG         2.4630   -6.1450   19.9520 C.ar  112  TYR112     -0.0200
      7  CD1        3.5100   -6.8520   19.3590 C.ar  112  TYR112     -0.0009
      8  CD2        2.7640   -5.3350   21.0500 C.ar  112  TYR112     -0.0009
      9  CE1        4.8140   -6.7620   19.8440 C.ar  112  TYR112      0.0417
     10  CE2        4.0740   -5.2100   21.5250 C.ar  112  TYR112      0.0417
     11  CZ         5.0980   -5.9290   20.9310 C.ar  112  TYR112      0.1957
     12  OH         6.4040   -5.7930   21.4080 O.3   112  TYR112     -0.2866
     13  N         -0.5990   -7.1620   16.7540 N.am  113  LEU113     -0.1966
     14  CA        -1.8010   -7.9560   16.6080 C.3   113  LEU113      0.1728
     15  C         -1.7050   -9.0910   17.5910 C.2   113  LEU113      0.2617
     16  O         -0.6280   -9.4250   18.0640 O.2   113  LEU113     -0.2715
     17  CB        -1.9070   -8.5380   15.2180 C.3   113  LEU113      0.0311
     18  CG        -1.9710   -7.5570   14.0780 C.3   113  LEU113      0.0022
     19  CD1       -2.0310   -8.3340   12.7850 C.3   113  LEU113      0.0001
     20  CD2       -3.1950   -6.6650   14.2120 C.3   113  LEU113      0.0001
     21  N         -2.8230   -9.7470   17.8610 N.am  114  SER114     -0.1936
     22  CA        -2.7750  -10.9910   18.6020 C.3   114  SER114      0.2040
     23  C         -1.9140  -12.0140   17.8580 C.2   114  SER114      0.2485
     24  O         -1.8030  -11.9330   16.6290 O.2   114  SER114     -0.2729
     25  CB        -4.1800  -11.5870   18.7870 C.3   114  SER114      0.2129
     26  OG        -4.6620  -12.1060   17.5590 O.3   114  SER114     -0.2179
     27  N         -1.3090  -12.9660   18.5850 N.am  115  PRO115     -0.2726
     28  CA        -0.5720  -14.0130   17.8890 C.3   115  PRO115      0.1402
     29  C         -1.4010  -14.7640   16.8500 C.2   115  PRO115      0.2269
     30  O         -0.9420  -15.0110   15.7300 O.2   115  PRO115     -0.2865
     31  CB        -0.1240  -14.9280   19.0240 C.3   115  PRO115      0.0296
     32  CG         0.0770  -13.9840   20.1510 C.3   115  PRO115      0.0237
     33  CD        -1.0420  -13.0060   20.0410 C.3   115  PRO115      0.0939
     34  N         -1.6740  -12.3270   13.7700 N.3   118  PHE118     -0.1227
     35  CA        -0.3770  -12.1980   13.1150 C.3   118  PHE118      0.1736
     36  C         -0.0210  -13.4520   12.3230 C.2   118  PHE118      0.2595
     37  O          0.3570  -13.3670   11.1300 O.2   118  PHE118     -0.2718
     38  CB         0.7540  -11.8610   14.1030 C.3   118  PHE118      0.0547
     39  CG         2.0540  -11.5790   13.4000 C.ar  118  PHE118     -0.0202
     40  CD1        2.3560  -10.3150   12.9400 C.ar  118  PHE118     -0.0042
     41  CD2        2.9210  -12.6090   13.1380 C.ar  118  PHE118     -0.0042
     42  CE1        3.5370  -10.0690   12.2530 C.ar  118  PHE118     -0.0003
     43  CE2        4.1030  -12.3770   12.4570 C.ar  118  PHE118     -0.0003
     44  CZ         4.3860  -11.1040   12.0070 C.ar  118  PHE118     -0.0000
     45  N         -0.1150  -14.6050   12.9800 N.am  119  LEU119     -0.1980
     46  CA         0.1610  -15.8520   12.2920 C.3   119  LEU119      0.1596
     47  C         -0.7870  -16.1050   11.1310 C.2   119  LEU119      0.2287
     48  O         -0.3820  -16.6370   10.1140 O.2   119  LEU119     -0.2864
     49  CB         0.2170  -17.0420   13.2460 C.3   119  LEU119      0.0297
     50  CG         1.3190  -16.9470   14.3240 C.3   119  LEU119      0.0022
     51  CD1        1.1500  -18.1480   15.2110 C.3   119  LEU119      0.0001
     52  CD2        2.7560  -16.8980   13.8010 C.3   119  LEU119      0.0001
     53  N         12.0320    3.7550   15.8630 N.3   134  ARG134     -0.1245
     54  CA        12.3620    3.7570   17.2880 C.3   134  ARG134      0.1563
     55  C         12.8660    5.1390   17.7310 C.2   134  ARG134      0.2260
     56  O         13.4830    5.8850   16.9490 O.2   134  ARG134     -0.2867
     57  CB        13.4320    2.7110   17.5940 C.3   134  ARG134      0.0307
     58  CG        14.7890    2.9910   16.9400 C.3   134  ARG134      0.0489
     59  CD        15.7440    1.8300   17.1000 C.3   134  ARG134      0.2205
     60  NE        15.2400    0.6590   16.3660 N.pl3 134  ARG134     -0.0865
     61  CZ        15.6470   -0.5980   16.5230 C.cat 134  ARG134      0.5346
     62  NH1       16.6330   -0.9200   17.3820 N.pl3 134  ARG134      0.1354
     63  NH2       15.0630   -1.5600   15.8280 N.pl3 134  ARG134      0.1354
     64  N         18.7900   -1.1380   21.1210 N.3   141  TYR141     -0.1227
     65  CA        17.7690   -2.1150   21.4900 C.3   141  TYR141      0.1736
     66  C         16.4980   -1.3240   21.7420 C.2   141  TYR141      0.2596
     67  O         16.5310   -0.2780   22.4110 O.2   141  TYR141     -0.2718
     68  CB        18.1280   -2.9380   22.7350 C.3   141  TYR141      0.0548
     69  CG        16.9890   -3.8040   23.2350 C.ar  141  TYR141     -0.0200
     70  CD1       16.0540   -3.3100   24.1560 C.ar  141  TYR141     -0.0009
     71  CD2       16.8200   -5.1090   22.7780 C.ar  141  TYR141     -0.0009
     72  CE1       14.9880   -4.0810   24.5850 C.ar  141  TYR141      0.0417
     73  CE2       15.7510   -5.8850   23.2120 C.ar  141  TYR141      0.0417
     74  CZ        14.8460   -5.3600   24.1190 C.ar  141  TYR141      0.1957
     75  OH        13.7780   -6.1040   24.5720 O.3   141  TYR141     -0.2866
     76  N         15.3820   -1.8260   21.2200 N.am  142  THR142     -0.1939
     77  CA        14.0520   -1.3280   21.5680 C.3   142  THR142      0.2013
     78  C         13.1570   -2.5280   21.9010 C.2   142  THR142      0.2484
     79  O         13.2180   -3.5660   21.2130 O.2   142  THR142     -0.2729
     80  CB        13.4320   -0.4450   20.4590 C.3   142  THR142      0.1807
     81  OG1       12.1320    0.0250   20.8700 O.3   142  THR142     -0.2208
     82  CG2       13.3180   -1.2090   19.1260 C.3   142  THR142      0.0379
     83  N         12.3210   -2.3990   22.9530 N.am  143  PRO143     -0.2715
     84  CA        11.4300   -3.4910   23.3310 C.3   143  PRO143      0.1536
     85  C         10.1800   -3.6080   22.4580 C.2   143  PRO143      0.2598
     86  O          9.4620   -4.5810   22.6240 O.2   143  PRO143     -0.2715
     87  CB        11.0130   -3.1050   24.7500 C.3   143  PRO143      0.0310
     88  CG        10.9450   -1.6210   24.6680 C.3   143  PRO143      0.0237
     89  CD        12.1230   -1.2230   23.8310 C.3   143  PRO143      0.0939
     90  N          9.8950   -2.6230   21.6010 N.am  144  GLU144     -0.1964
     91  CA         8.7590   -2.7330   20.6720 C.3   144  GLU144      0.1718
     92  C          9.2390   -2.7050   19.2150 C.2   144  GLU144      0.2458
     93  O         10.2740   -2.1080   18.8810 O.2   144  GLU144     -0.2730
     94  CB         7.6730   -1.6650   20.9330 C.3   144  GLU144      0.0428
     95  CG         8.1800   -0.2460   21.0730 C.3   144  GLU144      0.1163
     96  CD         7.1910    0.8300   20.6290 C.2   144  GLU144      0.3649
     97  OE1        7.6730    1.9210   20.2490 O.co2 144  GLU144     -0.2457
     98  OE2        5.9600    0.6020   20.6490 O.co2 144  GLU144     -0.2457
     99  N          8.4800   -3.3480   18.3290 N.am  145  PRO145     -0.2727
    100  CA         8.9070   -3.4050   16.9490 C.3   145  PRO145      0.1402
    101  C          8.8050   -2.0180   16.3380 C.2   145  PRO145      0.2269
    102  O          7.9050   -1.2500   16.6910 O.2   145  PRO145     -0.2865
    103  CB         7.9270   -4.4030   16.3190 C.3   145  PRO145      0.0296
    104  CG         6.7060   -4.2580   17.1610 C.3   145  PRO145      0.0237
    105  CD         7.2060   -4.0550   18.5440 C.3   145  PRO145      0.0939
    106  N         13.4860   -2.6270   12.5920 N.3   149  HIS149     -0.1241
    107  CA        13.3590   -4.0470   12.8800 C.3   149  HIS149      0.1621
    108  C         12.7090   -4.8310   11.7140 C.2   149  HIS149      0.2264
    109  O         13.1980   -5.8810   11.3000 O.2   149  HIS149     -0.2867
    110  CB        12.5500   -4.2560   14.1590 C.3   149  HIS149      0.0745
    111  CG        12.1340   -5.6710   14.3730 C.ar  149  HIS149      0.0817
    112  ND1       13.0260   -6.7020   14.6050 N.ar  149  HIS149     -0.2268
    113  CD2       10.9090   -6.2360   14.3240 C.ar  149  HIS149      0.1154
    114  CE1       12.3490   -7.8360   14.6990 C.ar  149  HIS149      0.1986
    115  NE2       11.0680   -7.5700   14.5620 N.ar  149  HIS149     -0.2212
    116  N         -0.6850  -20.7400   20.7430 N.3   183  GLN183     -0.1245
    117  CA         0.3660  -20.3970   21.7060 C.3   183  GLN183      0.1566
    118  C          1.6490  -21.1630   21.4340 C.2   183  GLN183      0.2260
    119  O          2.7180  -20.5540   21.3700 O.2   183  GLN183     -0.2867
    120  CB        -0.0870  -20.6510   23.1570 C.3   183  GLN183      0.0367
    121  CG         0.9370  -20.2500   24.2180 C.3   183  GLN183      0.0905
    122  CD         1.2130  -18.7530   24.2370 C.2   183  GLN183      0.2608
    123  OE1        0.3050  -17.9380   24.0640 O.2   183  GLN183     -0.2717
    124  NE2        2.4740  -18.3880   24.4420 N.am  183  GLN183     -0.0878
    125  N          3.1340  -19.8700   18.1100 N.3   186  ALA186     -0.1231
    126  CA         3.6700  -18.5140   18.3530 C.3   186  ALA186      0.1694
    127  C          5.0050  -18.5870   19.0610 C.2   186  ALA186      0.2592
    128  O          5.9420  -17.8580   18.7170 O.2   186  ALA186     -0.2718
    129  CB         2.7030  -17.6860   19.1750 C.3   186  ALA186      0.0304
    130  N          5.1020  -19.4930   20.0420 N.am  187  THR187     -0.1953
    131  CA         6.3740  -19.6670   20.7520 C.3   187  THR187      0.1897
    132  C          7.4660  -20.2470   19.8480 C.2   187  THR187      0.2313
    133  O          8.6480  -19.8210   19.9410 O.2   187  THR187     -0.2863
    134  CB         6.1650  -20.5100   22.0230 C.3   187  THR187      0.1794
    135  OG1        5.1820  -19.8490   22.8390 O.3   187  THR187     -0.2208
    136  CG2        7.4740  -20.6570   22.7910 C.3   187  THR187      0.0378
    137  N          7.5740  -19.8310   16.6020 N.3   189  TYR189     -0.1227
    138  CA         7.9210  -18.6830   15.7640 C.3   189  TYR189      0.1736
    139  C          8.9080  -17.7780   16.5060 C.2   189  TYR189      0.2595
    140  O          9.9550  -17.3600   15.9460 O.2   189  TYR189     -0.2718
    141  CB         6.6420  -17.9090   15.3910 C.3   189  TYR189      0.0548
    142  CG         6.8520  -16.6130   14.6560 C.ar  189  TYR189     -0.0200
    143  CD1        7.1520  -15.4550   15.3280 C.ar  189  TYR189     -0.0009
    144  CD2        6.7260  -16.5530   13.2590 C.ar  189  TYR189     -0.0009
    145  CE1        7.3830  -14.2480   14.6490 C.ar  189  TYR189      0.0417
    146  CE2        6.9330  -15.3620   12.5870 C.ar  189  TYR189      0.0417
    147  CZ         7.2380  -14.2250   13.2740 C.ar  189  TYR189      0.1957
    148  OH         7.4620  -13.0010   12.6130 O.3   189  TYR189     -0.2866
    149  N          8.5850  -17.4510   17.7480 N.am  190  PHE190     -0.1976
    150  CA         9.4320  -16.5560   18.5600 C.3   190  PHE190      0.1639
    151  C         10.8790  -17.0440   18.6370 C.2   190  PHE190      0.2290
    152  O         11.8320  -16.2420   18.4840 O.2   190  PHE190     -0.2864
    153  CB         8.8570  -16.4630   19.9520 C.3   190  PHE190      0.0560
    154  CG         9.4440  -15.3660   20.7820 C.ar  190  PHE190     -0.0200
    155  CD1        8.9560  -14.0820   20.7260 C.ar  190  PHE190     -0.0042
    156  CD2       10.5070  -15.6350   21.6410 C.ar  190  PHE190     -0.0042
    157  CE1        9.4950  -13.0640   21.5070 C.ar  190  PHE190     -0.0003
    158  CE2       11.0090  -14.6380   22.4430 C.ar  190  PHE190     -0.0003
    159  CZ        10.5400  -13.3630   22.3610 C.ar  190  PHE190     -0.0000
    160  N         11.9880  -15.0490   15.1870 N.3   194  GLU194     -0.1231
    161  CA        12.3520  -13.8610   15.9650 C.3   194  GLU194      0.1699
    162  C         13.7430  -13.9220   16.5970 C.2   194  GLU194      0.2592
    163  O         14.4720  -12.9680   16.5030 O.2   194  GLU194     -0.2718
    164  CB        11.2890  -13.4820   17.0100 C.3   194  GLU194      0.0402
    165  CG        11.1980  -12.0130   17.2190 C.3   194  GLU194      0.1161
    166  CD        10.4080  -11.3240   16.1310 C.2   194  GLU194      0.3649
    167  OE1        9.3320  -11.8640   15.7950 O.co2 194  GLU194     -0.2457
    168  OE2       10.8210  -10.2490   15.6490 O.co2 194  GLU194     -0.2457
    169  N         14.1090  -15.0490   17.2090 N.am  195  PHE195     -0.1976
    170  CA        15.3510  -15.1270   18.0070 C.3   195  PHE195      0.1639
    171  C         16.2000  -16.3610   17.7040 C.2   195  PHE195      0.2290
    172  O         17.0940  -16.7100   18.4910 O.2   195  PHE195     -0.2864
    173  CB        15.0080  -14.9790   19.5120 C.3   195  PHE195      0.0560
    174  CG        14.6220  -13.6040   19.9010 C.ar  195  PHE195     -0.0200
    175  CD1       15.5830  -12.5920   20.0360 C.ar  195  PHE195     -0.0042
    176  CD2       13.2900  -13.2570   20.1160 C.ar  195  PHE195     -0.0042
    177  CE1       15.2280  -11.3010   20.3750 C.ar  195  PHE195     -0.0003
    178  CE2       12.9380  -11.9770   20.4380 C.ar  195  PHE195     -0.0003
    179  CZ        13.9030  -10.9830   20.5640 C.ar  195  PHE195     -0.0000
    180  N         14.7350  -10.3870   15.5150 N.3   210  GLY210     -0.1225
    181  CA        14.9120   -9.5870   16.6910 C.3   210  GLY210      0.1811
    182  C         16.3680   -9.3990   17.0860 C.2   210  GLY210      0.2280
    183  O         16.7190   -8.4060   17.7550 O.2   210  GLY210     -0.2866
    184  N         18.1630   -6.9500   14.0860 N.3   213  SER213     -0.1202
    185  CA        17.9220   -5.4940   14.1490 C.3   213  SER213      0.2020
    186  C         18.4270   -4.8370   15.4290 C.2   213  SER213      0.2619
    187  O         18.2640   -3.6470   15.5840 O.2   213  SER213     -0.2717
    188  CB        16.4430   -5.1860   13.9380 C.3   213  SER213      0.2103
    189  OG        15.6040   -5.7610   14.9210 O.3   213  SER213     -0.2182
    190  N         18.9880   -5.6170   16.3630 N.am  214  SER214     -0.1951
    191  CA        19.4840   -5.0390   17.6340 C.3   214  SER214      0.1924
    192  C         20.9900   -5.1430   17.6980 C.2   214  SER214      0.2314
    193  O         21.5260   -6.2180   17.8860 O.2   214  SER214     -0.2863
    194  CB        18.8870   -5.7370   18.8630 C.3   214  SER214      0.2116
    195  OG        19.5390   -5.2700   20.0730 O.3   214  SER214     -0.2180
    196  N         21.8420   -6.8700   21.1560 N.3   217  GLU217     -0.1245
    197  CA        21.5290   -8.2940   21.2870 C.3   217  GLU217      0.1567
    198  C         22.1970   -9.1950   20.2300 C.2   217  GLU217      0.2260
    199  O         22.4950  -10.3750   20.4860 O.2   217  GLU217     -0.2867
    200  CB        20.0250   -8.5790   21.3460 C.3   217  GLU217      0.0388
    201  CG        19.7790   -9.8960   22.0860 C.3   217  GLU217      0.1160
    202  CD        18.3370  -10.2110   22.4710 C.2   217  GLU217      0.3649
    203  OE1       18.1290  -11.3340   23.0120 O.co2 217  GLU217     -0.2457
    204  OE2       17.4420   -9.3770   22.2900 O.co2 217  GLU217     -0.2457
    205  N          8.4460  -16.4280   26.4270 N.3   241  CYS241     -0.1221
    206  CA         8.8290  -15.3440   25.5110 C.3   241  CYS241      0.1808
    207  C          8.9100  -14.0270   26.2780 C.2   241  CYS241      0.2601
    208  O          7.8840  -13.4880   26.6680 O.2   241  CYS241     -0.2717
    209  CB         7.7890  -15.2190   24.3940 C.3   241  CYS241      0.0970
    210  SG         7.5890  -16.6930   23.4060 S.3   241  CYS241     -0.0800
    211  N         10.1260  -13.5190   26.5030 N.am  242  LEU242     -0.1965
    212  CA        10.3090  -12.2400   27.2030 C.3   242  LEU242      0.1728
    213  C         10.5880  -11.0580   26.2740 C.2   242  LEU242      0.2616
    214  O         11.1330  -11.2130   25.1880 O.2   242  LEU242     -0.2715
    215  CB        11.4210  -12.3500   28.2510 C.3   242  LEU242      0.0311
    216  CG        11.0700  -13.0220   29.5950 C.3   242  LEU242      0.0022
    217  CD1        9.7450  -12.5350   30.1870 C.3   242  LEU242      0.0001
    218  CD2       11.0450  -14.5320   29.4660 C.3   242  LEU242      0.0001
    219  N         10.2370   -9.8720   26.7660 N.am  243  ILE243     -0.1977
    220  CA        10.2520   -8.6200   26.0020 C.3   243  ILE243      0.1596
    221  C         11.1030   -7.4900   26.6100 C.2   243  ILE243      0.2287
    222  O         11.6620   -6.6870   25.8670 O.2   243  ILE243     -0.2864
    223  CB         8.8030   -8.1110   25.7570 C.3   243  ILE243      0.0276
    224  CG1        8.8010   -6.9130   24.7920 C.3   243  ILE243      0.0022
    225  CG2        8.0870   -7.7760   27.0770 C.3   243  ILE243      0.0022
    226  CD1        7.4370   -6.5820   24.2210 C.3   243  ILE243      0.0001
@<TRIPOS>BOND
     1    48    47    2
     2    37    36    2
     3    47    46    1
     4   109   108    2
     5   108   107    1
     6    44    42   ar
     7    44    43   ar
     8    42    40   ar
     9    46    45    1
    10    46    49    1
    11    36    45   am
    12    36    35    1
    13    43    41   ar
    14   146   144   ar
    15   146   147   ar
    16   106   107    1
    17   148   147    1
    18    19    18    1
    19   107   110    1
    20    40    39   ar
    21    35    34    1
    22    35    38    1
    23    41    39   ar
    24    49    50    1
    25   144   142   ar
    26   147   145   ar
    27    39    38    1
    28    52    50    1
    29   188   185    1
    30   188   189    1
    31    18    20    1
    32    18    17    1
    33   184   185    1
    34   185   186    1
    35   110   111    1
    36    50    51    1
    37   113   111   ar
    38   113   115   ar
    39   111   112   ar
    40   115   114   ar
    41   112   114   ar
    42   145   143   ar
    43   142   143   ar
    44   142   141    1
    45   160   161    1
    46    17    14    1
    47   141   138    1
    48   186   187    2
    49   186   190   am
    50   180   181    1
    51   168   166   ar
    52    30    29    2
    53   138   139    1
    54   138   137    1
    55   167   166   ar
    56    63    61    1
    57    53    54    1
    58   140   139    2
    59   161   162    1
    60   161   164    1
    61   166   165    1
    62   103   100    1
    63   103   104    1
    64   101   102    2
    65   101   100    1
    66   190   191    1
    67    60    61    2
    68    60    59    1
    69   163   162    2
    70   139   149   am
    71    61    62    1
    72   162   169   am
    73    14    13    1
    74    14    15    1
    75    24    23    2
    76   181   182    1
    77    13     3   am
    78    29    28    1
    79    58    59    1
    80    58    57    1
    81   100    99    1
    82    56    55    2
    83   164   165    1
    84   182   183    2
    85   104   105    1
    86   169   170    1
    87    54    57    1
    88    54    55    1
    89    26    25    1
    90     3     4    2
    91     3     2    1
    92    15    21   am
    93    15    16    2
    94   191   192    1
    95   191   194    1
    96   192   193    2
    97   171   170    1
    98   171   172    2
    99   149   150    1
   100    23    27   am
   101    23    22    1
   102    21    22    1
   103    28    27    1
   104    28    31    1
   105   170   173    1
   106     1     2    1
   107     2     5    1
   108   125   126    1
   109    99   105    1
   110    99    92   am
   111   126   127    1
   112   126   129    1
   113   152   151    2
   114   150   151    1
   115   150   153    1
   116    27    33    1
   117    22    25    1
   118   128   127    2
   119   194   195    1
   120    93    92    2
   121    31    32    1
   122   127   130   am
   123    82    80    1
   124    92    91    1
   125     7     9   ar
   126     7     6   ar
   127     5     6    1
   128   173   174    1
   129     9    11   ar
   130   132   133    2
   131   132   131    1
   132   174   175   ar
   133   174   176   ar
   134   153   154    1
   135     6     8   ar
   136   175   177   ar
   137    33    32    1
   138   130   131    1
   139   176   178   ar
   140   198   199    2
   141   198   197    1
   142    97    96   ar
   143   177   179   ar
   144   178   179   ar
   145    80    81    1
   146    80    77    1
   147    96    98   ar
   148    96    95    1
   149    91    94    1
   150    91    90    1
   151   155   154   ar
   152   155   157   ar
   153   116   117    1
   154   131   134    1
   155   154   156   ar
   156    11    12    1
   157    11    10   ar
   158    94    95    1
   159     8    10   ar
   160    64    65    1
   161   196   197    1
   162    79    78    2
   163    76    77    1
   164    76    66   am
   165   197   200    1
   166   200   201    1
   167   119   118    2
   168   118   117    1
   169    65    66    1
   170    65    68    1
   171   157   159   ar
   172    77    78    1
   173    90    85   am
   174   156   158   ar
   175   117   120    1
   176    66    67    2
   177    78    83   am
   178   134   136    1
   179   134   135    1
   180   201   202    1
   181   204   202   ar
   182   159   158   ar
   183    85    86    2
   184    85    84    1
   185   202   203   ar
   186    68    69    1
   187    71    73   ar
   188    71    69   ar
   189    83    84    1
   190    83    89    1
   191   120   121    1
   192    73    74   ar
   193    69    70   ar
   194    84    87    1
   195   210   209    1
   196    89    88    1
   197   123   122    2
   198    74    75    1
   199    74    72   ar
   200    70    72   ar
   201   121   122    1
   202   226   224    1
   203   122   124   am
   204   209   206    1
   205    88    87    1
   206   224   223    1
   207   214   213    2
   208   206   207    1
   209   206   205    1
   210   223   220    1
   211   223   225    1
   212   222   221    2
   213   220   221    1
   214   220   219    1
   215   213   219   am
   216   213   212    1
   217   207   211   am
   218   207   208    2
   219   211   212    1
   220   212   215    1
   221   215   216    1
   222   218   216    1
   223   216   217    1
