@<TRIPOS>MOLECULE
tmp/5tphA00.pdb
 132 124 0 0 0
SMALL
GASTEIGER

@<TRIPOS>ATOM
      1  N         24.6090   18.9840   46.9850 N.3    18  PHE18      -0.1241
      2  CA        23.2340   18.8370   47.4510 C.3    18  PHE18       0.1605
      3  C         22.2170   19.3510   46.4340 C.2    18  PHE18       0.2264
      4  O         21.2500   18.6640   46.1040 O.2    18  PHE18      -0.2867
      5  CB        23.0420   19.5740   48.7770 C.3    18  PHE18       0.0534
      6  CG        23.2530   18.7150   49.9900 C.ar   18  PHE18      -0.0203
      7  CD1       22.2020   17.9990   50.5380 C.ar   18  PHE18      -0.0042
      8  CD2       24.4990   18.6300   50.5890 C.ar   18  PHE18      -0.0042
      9  CE1       22.3880   17.2130   51.6570 C.ar   18  PHE18      -0.0003
     10  CE2       24.6930   17.8420   51.7100 C.ar   18  PHE18      -0.0003
     11  CZ        23.6350   17.1320   52.2440 C.ar   18  PHE18      -0.0000
     12  N         29.2580   14.3170   46.5960 N.3    26  ILE26      -0.1245
     13  CA        29.2190   14.2200   48.0540 C.3    26  ILE26       0.1561
     14  C         30.2790   13.2560   48.5800 C.2    26  ILE26       0.2260
     15  O         31.0380   13.5860   49.4930 O.2    26  ILE26      -0.2867
     16  CB        27.8380   13.7530   48.5600 C.3    26  ILE26       0.0252
     17  CG1       26.7270   14.7760   48.2210 C.3    26  ILE26       0.0019
     18  CG2       27.8690   13.4470   50.0570 C.3    26  ILE26       0.0019
     19  CD1       25.5890   14.1260   47.5140 C.3    26  ILE26       0.0001
     20  N         34.0170   13.2100   51.2670 N.3    30  LEU30      -0.1245
     21  CA        34.0740   12.4850   52.5290 C.3    30  LEU30       0.1561
     22  C         35.4330   11.8220   52.7180 C.2    30  LEU30       0.2260
     23  O         36.0670   11.4000   51.7520 O.2    30  LEU30      -0.2867
     24  CB        32.9650   11.4320   52.6000 C.3    30  LEU30       0.0270
     25  CG        31.5210   11.9270   52.4850 C.3    30  LEU30       0.0019
     26  CD1       30.5430   10.7930   52.7660 C.3    30  LEU30       0.0001
     27  CD2       31.2690   13.1010   53.4200 C.3    30  LEU30       0.0001
     28  N         29.4210    8.8990   60.4650 N.3    36  VAL36      -0.1245
     29  CA        28.0990    9.4530   60.2010 C.3    36  VAL36       0.1561
     30  C         27.0940    9.0250   61.2570 C.2    36  VAL36       0.2260
     31  O         26.7590    7.8480   61.3630 O.2    36  VAL36      -0.2867
     32  CB        27.5710    9.0180   58.8200 C.3    36  VAL36       0.0252
     33  CG1       26.1580    9.5360   58.6030 C.3    36  VAL36       0.0019
     34  CG2       28.5010    9.5000   57.7190 C.3    36  VAL36       0.0019
     35  N         23.2160    9.5670   62.4470 N.3    38  VAL38      -0.1245
     36  CA        21.8920   10.0990   62.1500 C.3    38  VAL38       0.1561
     37  C         20.8100    9.2450   62.8110 C.2    38  VAL38       0.2260
     38  O         20.6060    8.0810   62.4590 O.2    38  VAL38      -0.2867
     39  CB        21.6500   10.1990   60.6270 C.3    38  VAL38       0.0252
     40  CG1       22.1130    8.9310   59.9150 C.3    38  VAL38       0.0019
     41  CG2       20.1900   10.4970   60.3390 C.3    38  VAL38       0.0019
     42  N         27.3080    5.0170   61.2810 N.3    43  PHE43      -0.1241
     43  CA        28.0640    4.4370   60.1800 C.3    43  PHE43       0.1605
     44  C         29.5320    4.8180   60.2640 C.2    43  PHE43       0.2264
     45  O         29.8670    5.9710   60.5220 O.2    43  PHE43      -0.2867
     46  CB        27.4790    4.8880   58.8450 C.3    43  PHE43       0.0534
     47  CG        25.9830    4.8610   58.8110 C.ar   43  PHE43      -0.0203
     48  CD1       25.3040    3.6680   58.6350 C.ar   43  PHE43      -0.0042
     49  CD2       25.2540    6.0260   58.9650 C.ar   43  PHE43      -0.0042
     50  CE1       23.9220    3.6390   58.6090 C.ar   43  PHE43      -0.0003
     51  CE2       23.8730    6.0050   58.9380 C.ar   43  PHE43      -0.0003
     52  CZ        23.2060    4.8100   58.7580 C.ar   43  PHE43      -0.0000
     53  N         28.7330    5.1950   53.9770 N.3    49  ALA49      -0.1245
     54  CA        28.0800    6.4990   53.9280 C.3    49  ALA49       0.1562
     55  C         27.4160    6.7210   52.5730 C.2    49  ALA49       0.2260
     56  O         26.3110    7.2540   52.4910 O.2    49  ALA49      -0.2867
     57  CB        29.0800    7.6080   54.2140 C.3    49  ALA49       0.0290
     58  N         24.1890    4.5740   52.3150 N.3    52  MET52      -0.1230
     59  CA        23.0570    5.1260   53.0410 C.3    52  MET52       0.1702
     60  C         22.5350    6.3830   52.3590 C.2    52  MET52       0.2592
     61  O         21.3440    6.6890   52.4280 O.2    52  MET52      -0.2718
     62  CB        23.4450    5.4250   54.4880 C.3    52  MET52       0.0401
     63  CG        23.9390    4.2050   55.2390 C.3    52  MET52       0.0596
     64  SD        22.7990    2.8110   55.1260 S.3    52  MET52      -0.1393
     65  CE        21.3670    3.4580   55.9840 C.3    52  MET52       0.0692
     66  N         23.4280    7.1080   51.6940 N.am   53  TRP53      -0.1976
     67  CA        23.0280    8.3050   50.9680 C.3    53  TRP53       0.1640
     68  C         22.1410    7.9540   49.7750 C.2    53  TRP53       0.2290
     69  O         21.0710    8.5340   49.5980 O.2    53  TRP53      -0.2864
     70  CB        24.2500    9.0930   50.4970 C.3    53  TRP53       0.0576
     71  CG        23.8690   10.3360   49.7660 C.ar   53  TRP53       0.0006
     72  CD1       24.0130   10.5820   48.4320 C.ar   53  TRP53       0.0946
     73  CD2       23.2480   11.4980   50.3250 C.ar   53  TRP53       0.0152
     74  NE1       23.5330   11.8330   48.1290 N.ar   53  TRP53      -0.2442
     75  CE2       23.0560   12.4150   49.2740 C.ar   53  TRP53       0.0810
     76  CE3       22.8400   11.8550   51.6150 C.ar   53  TRP53       0.0012
     77  CZ2       22.4750   13.6660   49.4720 C.ar   53  TRP53       0.0191
     78  CZ3       22.2630   13.0950   51.8090 C.ar   53  TRP53       0.0001
     79  CH2       22.0850   13.9860   50.7430 C.ar   53  TRP53       0.0015
     80  N         18.7570    6.7410   50.6290 N.3    56  LEU56      -0.1245
     81  CA        17.8540    7.8380   50.9530 C.3    56  LEU56       0.1561
     82  C         17.4120    8.5770   49.6930 C.2    56  LEU56       0.2260
     83  O         16.2520    8.9670   49.5690 O.2    56  LEU56      -0.2867
     84  CB        18.5210    8.8140   51.9260 C.3    56  LEU56       0.0270
     85  CG        17.7520   10.1000   52.2390 C.3    56  LEU56       0.0019
     86  CD1       16.4190    9.7930   52.9090 C.3    56  LEU56       0.0001
     87  CD2       18.5890   11.0350   53.0980 C.3    56  LEU56       0.0001
     88  N         22.2360   19.1330   58.3460 N.3    92  PHE92      -0.1241
     89  CA        23.5170   18.4490   58.2210 C.3    92  PHE92       0.1605
     90  C         24.6390   19.2860   58.8160 C.2    92  PHE92       0.2264
     91  O         24.6950   20.4950   58.6040 O.2    92  PHE92      -0.2867
     92  CB        23.8410   18.1490   56.7580 C.3    92  PHE92       0.0534
     93  CG        22.9650   17.1050   56.1360 C.ar   92  PHE92      -0.0203
     94  CD1       21.6520   17.3900   55.8010 C.ar   92  PHE92      -0.0042
     95  CD2       23.4650   15.8440   55.8550 C.ar   92  PHE92      -0.0042
     96  CE1       20.8460   16.4290   55.2150 C.ar   92  PHE92      -0.0003
     97  CE2       22.6650   14.8810   55.2660 C.ar   92  PHE92      -0.0003
     98  CZ        21.3530   15.1740   54.9470 C.ar   92  PHE92      -0.0000
     99  N         28.7790   19.1780   58.7430 N.3    94  PHE94      -0.1241
    100  CA        29.9780   18.5360   58.2270 C.3    94  PHE94       0.1605
    101  C         31.2180   19.1070   58.9000 C.2    94  PHE94       0.2264
    102  O         31.5410   20.2810   58.7310 O.2    94  PHE94      -0.2867
    103  CB        30.0870   18.7110   56.7080 C.3    94  PHE94       0.0534
    104  CG        28.9110   18.1700   55.9410 C.ar   94  PHE94      -0.0203
    105  CD1       28.8970   16.8560   55.5000 C.ar   94  PHE94      -0.0042
    106  CD2       27.8270   18.9810   55.6460 C.ar   94  PHE94      -0.0042
    107  CE1       27.8170   16.3580   54.7840 C.ar   94  PHE94      -0.0003
    108  CE2       26.7500   18.4900   54.9330 C.ar   94  PHE94      -0.0003
    109  CZ        26.7440   17.1780   54.5020 C.ar   94  PHE94      -0.0000
    110  N         30.0450   13.5190   60.0940 N.3   104  VAL104     -0.1245
    111  CA        28.7570   14.0340   59.6430 C.3   104  VAL104      0.1561
    112  C         27.6920   13.8500   60.7150 C.2   104  VAL104      0.2260
    113  O         27.3960   12.7270   61.1160 O.2   104  VAL104     -0.2867
    114  CB        28.2810   13.3360   58.3550 C.3   104  VAL104      0.0252
    115  CG1       26.9120   13.8580   57.9510 C.3   104  VAL104      0.0019
    116  CG2       29.2890   13.5400   57.2380 C.3   104  VAL104      0.0019
    117  N         23.7170   14.5580   61.5710 N.3   106  ILE106     -0.1245
    118  CA        22.4250   14.8700   60.9630 C.3   106  ILE106      0.1561
    119  C         21.2860   14.8510   61.9770 C.2   106  ILE106      0.2260
    120  O         21.0420   13.8310   62.6190 O.2   106  ILE106     -0.2867
    121  CB        22.0740   13.8660   59.8430 C.3   106  ILE106      0.0252
    122  CG1       23.1720   13.8250   58.7790 C.3   106  ILE106      0.0019
    123  CG2       20.7210   14.2030   59.2270 C.3   106  ILE106      0.0019
    124  CD1       23.0610   12.6400   57.8430 C.3   106  ILE106      0.0001
    125  N         11.7580    7.3300   57.9840 N.3   116  MET116     -0.1245
    126  CA        13.0140    6.5910   57.9030 C.3   116  MET116      0.1570
    127  C         12.8450    5.1850   58.4640 C.2   116  MET116      0.2261
    128  O         13.4910    4.2440   58.0100 O.2   116  MET116     -0.2867
    129  CB        14.1240    7.3270   58.6550 C.3   116  MET116      0.0387
    130  CG        14.3260    8.7630   58.2120 C.3   116  MET116      0.0595
    131  SD        14.9670    8.9070   56.5370 S.3   116  MET116     -0.1393
    132  CE        16.7190    8.6810   56.8200 C.3   116  MET116      0.0692
@<TRIPOS>BOND
     1     4     3    2
     2     3     2    1
     3    12    13    1
     4     1     2    1
     5     2     5    1
     6    19    17    1
     7    13    16    1
     8    13    14    1
     9    74    72   ar
    10    74    75   ar
    11    17    16    1
    12    72    71   ar
    13    16    18    1
    14    14    15    2
    15     5     6    1
    16    75    77   ar
    17    75    73   ar
    18    77    79   ar
    19    83    82    2
    20    69    68    2
    21    82    81    1
    22    71    73   ar
    23    71    70    1
    24    68    67    1
    25     6     7   ar
    26     6     8   ar
    27    73    76   ar
    28    70    67    1
    29     7     9   ar
    30     8    10   ar
    31    80    81    1
    32    79    78   ar
    33    81    84    1
    34    67    66    1
    35    20    21    1
    36    76    78   ar
    37     9    11   ar
    38    66    60   am
    39    10    11   ar
    40    23    22    2
    41    84    85    1
    42    85    86    1
    43    85    87    1
    44    58    59    1
    45    60    61    2
    46    60    59    1
    47    25    24    1
    48    25    26    1
    49    25    27    1
    50    56    55    2
    51    21    24    1
    52    21    22    1
    53    55    54    1
    54    59    62    1
    55    54    53    1
    56    54    57    1
    57    62    63    1
    58   109   107   ar
    59   109   108   ar
    60   107   105   ar
    61   108   106   ar
    62    98    96   ar
    63    98    97   ar
    64    64    63    1
    65    64    65    1
    66    96    94   ar
    67    97    95   ar
    68   105   104   ar
    69   106   104   ar
    70    94    93   ar
    71    95    93   ar
    72   104   103    1
    73    93    92    1
    74   131   132    1
    75   131   130    1
    76   103   100    1
    77    92    89    1
    78   116   114    1
    79    34    32    1
    80   124   122    1
    81   126   125    1
    82   126   127    1
    83   126   129    1
    84   115   114    1
    85   128   127    2
    86   130   129    1
    87    89    88    1
    88    89    90    1
    89   100    99    1
    90   100   101    1
    91   114   111    1
    92    33    32    1
    93    91    90    2
    94    50    48   ar
    95    50    52   ar
    96    48    47   ar
    97   102   101    2
    98    52    51   ar
    99   122   121    1
   100    47    46    1
   101    47    49   ar
   102    32    29    1
   103    46    43    1
   104    51    49   ar
   105   123   121    1
   106   111   110    1
   107   111   112    1
   108   121   118    1
   109    40    39    1
   110    43    44    1
   111    43    42    1
   112    29    28    1
   113    29    30    1
   114    44    45    2
   115    41    39    1
   116    39    36    1
   117   112   113    2
   118   118   117    1
   119   118   119    1
   120    30    31    2
   121   119   120    2
   122    36    35    1
   123    36    37    1
   124    38    37    2
