@<TRIPOS>MOLECULE
tmp/5tpvB01.pdb
 99 95 0 0 0
SMALL
GASTEIGER

@<TRIPOS>ATOM
      1  N        -56.1030  -19.9990   -8.4020 N.3    33  ARG33      -0.1245
      2  CA       -54.9550  -20.6720   -8.9610 C.3    33  ARG33       0.1563
      3  C        -53.7600  -20.5970   -8.0070 C.2    33  ARG33       0.2260
      4  O        -53.5320  -19.5780   -7.3050 O.2    33  ARG33      -0.2867
      5  CB       -54.6600  -19.9870  -10.2970 C.3    33  ARG33       0.0307
      6  CG       -53.2390  -20.1450  -10.8140 C.3    33  ARG33       0.0489
      7  CD       -53.0690  -19.6560  -12.2540 C.3    33  ARG33       0.2205
      8  NE       -53.3180  -18.2260  -12.2710 N.pl3  33  ARG33      -0.0865
      9  CZ       -52.5260  -17.2910  -12.8040 C.cat  33  ARG33       0.5346
     10  NH1      -52.8880  -16.0390  -12.7130 N.pl3  33  ARG33       0.1354
     11  NH2      -51.4040  -17.5740  -13.4200 N.pl3  33  ARG33       0.1354
     12  N        -49.4500  -21.8250   -7.9800 N.3    35  PHE35      -0.1241
     13  CA       -48.3530  -22.4680   -8.6710 C.3    35  PHE35       0.1605
     14  C        -47.1160  -22.4710   -7.8080 C.2    35  PHE35       0.2264
     15  O        -47.0010  -21.7490   -6.8330 O.2    35  PHE35      -0.2867
     16  CB       -48.0860  -21.8560  -10.0730 C.3    35  PHE35       0.0534
     17  CG       -47.9670  -20.3730  -10.0860 C.ar   35  PHE35      -0.0203
     18  CD1      -46.7470  -19.7600   -9.9850 C.ar   35  PHE35      -0.0042
     19  CD2      -49.0980  -19.5670  -10.2010 C.ar   35  PHE35      -0.0042
     20  CE1      -46.6460  -18.3710  -10.0030 C.ar   35  PHE35      -0.0003
     21  CE2      -48.9930  -18.1810  -10.2470 C.ar   35  PHE35      -0.0003
     22  CZ       -47.7630  -17.5700  -10.1650 C.ar   35  PHE35      -0.0000
     23  N        -42.6810  -23.1810   -7.9680 N.3    37  ILE37      -0.1245
     24  CA       -41.4790  -23.1100   -8.7650 C.3    37  ILE37       0.1561
     25  C        -40.3380  -23.7030   -7.9410 C.2    37  ILE37       0.2260
     26  O        -40.1880  -23.4810   -6.7160 O.2    37  ILE37      -0.2867
     27  CB       -41.1790  -21.6560   -9.1460 C.3    37  ILE37       0.0252
     28  CG1      -42.4480  -21.0120   -9.6710 C.3    37  ILE37       0.0019
     29  CG2      -40.1600  -21.6080  -10.2740 C.3    37  ILE37       0.0019
     30  CD1      -42.3060  -19.5590  -10.0740 C.3    37  ILE37       0.0001
     31  N        -36.7340  -15.1640  -11.9390 N.3    46  ARG46      -0.1231
     32  CA       -38.1220  -15.2500  -12.3970 C.3    46  ARG46       0.1694
     33  C        -38.7380  -13.8830  -12.2960 C.2    46  ARG46       0.2592
     34  O        -38.1820  -12.9430  -11.7290 O.2    46  ARG46      -0.2718
     35  CB       -38.9820  -16.2230  -11.5750 C.3    46  ARG46       0.0321
     36  CG       -38.4140  -17.6150  -11.2670 C.3    46  ARG46       0.0489
     37  CD       -38.4850  -18.5920  -12.4050 C.3    46  ARG46       0.2205
     38  NE       -39.7910  -18.6770  -13.0690 N.pl3  46  ARG46      -0.0865
     39  CZ       -40.2050  -19.7200  -13.7830 C.cat  46  ARG46       0.5346
     40  NH1      -41.3880  -19.6580  -14.3610 N.pl3  46  ARG46       0.1354
     41  NH2      -39.4630  -20.7990  -13.9770 N.pl3  46  ARG46       0.1354
     42  N        -39.9170  -13.7980  -12.8670 N.am   47  GLY47      -0.1957
     43  CA       -40.6670  -12.5670  -12.9380 C.3    47  GLY47       0.1869
     44  C        -40.2550  -11.7390  -14.1430 C.2    47  GLY47       0.2309
     45  O        -40.3450  -12.1980  -15.2780 O.2    47  GLY47      -0.2863
     46  N        -42.0810   -8.9340  -14.8690 N.3    49  HIS49      -0.1241
     47  CA       -43.3280   -8.4530  -15.4350 C.3    49  HIS49       0.1621
     48  C        -44.2340   -7.9480  -14.3270 C.2    49  HIS49       0.2264
     49  O        -44.0270   -8.2210  -13.1600 O.2    49  HIS49      -0.2867
     50  CB       -44.0310   -9.5450  -16.2260 C.3    49  HIS49       0.0745
     51  CG       -44.2760  -10.7940  -15.4320 C.ar   49  HIS49       0.0817
     52  ND1      -45.3660  -10.9490  -14.6000 N.ar   49  HIS49      -0.2268
     53  CD2      -43.5500  -11.9360  -15.3100 C.ar   49  HIS49       0.1154
     54  CE1      -45.3130  -12.1420  -14.0190 C.ar   49  HIS49       0.1986
     55  NE2      -44.2240  -12.7670  -14.4440 N.ar   49  HIS49      -0.2212
     56  N        -37.5590  -12.0570   -9.1610 N.3    97  MET97      -0.1245
     57  CA       -37.0390  -12.9350   -8.1170 C.3    97  MET97       0.1570
     58  C        -35.7730  -13.6210   -8.4920 C.2    97  MET97       0.2261
     59  O        -35.6300  -14.0320   -9.6270 O.2    97  MET97      -0.2867
     60  CB       -38.0400  -14.0000   -7.8210 C.3    97  MET97       0.0387
     61  CG       -39.3090  -13.2600   -7.4990 C.3    97  MET97       0.0595
     62  SD       -40.6970  -14.3440   -7.4110 S.3    97  MET97      -0.1393
     63  CE       -41.1930  -13.9740   -9.1160 C.3    97  MET97       0.0692
     64  N        -55.0090  -18.1050  -15.2720 N.3   114  TYR114     -0.1241
     65  CA       -53.8750  -17.6380  -16.0440 C.3   114  TYR114      0.1605
     66  C        -54.3660  -16.8530  -17.2660 C.2   114  TYR114      0.2264
     67  O        -55.2920  -17.2830  -17.9190 O.2   114  TYR114     -0.2867
     68  CB       -53.0760  -18.8250  -16.5300 C.3   114  TYR114      0.0534
     69  CG       -52.0530  -18.4260  -17.5280 C.ar  114  TYR114     -0.0201
     70  CD1      -52.1890  -18.7840  -18.8800 C.ar  114  TYR114     -0.0009
     71  CD2      -50.9580  -17.6680  -17.1390 C.ar  114  TYR114     -0.0009
     72  CE1      -51.2780  -18.3530  -19.8230 C.ar  114  TYR114      0.0417
     73  CE2      -50.0260  -17.2500  -18.0650 C.ar  114  TYR114      0.0417
     74  CZ       -50.2030  -17.5980  -19.4060 C.ar  114  TYR114      0.1957
     75  OH       -49.2550  -17.2070  -20.3080 O.3   114  TYR114     -0.2866
     76  N        -50.4690   -9.5550  -18.7140 N.3   119  TYR119     -0.1241
     77  CA       -49.0530   -9.3460  -18.4320 C.3   119  TYR119      0.1605
     78  C        -48.5260   -8.0860  -19.0970 C.2   119  TYR119      0.2264
     79  O        -48.7650   -7.8180  -20.2900 O.2   119  TYR119     -0.2867
     80  CB       -48.2260  -10.4950  -19.0410 C.3   119  TYR119      0.0534
     81  CG       -48.1530  -11.7730  -18.2530 C.ar  119  TYR119     -0.0201
     82  CD1      -49.2460  -12.6370  -18.1530 C.ar  119  TYR119     -0.0009
     83  CD2      -46.9980  -12.1250  -17.6040 C.ar  119  TYR119     -0.0009
     84  CE1      -49.1570  -13.8220  -17.4510 C.ar  119  TYR119      0.0417
     85  CE2      -46.8830  -13.3140  -16.9060 C.ar  119  TYR119      0.0417
     86  CZ       -47.9640  -14.1700  -16.8350 C.ar  119  TYR119      0.1957
     87  OH       -47.8020  -15.3600  -16.1690 O.3   119  TYR119     -0.2866
     88  N        -44.8040   -6.9860  -19.8290 N.3   121  TYR121     -0.1241
     89  CA       -43.4060   -7.3830  -19.8680 C.3   121  TYR121      0.1605
     90  C        -42.4490   -6.2330  -20.1640 C.2   121  TYR121      0.2264
     91  O        -41.2280   -6.3840  -20.0540 O.2   121  TYR121     -0.2867
     92  CB       -43.2210   -8.4190  -20.9720 C.3   121  TYR121      0.0534
     93  CG       -43.8080   -9.7780  -20.6540 C.ar  121  TYR121     -0.0201
     94  CD1      -43.1970  -10.6030  -19.7210 C.ar  121  TYR121     -0.0009
     95  CD2      -44.9200  -10.2830  -21.3360 C.ar  121  TYR121     -0.0009
     96  CE1      -43.6780  -11.8930  -19.4590 C.ar  121  TYR121      0.0417
     97  CE2      -45.4160  -11.5720  -21.0770 C.ar  121  TYR121      0.0417
     98  CZ       -44.8020  -12.3800  -20.1350 C.ar  121  TYR121      0.1957
     99  OH       -45.2850  -13.6660  -19.8260 O.3   121  TYR121     -0.2866
@<TRIPOS>BOND
     1    95    97   ar
     2    95    93   ar
     3    97    98   ar
     4    92    93    1
     5    92    89    1
     6    93    94   ar
     7    75    74    1
     8    79    78    2
     9    90    91    2
    10    90    89    1
    11    98    99    1
    12    98    96   ar
    13    89    88    1
    14    72    74   ar
    15    72    70   ar
    16    94    96   ar
    17    74    73   ar
    18    78    77    1
    19    80    77    1
    20    80    81    1
    21    70    69   ar
    22    76    77    1
    23    81    82   ar
    24    81    83   ar
    25    82    84   ar
    26    73    71   ar
    27    67    66    2
    28    83    85   ar
    29    69    71   ar
    30    69    68    1
    31    84    86   ar
    32    66    65    1
    33    85    86   ar
    34    86    87    1
    35    68    65    1
    36    50    47    1
    37    50    51    1
    38    65    64    1
    39    47    46    1
    40    47    48    1
    41    51    53   ar
    42    51    52   ar
    43    53    55   ar
    44    45    44    2
    45    52    54   ar
    46    55    54   ar
    47    40    39    1
    48    48    49    2
    49    44    43    1
    50    41    39    1
    51    39    38    2
    52    11     9    1
    53    38    37    1
    54    43    42    1
    55    42    33   am
    56     9    10    1
    57     9     8    2
    58    37    36    1
    59    32    33    1
    60    32    31    1
    61    32    35    1
    62    33    34    2
    63     8     7    1
    64     7     6    1
    65    35    36    1
    66     6     5    1
    67     5     2    1
    68    29    27    1
    69    21    19   ar
    70    21    22   ar
    71    19    17   ar
    72    22    20   ar
    73    17    16    1
    74    17    18   ar
    75    30    28    1
    76    16    13    1
    77    20    18   ar
    78    28    27    1
    79    59    58    2
    80    56    57    1
    81    27    24    1
    82    63    62    1
    83     2     1    1
    84     2     3    1
    85    24    23    1
    86    24    25    1
    87    13    12    1
    88    13    14    1
    89    58    57    1
    90    57    60    1
    91     3     4    2
    92    25    26    2
    93    60    61    1
    94    14    15    2
    95    61    62    1
