@<TRIPOS>MOLECULE
tmp/5tpxA00.pdb
 133 135 0 0 0
SMALL
GASTEIGER

@<TRIPOS>ATOM
      1  N         21.7630   75.0380   54.5500 N.3    25  TRP25      -0.1228
      2  CA        22.9860   74.3580   54.1010 C.3    25  TRP25       0.1722
      3  C         23.8390   75.2070   53.0880 C.2    25  TRP25       0.2437
      4  O         25.0700   75.1730   53.1930 O.2    25  TRP25      -0.2733
      5  CB        22.6990   72.9370   53.5190 C.3    25  TRP25       0.0563
      6  CG        22.0440   72.8850   52.1650 C.ar   25  TRP25       0.0003
      7  CD1       20.7370   72.6190   51.9020 C.ar   25  TRP25       0.0946
      8  CD2       22.6900   73.0050   50.8930 C.ar   25  TRP25       0.0152
      9  NE1       20.5080   72.6710   50.5480 N.ar   25  TRP25      -0.2442
     10  CE2       21.6920   72.8890   49.9040 C.ar   25  TRP25       0.0810
     11  CE3       24.0070   73.2610   50.4910 C.ar   25  TRP25       0.0012
     12  CZ2       21.9640   73.0440   48.5440 C.ar   25  TRP25       0.0191
     13  CZ3       24.2870   73.3250   49.1340 C.ar   25  TRP25       0.0001
     14  CH2       23.2620   73.2910   48.1850 C.ar   25  TRP25       0.0015
     15  N         23.2660   75.9640   52.1210 N.am   26  PRO26      -0.2718
     16  CA        24.1450   76.6980   51.1920 C.3    26  PRO26       0.1535
     17  C         24.8820   77.8750   51.8630 C.2    26  PRO26       0.2599
     18  O         25.8870   78.3410   51.3470 O.2    26  PRO26      -0.2715
     19  CB        23.1870   77.2030   50.0930 C.3    26  PRO26       0.0310
     20  CG        21.8500   76.6780   50.4220 C.3    26  PRO26       0.0237
     21  CD        21.8440   76.2290   51.8370 C.3    26  PRO26       0.0939
     22  N         24.3940   78.3230   53.0260 N.am   27  PHE27      -0.1960
     23  CA        24.9520   79.4810   53.7270 C.3    27  PHE27       0.1771
     24  C         26.0380   79.1060   54.7310 C.2    27  PHE27       0.2619
     25  O         26.5230   79.9750   55.4520 O.2    27  PHE27      -0.2715
     26  CB        23.8220   80.2080   54.4470 C.3    27  PHE27       0.0574
     27  CG        22.7070   80.6370   53.5110 C.ar   27  PHE27      -0.0200
     28  CD1       22.7810   81.8380   52.8200 C.ar   27  PHE27      -0.0042
     29  CD2       21.5660   79.8630   53.3620 C.ar   27  PHE27      -0.0042
     30  CE1       21.7310   82.2570   51.9940 C.ar   27  PHE27      -0.0003
     31  CE2       20.5280   80.2680   52.5140 C.ar   27  PHE27      -0.0003
     32  CZ        20.6320   81.4430   51.8140 C.ar   27  PHE27      -0.0000
     33  N         26.4280   77.8370   54.7730 N.am   28  LEU28      -0.1963
     34  CA        27.4010   77.3470   55.7440 C.3    28  LEU28       0.1728
     35  C         28.8190   77.6080   55.3310 C.2    28  LEU28       0.2616
     36  O         29.7110   77.4250   56.1580 O.2    28  LEU28      -0.2715
     37  CB        27.2150   75.8400   55.9800 C.3    28  LEU28       0.0311
     38  CG        25.9340   75.4820   56.6670 C.3    28  LEU28       0.0022
     39  CD1       25.7450   73.9730   56.7020 C.3    28  LEU28       0.0001
     40  CD2       25.8930   76.0660   58.0680 C.3    28  LEU28       0.0001
     41  N         29.0680   78.0120   54.0690 N.am   29  LYS29      -0.1964
     42  CA        30.4140   78.4020   53.6940 C.3    29  LYS29       0.1713
     43  C         30.3560   79.5210   52.6090 C.2    29  LYS29       0.2458
     44  O         29.2670   79.8380   52.1060 O.2    29  LYS29      -0.2730
     45  CB        31.2370   77.1880   53.2760 C.3    29  LYS29       0.0311
     46  CG        31.0860   76.7370   51.8670 C.3    29  LYS29       0.0038
     47  CD        31.7450   75.3390   51.6890 C.3    29  LYS29       0.0206
     48  CE        33.2630   75.4040   51.7680 C.3    29  LYS29       0.1093
     49  NZ        33.9250   74.1320   51.3360 N.3    29  LYS29      -0.1314
     50  N         31.4670   80.2890   52.4440 N.am   30  PRO30      -0.2716
     51  CA        31.4220   81.4640   51.5520 C.3    30  PRO30       0.1536
     52  C         31.3910   81.0700   50.0930 C.2    30  PRO30       0.2598
     53  O         31.9230   80.0220   49.7280 O.2    30  PRO30      -0.2715
     54  CB        32.7310   82.2250   51.8850 C.3    30  PRO30       0.0310
     55  CG        33.6250   81.2450   52.4380 C.3    30  PRO30       0.0237
     56  CD        32.7980   80.1260   53.0560 C.3    30  PRO30       0.0939
     57  N         30.7690   81.9050   49.2540 N.am   31  VAL31      -0.1964
     58  CA        30.7160   81.6450   47.8120 C.3    31  VAL31       0.1727
     59  C         32.1540   81.7450   47.2070 C.2    31  VAL31       0.2616
     60  O         32.9430   82.5870   47.6220 O.2    31  VAL31      -0.2715
     61  CB        29.7300   82.5990   47.1090 C.3    31  VAL31       0.0290
     62  CG1       29.8580   82.4980   45.5850 C.3    31  VAL31       0.0023
     63  CG2       28.2920   82.3220   47.5580 C.3    31  VAL31       0.0023
     64  N         32.4750   80.8880   46.2450 N.am   32  SER32      -0.1950
     65  CA        33.7890   80.9150   45.5970 C.3    32  SER32       0.1924
     66  C         33.6640   81.5250   44.2160 C.2    32  SER32       0.2314
     67  O         32.5740   81.5360   43.6420 O.2    32  SER32      -0.2863
     68  CB        34.3550   79.4990   45.4960 C.3    32  SER32       0.2116
     69  OG        33.6110   78.7130   44.5850 O.3    32  SER32      -0.2180
     70  N         32.4730   78.9510   41.2210 N.3    35  GLU35      -0.1231
     71  CA        31.0470   78.6930   41.0490 C.3    35  GLU35       0.1699
     72  C         30.2600   79.9610   40.6880 C.2    35  GLU35       0.2592
     73  O         29.1540   79.8520   40.1430 O.2    35  GLU35      -0.2718
     74  CB        30.4710   78.0500   42.3210 C.3    35  GLU35       0.0402
     75  CG        30.2590   78.9970   43.4980 C.3    35  GLU35       0.1161
     76  CD        29.9320   78.3050   44.8030 C.2    35  GLU35       0.3649
     77  OE1       29.4620   77.1470   44.7600 O.co2  35  GLU35      -0.2457
     78  OE2       30.0520   78.9560   45.8640 O.co2  35  GLU35      -0.2457
     79  N         30.8020   81.1590   41.0030 N.am   36  ALA36      -0.1980
     80  CA        30.1120   82.4290   40.7300 C.3    36  ALA36       0.1597
     81  C         31.1500   83.5240   40.4680 C.2    36  ALA36       0.2287
     82  O         31.4960   84.2860   41.3790 O.2    36  ALA36      -0.2864
     83  CB        29.2400   82.7890   41.9110 C.3    36  ALA36       0.0319
     84  N         30.4760   87.1360   41.5060 N.3    39  TYR39      -0.1241
     85  CA        29.8050   87.3040   42.8100 C.3    39  TYR39       0.1605
     86  C         30.3620   88.5020   43.5880 C.2    39  TYR39       0.2264
     87  O         29.5900   89.3330   44.0570 O.2    39  TYR39      -0.2867
     88  CB        29.9350   86.0350   43.6470 C.3    39  TYR39       0.0534
     89  CG        29.2150   86.0960   44.9680 C.ar   39  TYR39      -0.0201
     90  CD1       27.8750   85.7400   45.0700 C.ar   39  TYR39      -0.0009
     91  CD2       29.8980   86.3790   46.1400 C.ar   39  TYR39      -0.0009
     92  CE1       27.2350   85.6820   46.3050 C.ar   39  TYR39       0.0417
     93  CE2       29.2450   86.4210   47.3670 C.ar   39  TYR39       0.0417
     94  CZ        27.9110   86.0670   47.4460 C.ar   39  TYR39       0.1957
     95  OH        27.2800   86.0710   48.6630 O.3    39  TYR39      -0.2866
     96  N         22.3290   87.5440   49.1670 N.3    78  CYS78      -0.1235
     97  CA        21.8620   86.3910   48.4290 C.3    78  CYS78       0.1677
     98  C         20.7650   86.7860   47.4270 C.2    78  CYS78       0.2270
     99  O         20.8570   86.3990   46.2680 O.2    78  CYS78      -0.2867
    100  CB        21.3850   85.3100   49.3920 C.3    78  CYS78       0.0956
    101  SG        20.8510   83.7750   48.5900 S.3    78  CYS78      -0.0801
    102  N         22.1770   89.0180   44.3860 N.3    81  TYR81      -0.1227
    103  CA        22.9370   88.2950   43.3730 C.3    81  TYR81       0.1736
    104  C         22.0800   87.2890   42.5970 C.2    81  TYR81       0.2595
    105  O         22.2510   87.1550   41.3980 O.2    81  TYR81      -0.2718
    106  CB        24.1260   87.5350   44.0330 C.3    81  TYR81       0.0548
    107  CG        25.0030   86.8290   43.0220 C.ar   81  TYR81      -0.0200
    108  CD1       25.8400   87.5480   42.1800 C.ar   81  TYR81      -0.0009
    109  CD2       24.8630   85.4680   42.7840 C.ar   81  TYR81      -0.0009
    110  CE1       26.5870   86.9210   41.1940 C.ar   81  TYR81       0.0417
    111  CE2       25.5790   84.8320   41.7690 C.ar   81  TYR81       0.0417
    112  CZ        26.4670   85.5570   40.9990 C.ar   81  TYR81       0.1957
    113  OH        27.1420   84.9450   39.9810 O.3    81  TYR81      -0.2866
    114  N         21.2520   86.5150   43.2930 N.am   82  ASN82      -0.1974
    115  CA        20.5440   85.3880   42.6950 C.3    82  ASN82       0.1688
    116  C         19.1610   85.7530   42.1820 C.2    82  ASN82       0.2292
    117  O         18.4230   86.4540   42.8540 O.2    82  ASN82      -0.2864
    118  CB        20.4290   84.2930   43.7020 C.3    82  ASN82       0.1181
    119  CG        21.7810   83.7380   44.1170 C.2    82  ASN82       0.2629
    120  OD1       22.2770   83.9590   45.2260 O.2    82  ASN82      -0.2716
    121  ND2       22.4180   83.0560   43.2250 N.am   82  ASN82      -0.0877
    122  N         18.7410   79.4380   46.0190 N.3    88  TYR88      -0.1241
    123  CA        19.3930   80.3410   46.9510 C.3    88  TYR88       0.1605
    124  C         18.4450   81.4630   47.3520 C.2    88  TYR88       0.2264
    125  O         18.2260   81.7070   48.5490 O.2    88  TYR88      -0.2867
    126  CB        20.6840   80.9040   46.3340 C.3    88  TYR88       0.0534
    127  CG        21.6220   79.8210   45.8380 C.ar   88  TYR88      -0.0201
    128  CD1       22.0990   78.8380   46.7000 C.ar   88  TYR88      -0.0009
    129  CD2       21.9320   79.7050   44.4860 C.ar   88  TYR88      -0.0009
    130  CE1       22.9490   77.8330   46.2490 C.ar   88  TYR88       0.0417
    131  CE2       22.7230   78.6610   44.0100 C.ar   88  TYR88       0.0417
    132  CZ        23.2410   77.7330   44.8960 C.ar   88  TYR88       0.1957
    133  OH        24.0260   76.6960   44.4420 O.3    88  TYR88      -0.2866
@<TRIPOS>BOND
     1   113   112    1
     2    73    72    2
     3    81    80    1
     4    81    82    2
     5    72    79   am
     6    72    71    1
     7    80    79    1
     8    80    83    1
     9   112   110   ar
    10   112   111   ar
    11    71    70    1
    12    71    74    1
    13   110   108   ar
    14   105   104    2
    15    84    85    1
    16   111   109   ar
    17   108   107   ar
    18   116   115    1
    19   116   117    2
    20    74    75    1
    21   104   114   am
    22   104   103    1
    23   115   114    1
    24   115   118    1
    25   109   107   ar
    26    85    86    1
    27    85    88    1
    28   107   106    1
    29   121   119   am
    30   103   106    1
    31   103   102    1
    32    75    76    1
    33    86    87    2
    34    67    66    2
    35    88    89    1
    36   118   119    1
    37   131   129   ar
    38   131   132   ar
    39   119   120    2
    40    66    65    1
    41   133   132    1
    42   129   127   ar
    43    69    68    1
    44    77    76   ar
    45    76    78   ar
    46   132   130   ar
    47    89    90   ar
    48    89    91   ar
    49    90    92   ar
    50    68    65    1
    51    62    61    1
    52    65    64    1
    53   127   126    1
    54   127   128   ar
    55   122   123    1
    56    91    93   ar
    57    64    59   am
    58   130   128   ar
    59    99    98    2
    60    92    94   ar
    61   126   123    1
    62   123   124    1
    63    61    63    1
    64    61    58    1
    65    59    60    2
    66    59    58    1
    67   124   125    2
    68    93    94   ar
    69    98    97    1
    70    94    95    1
    71    58    57    1
    72    14    12   ar
    73    14    13   ar
    74    97    96    1
    75    97   100    1
    76    12    10   ar
    77   101   100    1
    78    13    11   ar
    79    57    52   am
    80    53    52    2
    81    10     9   ar
    82    10     8   ar
    83    19    20    1
    84    19    16    1
    85    52    51    1
    86    20    21    1
    87    11     8   ar
    88     9     7   ar
    89     8     6   ar
    90    16    17    1
    91    16    15    1
    92    49    48    1
    93    18    17    2
    94    51    54    1
    95    51    50    1
    96    47    48    1
    97    47    46    1
    98    32    30   ar
    99    32    31   ar
   100    21    15    1
   101    17    22   am
   102    46    45    1
   103    54    55    1
   104     7     6   ar
   105    30    28   ar
   106    44    43    2
   107    15     3   am
   108     6     5    1
   109    55    56    1
   110    50    43   am
   111    50    56    1
   112    31    29   ar
   113    43    42    1
   114    28    27   ar
   115    22    23    1
   116     3     4    2
   117     3     2    1
   118    45    42    1
   119    29    27   ar
   120    27    26    1
   121     5     2    1
   122    42    41    1
   123    23    26    1
   124    23    24    1
   125    41    35   am
   126     2     1    1
   127    24    33   am
   128    24    25    2
   129    33    34    1
   130    35    34    1
   131    35    36    2
   132    34    37    1
   133    37    38    1
   134    38    39    1
   135    38    40    1
