@<TRIPOS>MOLECULE
tmp/5tq3B00.pdb
 173 166 0 0 0
SMALL
GASTEIGER

@<TRIPOS>ATOM
      1  N         13.2370   45.2320   42.3840 N.3    13  LEU13      -0.1245
      2  CA        12.1850   44.4940   41.6890 C.3    13  LEU13       0.1561
      3  C         12.5610   44.1660   40.2540 C.2    13  LEU13       0.2260
      4  O         12.2370   43.0910   39.7580 O.2    13  LEU13      -0.2867
      5  CB        10.8750   45.2840   41.6890 C.3    13  LEU13       0.0270
      6  CG         9.9430   45.1790   42.8880 C.3    13  LEU13       0.0019
      7  CD1        8.6530   45.9200   42.5590 C.3    13  LEU13       0.0001
      8  CD2        9.6490   43.7340   43.2510 C.3    13  LEU13       0.0001
      9  N         13.3470   49.6350   39.1690 N.3    21  VAL21      -0.1245
     10  CA        12.1310   49.5260   39.9660 C.3    21  VAL21       0.1561
     11  C         12.4370   48.9110   41.3270 C.2    21  VAL21       0.2260
     12  O         13.1520   47.9330   41.4150 O.2    21  VAL21      -0.2867
     13  CB        11.0630   48.6860   39.2340 C.3    21  VAL21       0.0252
     14  CG1        9.7310   48.7410   39.9750 C.3    21  VAL21       0.0019
     15  CG2       10.8910   49.1760   37.7970 C.3    21  VAL21       0.0019
     16  N          5.4890   50.3880   44.3300 N.3    38  ALA38      -0.1231
     17  CA         6.5600   50.1790   43.3460 C.3    38  ALA38       0.1694
     18  C          7.0760   51.5340   42.8990 C.2    38  ALA38       0.2592
     19  O          6.2900   52.4070   42.5520 O.2    38  ALA38      -0.2718
     20  CB         6.0490   49.3890   42.1480 C.3    38  ALA38       0.0304
     21  N          8.3940   51.7030   42.9000 N.am   39  VAL39      -0.1966
     22  CA         9.0210   53.0030   42.6740 C.3    39  VAL39       0.1727
     23  C          9.9640   52.9360   41.4770 C.2    39  VAL39       0.2616
     24  O         10.8400   52.0810   41.4380 O.2    39  VAL39      -0.2715
     25  CB         9.8430   53.4300   43.9060 C.3    39  VAL39       0.0290
     26  CG1       10.4960   54.7680   43.6680 C.3    39  VAL39       0.0023
     27  CG2        8.9730   53.4690   45.1540 C.3    39  VAL39       0.0023
     28  N          9.7960   53.8290   40.5070 N.am   40  LYS40      -0.1977
     29  CA        10.7410   53.9230   39.3920 C.3    40  LYS40       0.1596
     30  C         11.6020   55.1720   39.4930 C.2    40  LYS40       0.2287
     31  O         11.0810   56.2730   39.6310 O.2    40  LYS40      -0.2864
     32  CB        10.0230   53.9340   38.0360 C.3    40  LYS40       0.0298
     33  CG        10.9240   54.3690   36.8890 C.3    40  LYS40       0.0038
     34  CD        10.3040   54.1700   35.5410 C.3    40  LYS40       0.0206
     35  CE        11.2160   54.7040   34.4640 C.3    40  LYS40       0.1093
     36  NZ        10.5830   54.6760   33.1390 N.3    40  LYS40      -0.1314
     37  N          5.8170   59.9710   30.3180 N.3    56  GLU56      -0.1245
     38  CA         5.2970   58.7060   30.8410 C.3    56  GLU56       0.1567
     39  C          4.3520   58.9630   32.0130 C.2    56  GLU56       0.2260
     40  O          3.2660   58.3850   32.0730 O.2    56  GLU56      -0.2867
     41  CB         6.4500   57.7910   31.2630 C.3    56  GLU56       0.0388
     42  CG         6.0460   56.5140   31.9920 C.3    56  GLU56       0.1160
     43  CD         7.2410   55.6340   32.3270 C.2    56  GLU56       0.3649
     44  OE1        8.3480   55.9550   31.8490 O.co2  56  GLU56      -0.2457
     45  OE2        7.0780   54.6280   33.0600 O.co2  56  GLU56      -0.2457
     46  N          0.3580   57.8060   32.5600 N.3    60  LEU60      -0.1245
     47  CA        -0.0640   57.0340   33.7360 C.3    60  LEU60       0.1561
     48  C         -1.1400   57.7580   34.5410 C.2    60  LEU60       0.2260
     49  O         -2.1580   57.1870   34.8960 O.2    60  LEU60      -0.2867
     50  CB         1.1450   56.7650   34.6400 C.3    60  LEU60       0.0270
     51  CG         1.9060   55.4470   34.5100 C.3    60  LEU60       0.0019
     52  CD1        1.6350   54.7530   33.2010 C.3    60  LEU60       0.0001
     53  CD2        3.3890   55.6960   34.7010 C.3    60  LEU60       0.0001
     54  N         -2.5910   49.2180   35.4840 N.3    69  VAL69      -0.1245
     55  CA        -1.9400   49.4270   36.7790 C.3    69  VAL69       0.1561
     56  C         -2.0730   50.8940   37.2600 C.2    69  VAL69       0.2260
     57  O         -1.9620   51.8210   36.4560 O.2    69  VAL69      -0.2867
     58  CB        -0.4550   48.9910   36.6630 C.3    69  VAL69       0.0252
     59  CG1        0.3400   50.0260   35.8810 C.3    69  VAL69       0.0019
     60  CG2        0.1650   48.7090   38.0270 C.3    69  VAL69       0.0019
     61  N          8.7500   57.9990   40.1760 N.3    85  LEU85      -0.1245
     62  CA         7.3660   57.6510   39.9110 C.3    85  LEU85       0.1561
     63  C          6.9180   56.6050   40.9310 C.2    85  LEU85       0.2260
     64  O          7.6560   55.6700   41.2280 O.2    85  LEU85      -0.2867
     65  CB         7.2470   57.0820   38.5060 C.3    85  LEU85       0.0270
     66  CG         5.9800   56.3130   38.1530 C.3    85  LEU85       0.0019
     67  CD1        4.7510   57.1900   38.3410 C.3    85  LEU85       0.0001
     68  CD2        6.0970   55.8010   36.7370 C.3    85  LEU85       0.0001
     69  N          3.8600   53.8550   41.8980 N.3    87  MET87      -0.1230
     70  CA         2.7280   53.0960   41.3890 C.3    87  MET87       0.1702
     71  C          2.3260   52.0770   42.4350 C.2    87  MET87       0.2592
     72  O          3.0760   51.8110   43.3600 O.2    87  MET87      -0.2718
     73  CB         3.1400   52.3720   40.1120 C.3    87  MET87       0.0401
     74  CG         3.7520   53.2630   39.0460 C.3    87  MET87       0.0596
     75  SD         2.5320   54.1550   38.0710 S.3    87  MET87      -0.1393
     76  CE         1.8020   52.8140   37.1490 C.3    87  MET87       0.0692
     77  N          1.1410   51.5040   42.2910 N.am   88  GLU88      -0.1966
     78  CA         0.7420   50.4080   43.1560 C.3    88  GLU88       0.1733
     79  C          1.6990   49.2430   42.9610 C.2    88  GLU88       0.2616
     80  O          2.2900   49.0820   41.8900 O.2    88  GLU88      -0.2715
     81  CB        -0.6860   49.9550   42.8490 C.3    88  GLU88       0.0429
     82  CG        -0.8500   49.3150   41.4780 C.3    88  GLU88       0.1163
     83  CD        -2.2390   48.8000   41.2150 C.2    88  GLU88       0.3649
     84  OE1       -2.7110   48.9650   40.0760 O.co2  88  GLU88      -0.2457
     85  OE2       -2.8580   48.2170   42.1310 O.co2  88  GLU88      -0.2457
     86  N          1.8430   48.4330   44.0010 N.am   89  TYR89      -0.1960
     87  CA         2.6820   47.2500   43.9450 C.3    89  TYR89       0.1771
     88  C          1.7810   46.0400   43.8310 C.2    89  TYR89       0.2619
     89  O          0.9270   45.8370   44.6760 O.2    89  TYR89      -0.2715
     90  CB         3.5570   47.1620   45.1980 C.3    89  TYR89       0.0574
     91  CG         4.2860   45.8440   45.3610 C.ar   89  TYR89      -0.0198
     92  CD1        5.3340   45.4950   44.5160 C.ar   89  TYR89      -0.0009
     93  CD2        3.9250   44.9470   46.3670 C.ar   89  TYR89      -0.0009
     94  CE1        6.0100   44.2860   44.6710 C.ar   89  TYR89       0.0417
     95  CE2        4.5890   43.7370   46.5270 C.ar   89  TYR89       0.0417
     96  CZ         5.6300   43.4120   45.6780 C.ar   89  TYR89       0.1957
     97  OH         6.2910   42.2120   45.8440 O.3    89  TYR89      -0.2866
     98  N          1.9540   45.2570   42.7690 N.am   90  LEU90      -0.1964
     99  CA         1.1980   44.0230   42.5830 C.3    90  LEU90       0.1713
    100  C          2.1380   42.8700   42.9200 C.2    90  LEU90       0.2458
    101  O          3.1340   42.6820   42.2200 O.2    90  LEU90      -0.2730
    102  CB         0.6950   43.9050   41.1410 C.3    90  LEU90       0.0310
    103  CG         0.0250   45.1350   40.5100 C.3    90  LEU90       0.0022
    104  CD1       -0.3380   44.8200   39.0770 C.3    90  LEU90       0.0001
    105  CD2       -1.1940   45.5740   41.2570 C.3    90  LEU90       0.0001
    106  N          1.8390   42.1040   43.9950 N.am   91  PRO91      -0.2716
    107  CA         2.7790   41.0860   44.5140 C.3    91  PRO91       0.1536
    108  C          3.1820   39.9540   43.5710 C.2    91  PRO91       0.2599
    109  O          4.2790   39.4270   43.7250 O.2    91  PRO91      -0.2715
    110  CB         2.0460   40.5000   45.7310 C.3    91  PRO91       0.0310
    111  CG         1.0510   41.4930   46.1010 C.3    91  PRO91       0.0237
    112  CD         0.6170   42.1500   44.8160 C.3    91  PRO91       0.0939
    113  N          2.3380   39.5730   42.6130 N.am   92  TYR92      -0.1960
    114  CA         2.6790   38.4070   41.7710 C.3    92  TYR92       0.1771
    115  C          3.6160   38.6950   40.5850 C.2    92  TYR92       0.2620
    116  O          4.0550   37.7700   39.9040 O.2    92  TYR92      -0.2715
    117  CB         1.4190   37.6580   41.3290 C.3    92  TYR92       0.0574
    118  CG         0.6520   37.1220   42.5110 C.ar   92  TYR92      -0.0198
    119  CD1        1.1530   36.0680   43.2750 C.ar   92  TYR92      -0.0009
    120  CD2       -0.5540   37.6960   42.8970 C.ar   92  TYR92      -0.0009
    121  CE1        0.4580   35.5870   44.3800 C.ar   92  TYR92       0.0417
    122  CE2       -1.2520   37.2270   43.9990 C.ar   92  TYR92       0.0417
    123  CZ        -0.7360   36.1730   44.7350 C.ar   92  TYR92       0.1957
    124  OH        -1.4350   35.7180   45.8230 O.3    92  TYR92      -0.2866
    125  N          3.9550   39.9620   40.3660 N.am   93  GLY93      -0.1940
    126  CA         4.9620   40.3170   39.3710 C.3    93  GLY93       0.2014
    127  C          4.4570   40.2670   37.9410 C.2    93  GLY93       0.2639
    128  O          3.2900   40.5430   37.6790 O.2    93  GLY93      -0.2714
    129  N          5.3550   39.9340   37.0150 N.am   94  SER94      -0.1949
    130  CA         5.0430   39.9410   35.5910 C.3    94  SER94       0.1924
    131  C          4.4280   38.6180   35.1580 C.2    94  SER94       0.2314
    132  O          4.6670   37.5720   35.7700 O.2    94  SER94      -0.2863
    133  CB         6.2920   40.2460   34.7440 C.3    94  SER94       0.2116
    134  OG         7.0120   39.0720   34.4040 O.3    94  SER94      -0.2180
    135  N          7.0130   35.7090   34.3580 N.3    97  ASP97      -0.1239
    136  CA         7.5430   34.9430   35.4820 C.3    97  ASP97       0.1674
    137  C          6.4320   34.1360   36.1130 C.2    97  ASP97       0.2266
    138  O          6.5770   32.9430   36.3450 O.2    97  ASP97      -0.2867
    139  CB         8.1430   35.8730   36.5460 C.3    97  ASP97       0.1410
    140  CG         9.2970   36.7150   36.0160 C.2    97  ASP97       0.3668
    141  OD1       10.0470   36.2470   35.1310 O.co2  97  ASP97      -0.2456
    142  OD2        9.4440   37.8630   36.4870 O.co2  97  ASP97      -0.2456
    143  N          1.3150   42.8550   34.3500 N.3   141  LEU141     -0.1245
    144  CA         1.4430   42.5460   35.7760 C.3   141  LEU141      0.1561
    145  C          0.2310   41.7950   36.2950 C.2   141  LEU141      0.2260
    146  O         -0.8790   42.0230   35.8260 O.2   141  LEU141     -0.2867
    147  CB         1.6230   43.8280   36.5840 C.3   141  LEU141      0.0270
    148  CG         2.9360   44.5600   36.3260 C.3   141  LEU141      0.0019
    149  CD1        2.8680   45.9860   36.8420 C.3   141  LEU141      0.0001
    150  CD2        4.1160   43.7910   36.9600 C.3   141  LEU141      0.0001
    151  N          0.9470   47.3530   32.7970 N.3   151  GLY151     -0.1210
    152  CA         1.7650   48.2450   32.0110 C.3   151  GLY151      0.1956
    153  C          3.2450   48.4020   32.2990 C.2   151  GLY151      0.2612
    154  O          3.7540   48.1340   33.3940 O.2   151  GLY151     -0.2717
    155  N          3.9240   48.8430   31.2580 N.am  152  ASP152     -0.1959
    156  CA         5.1930   49.5360   31.3510 C.3   152  ASP152      0.1840
    157  C          4.9740   50.5550   30.2510 C.2   152  ASP152      0.2622
    158  O          5.0540   50.2200   29.0630 O.2   152  ASP152     -0.2715
    159  CB         6.3720   48.6050   31.0580 C.3   152  ASP152      0.1450
    160  CG         7.7220   49.3130   31.1360 C.2   152  ASP152      0.3671
    161  OD1        7.9640   50.0530   32.0970 O.co2 152  ASP152     -0.2456
    162  OD2        8.5700   49.1290   30.2430 O.co2 152  ASP152     -0.2456
    163  N          4.6080   51.7700   30.6440 N.am  153  PHE153     -0.1974
    164  CA         4.1970   52.7760   29.6880 C.3   153  PHE153      0.1639
    165  C          5.3260   53.7360   29.3220 C.2   153  PHE153      0.2290
    166  O          5.0640   54.8780   28.9280 O.2   153  PHE153     -0.2864
    167  CB         3.0060   53.5470   30.2410 C.3   153  PHE153      0.0560
    168  CG         1.7430   52.7590   30.2610 C.ar  153  PHE153     -0.0200
    169  CD1        1.4460   51.9280   31.3220 C.ar  153  PHE153     -0.0042
    170  CD2        0.8540   52.8360   29.2080 C.ar  153  PHE153     -0.0042
    171  CE1        0.2850   51.1950   31.3250 C.ar  153  PHE153     -0.0003
    172  CE2       -0.3100   52.1110   29.2060 C.ar  153  PHE153     -0.0003
    173  CZ        -0.5980   51.2900   30.2560 C.ar  153  PHE153     -0.0000
@<TRIPOS>BOND
     1   166   165    2
     2   158   157    2
     3   172   170   ar
     4   172   173   ar
     5   170   168   ar
     6   165   164    1
     7   164   167    1
     8   164   163    1
     9   167   168    1
    10   162   160   ar
    11   157   163   am
    12   157   156    1
    13   173   171   ar
    14   168   169   ar
    15    37    38    1
    16    38    41    1
    17    38    39    1
    18   159   160    1
    19   159   156    1
    20   160   161   ar
    21   155   156    1
    22   155   153   am
    23    41    42    1
    24   169   171   ar
    25    44    43   ar
    26    42    43    1
    27   152   153    1
    28   152   151    1
    29    39    40    2
    30   153   154    2
    31    43    45   ar
    32    46    47    1
    33    36    35    1
    34    52    51    1
    35    47    48    1
    36    47    50    1
    37   143   144    1
    38   135   136    1
    39   134   133    1
    40    35    34    1
    41    51    50    1
    42    51    53    1
    43    48    49    2
    44   133   130    1
    45   141   140   ar
    46   131   130    1
    47   131   132    2
    48   136   137    1
    49   136   139    1
    50    54    55    1
    51    34    33    1
    52   130   129    1
    53   144   145    1
    54   144   147    1
    55   146   145    2
    56    59    58    1
    57   140   142   ar
    58   140   139    1
    59   137   138    2
    60   148   147    1
    61   148   149    1
    62   148   150    1
    63    57    56    2
    64    58    55    1
    65    58    60    1
    66    68    66    1
    67    55    56    1
    68    33    32    1
    69   129   127   am
    70    76    75    1
    71   128   127    2
    72    15    13    1
    73   127   126    1
    74    32    29    1
    75    75    74    1
    76    66    67    1
    77    66    65    1
    78    65    62    1
    79    74    73    1
    80   104   103    1
    81     9    10    1
    82    13    10    1
    83    13    14    1
    84   126   125    1
    85    29    30    1
    86    29    28    1
    87    30    31    2
    88     4     3    2
    89   116   115    2
    90    62    61    1
    91    62    63    1
    92    10    11    1
    93    84    83   ar
    94    73    70    1
    95     3     2    1
    96   125   115   am
    97    28    23   am
    98   103   102    1
    99   103   105    1
   100   115   114    1
   101    63    64    2
   102   102    99    1
   103    83    82    1
   104    83    85   ar
   105    11    12    2
   106   117   114    1
   107   117   118    1
   108    70    69    1
   109    70    71    1
   110    24    23    2
   111    23    22    1
   112    82    81    1
   113     5     2    1
   114     5     6    1
   115     2     1    1
   116   114   113    1
   117    80    79    2
   118    20    17    1
   119   101   100    2
   120    77    71   am
   121    77    78    1
   122    71    72    2
   123   118   120   ar
   124   118   119   ar
   125    19    18    2
   126     7     6    1
   127    99    98    1
   128    99   100    1
   129   113   108   am
   130    22    21    1
   131    22    25    1
   132    98    88   am
   133    81    78    1
   134     6     8    1
   135   120   122   ar
   136    18    21   am
   137    18    17    1
   138   100   106   am
   139    79    78    1
   140    79    86   am
   141   119   121   ar
   142    17    16    1
   143   108   109    2
   144   108   107    1
   145    26    25    1
   146    88    87    1
   147    88    89    2
   148    25    27    1
   149    87    86    1
   150    87    90    1
   151   106   107    1
   152   106   112    1
   153   122   123   ar
   154   121   123   ar
   155   107   110    1
   156    92    94   ar
   157    92    91   ar
   158    94    96   ar
   159   123   124    1
   160   112   111    1
   161    90    91    1
   162    91    93   ar
   163    96    97    1
   164    96    95   ar
   165   110   111    1
   166    93    95   ar
