@<TRIPOS>MOLECULE
tmp/5tq4A00.pdb
 146 137 0 0 0
SMALL
GASTEIGER

@<TRIPOS>ATOM
      1  N         24.1190  -18.3530   23.5780 N.3    15  LEU15      -0.1245
      2  CA        23.1510  -17.4340   22.9570 C.3    15  LEU15       0.1561
      3  C         23.5910  -15.9600   22.8970 C.2    15  LEU15       0.2260
      4  O         23.0360  -15.1960   22.1100 O.2    15  LEU15      -0.2867
      5  CB        21.7930  -17.5240   23.6660 C.3    15  LEU15       0.0270
      6  CG        20.9250  -18.7590   23.4080 C.3    15  LEU15       0.0019
      7  CD1       19.6580  -18.6720   24.2420 C.3    15  LEU15       0.0001
      8  CD2       20.5770  -18.9110   21.9350 C.3    15  LEU15       0.0001
      9  N         24.2750  -15.1580   28.3040 N.3    23  VAL23      -0.1245
     10  CA        23.0210  -15.9240   28.2110 C.3    23  VAL23       0.1561
     11  C         23.2640  -17.2950   27.5460 C.2    23  VAL23       0.2260
     12  O         23.9900  -17.3800   26.5520 O.2    23  VAL23      -0.2867
     13  CB        21.9500  -15.1290   27.4210 C.3    23  VAL23       0.0252
     14  CG1       20.6260  -15.8800   27.3790 C.3    23  VAL23       0.0019
     15  CG2       21.7490  -13.7430   28.0270 C.3    23  VAL23       0.0019
     16  N         16.1700  -20.6330   28.9580 N.3    40  ALA40      -0.1245
     17  CA        17.2710  -19.6610   28.7840 C.3    40  ALA40       0.1562
     18  C         17.7450  -19.0870   30.1320 C.2    40  ALA40       0.2260
     19  O         16.9210  -18.7340   30.9750 O.2    40  ALA40      -0.2867
     20  CB        16.8360  -18.5360   27.8600 C.3    40  ALA40       0.0290
     21  N         20.5210  -16.5410   32.5010 N.3    42  LYS42      -0.1245
     22  CA        21.4780  -15.4130   32.6560 C.3    42  LYS42       0.1561
     23  C         22.3270  -15.5020   33.9390 C.2    42  LYS42       0.2260
     24  O         21.8220  -15.8940   34.9900 O.2    42  LYS42      -0.2867
     25  CB        20.7370  -14.0590   32.6410 C.3    42  LYS42       0.0271
     26  CG        21.5860  -12.8620   33.0810 C.3    42  LYS42       0.0035
     27  CD        20.8890  -11.5140   32.9060 C.3    42  LYS42       0.0206
     28  CE        21.7630  -10.3860   33.4420 C.3    42  LYS42       0.1093
     29  NZ        21.1810   -9.0250   33.2650 N.3    42  LYS42      -0.1314
     30  N         16.0220   -6.1800   38.7490 N.3    58  GLU58      -0.1245
     31  CA        15.5110   -6.6620   37.4570 C.3    58  GLU58       0.1567
     32  C         14.5420   -7.8350   37.6590 C.2    58  GLU58       0.2260
     33  O         13.4980   -7.9170   37.0050 O.2    58  GLU58      -0.2867
     34  CB        16.6810   -7.0860   36.5500 C.3    58  GLU58       0.0388
     35  CG        16.3000   -7.5080   35.1310 C.3    58  GLU58       0.1160
     36  CD        17.4790   -8.0390   34.3190 C.2    58  GLU58       0.3649
     37  OE1       18.6390   -7.8960   34.7570 O.co2  58  GLU58      -0.2457
     38  OE2       17.2490   -8.6070   33.2290 O.co2  58  GLU58      -0.2457
     39  N         10.3870   -8.3520   36.7130 N.3    62  LEU62      -0.1245
     40  CA         9.9150   -9.4600   35.8650 C.3    62  LEU62       0.1561
     41  C          8.8100  -10.3230   36.5090 C.2    62  LEU62       0.2260
     42  O          7.8720  -10.7270   35.8210 O.2    62  LEU62      -0.2867
     43  CB        11.0930  -10.3450   35.4260 C.3    62  LEU62       0.0270
     44  CG        12.1020   -9.7020   34.4630 C.3    62  LEU62       0.0019
     45  CD1       13.4370  -10.4330   34.4910 C.3    62  LEU62       0.0001
     46  CD2       11.5580   -9.6430   33.0400 C.3    62  LEU62       0.0001
     47  N          7.5410  -11.1180   27.5730 N.3    71  VAL71      -0.1245
     48  CA         8.2490  -12.3920   27.8460 C.3    71  VAL71       0.1561
     49  C          7.9940  -12.9730   29.2580 C.2    71  VAL71       0.2260
     50  O          7.8880  -12.2230   30.2260 O.2    71  VAL71      -0.2867
     51  CB         9.7770  -12.2260   27.5830 C.3    71  VAL71       0.0252
     52  CG1       10.4230  -11.2750   28.5880 C.3    71  VAL71       0.0019
     53  CG2       10.4970  -13.5700   27.5790 C.3    71  VAL71       0.0019
     54  N         19.2700  -16.5020   36.6860 N.3    87  LEU87      -0.1245
     55  CA        17.8570  -16.2240   36.3160 C.3    87  LEU87       0.1561
     56  C         17.3450  -17.1710   35.2190 C.2    87  LEU87       0.2260
     57  O         18.0340  -17.3770   34.2220 O.2    87  LEU87      -0.2867
     58  CB        17.7070  -14.7690   35.8260 C.3    87  LEU87       0.0270
     59  CG        16.4380  -14.3840   35.0350 C.3    87  LEU87       0.0019
     60  CD1       15.1790  -14.5100   35.8790 C.3    87  LEU87       0.0001
     61  CD2       16.5400  -12.9750   34.4620 C.3    87  LEU87       0.0001
     62  N         14.3260  -18.0040   32.3480 N.3    89  MET89      -0.1230
     63  CA        13.2130  -17.4910   31.5130 C.3    89  MET89       0.1702
     64  C         12.7980  -18.5020   30.4240 C.2    89  MET89       0.2592
     65  O         13.4910  -19.4990   30.2110 O.2    89  MET89      -0.2718
     66  CB        13.6160  -16.1710   30.8410 C.3    89  MET89       0.0401
     67  CG        14.0390  -15.0450   31.7830 C.3    89  MET89       0.0596
     68  SD        12.6940  -14.2560   32.7040 S.3    89  MET89      -0.1393
     69  CE        11.9010  -13.2890   31.4220 C.3    89  MET89       0.0692
     70  N         11.6790  -18.2390   29.7350 N.am   90  GLU90      -0.1966
     71  CA        11.2080  -19.1090   28.6310 C.3    90  GLU90       0.1733
     72  C         12.1100  -19.0100   27.3900 C.2    90  GLU90       0.2616
     73  O         12.6070  -17.9260   27.0730 O.2    90  GLU90      -0.2715
     74  CB         9.7430  -18.7920   28.2390 C.3    90  GLU90       0.0429
     75  CG         9.5340  -17.4770   27.4790 C.3    90  GLU90       0.1163
     76  CD         8.1000  -17.2450   27.0080 C.2    90  GLU90       0.3649
     77  OE1        7.7400  -16.0710   26.7760 O.co2  90  GLU90      -0.2457
     78  OE2        7.3260  -18.2150   26.8600 O.co2  90  GLU90      -0.2457
     79  N         12.3100  -20.1360   26.6970 N.am   91  TYR91      -0.1960
     80  CA        13.1020  -20.1800   25.4470 C.3    91  TYR91       0.1771
     81  C         12.2100  -20.0290   24.2140 C.2    91  TYR91       0.2619
     82  O         11.2290  -20.7590   24.0560 O.2    91  TYR91      -0.2715
     83  CB        13.8960  -21.4970   25.3440 C.3    91  TYR91       0.0574
     84  CG        14.6660  -21.6810   24.0380 C.ar   91  TYR91      -0.0198
     85  CD1       15.7970  -20.9170   23.7580 C.ar   91  TYR91      -0.0009
     86  CD2       14.2670  -22.6280   23.0900 C.ar   91  TYR91      -0.0009
     87  CE1       16.5030  -21.0810   22.5750 C.ar   91  TYR91       0.0417
     88  CE2       14.9680  -22.7990   21.9020 C.ar   91  TYR91       0.0417
     89  CZ        16.0860  -22.0230   21.6500 C.ar   91  TYR91       0.1957
     90  OH        16.7920  -22.1860   20.4800 O.3    91  TYR91      -0.2866
     91  N         12.5690  -19.0880   23.3410 N.am   92  LEU92      -0.1964
     92  CA        11.8380  -18.8290   22.0980 C.3    92  LEU92       0.1713
     93  C         12.7530  -19.0920   20.8980 C.2    92  LEU92       0.2458
     94  O         13.6530  -18.2970   20.6290 O.2    92  LEU92      -0.2730
     95  CB        11.3460  -17.3800   22.0750 C.3    92  LEU92       0.0310
     96  CG        10.2470  -17.0380   23.0880 C.3    92  LEU92       0.0022
     97  CD1       10.1670  -15.5370   23.3260 C.3    92  LEU92       0.0001
     98  CD2        8.9010  -17.5770   22.6290 C.3    92  LEU92       0.0001
     99  N         12.5320  -20.2120   20.1750 N.am   93  PRO93      -0.2727
    100  CA        13.4810  -20.6500   19.1360 C.3    93  PRO93       0.1402
    101  C         13.7880  -19.6730   17.9810 C.2    93  PRO93       0.2269
    102  O         14.8830  -19.7450   17.4240 O.2    93  PRO93      -0.2865
    103  CB        12.8470  -21.9450   18.5910 C.3    93  PRO93       0.0296
    104  CG        11.4390  -21.9450   19.0710 C.3    93  PRO93       0.0237
    105  CD        11.4510  -21.1970   20.3670 C.3    93  PRO93       0.0939
    106  N         14.2980  -16.3950   18.0580 N.3    95  GLY95      -0.1210
    107  CA        15.2790  -15.3680   18.4370 C.3    95  GLY95       0.1956
    108  C         14.7840  -13.9350   18.2880 C.2    95  GLY95       0.2612
    109  O         13.5810  -13.6850   18.3320 O.2    95  GLY95      -0.2717
    110  N         15.7160  -12.9970   18.1050 N.am   96  SER96      -0.1952
    111  CA        15.3860  -11.5620   18.0760 C.3    96  SER96       0.1924
    112  C         14.8060  -11.1110   16.7290 C.2    96  SER96       0.2314
    113  O         15.1120  -11.6910   15.6870 O.2    96  SER96      -0.2863
    114  CB        16.6160  -10.7120   18.4280 C.3    96  SER96       0.2116
    115  OG        17.4800  -10.5390   17.3160 O.3    96  SER96      -0.2180
    116  N         11.6200   -9.9740   20.8080 N.3   143  LEU143     -0.1245
    117  CA        11.7150  -11.4230   20.4970 C.3   143  LEU143      0.1561
    118  C         10.5100  -11.9470   19.6890 C.2   143  LEU143      0.2260
    119  O          9.4170  -11.3860   19.7650 O.2   143  LEU143     -0.2867
    120  CB        11.8350  -12.2360   21.7920 C.3   143  LEU143      0.0270
    121  CG        13.0490  -11.9660   22.6940 C.3   143  LEU143      0.0019
    122  CD1       12.7810  -12.4330   24.1180 C.3   143  LEU143      0.0001
    123  CD2       14.3090  -12.6230   22.1520 C.3   143  LEU143      0.0001
    124  N         11.3360   -7.6200   25.2970 N.3   153  GLY153     -0.1210
    125  CA        12.3970   -8.2930   26.0750 C.3   153  GLY153      0.1956
    126  C         13.3550   -7.3820   26.8470 C.2   153  GLY153      0.2612
    127  O         12.9780   -6.2820   27.2590 O.2   153  GLY153     -0.2717
    128  N         14.5960   -7.8600   27.0200 N.am  154  ASP154     -0.1959
    129  CA        15.6390   -7.2800   27.9070 C.3   154  ASP154      0.1840
    130  C         15.2270   -6.0890   28.7960 C.2   154  ASP154      0.2622
    131  O         15.3230   -4.9280   28.3850 O.2   154  ASP154     -0.2715
    132  CB        16.8990   -6.9340   27.0870 C.3   154  ASP154      0.1450
    133  CG        18.1380   -6.6850   27.9580 C.2   154  ASP154      0.3671
    134  OD1       18.0160   -6.4840   29.1880 O.co2 154  ASP154     -0.2456
    135  OD2       19.2550   -6.6860   27.4000 O.co2 154  ASP154     -0.2456
    136  N         14.8170   -6.3990   30.0290 N.am  155  PHE155     -0.1974
    137  CA        14.4080   -5.3980   31.0320 C.3   155  PHE155      0.1639
    138  C         15.5610   -4.9730   31.9690 C.2   155  PHE155      0.2290
    139  O         15.3290   -4.6140   33.1290 O.2   155  PHE155     -0.2864
    140  CB        13.2380   -5.9460   31.8740 C.3   155  PHE155      0.0560
    141  CG        11.9090   -5.9430   31.1620 C.ar  155  PHE155     -0.0200
    142  CD1       11.5700   -6.9620   30.2790 C.ar  155  PHE155     -0.0042
    143  CD2       10.9870   -4.9250   31.3870 C.ar  155  PHE155     -0.0042
    144  CE1       10.3460   -6.9590   29.6240 C.ar  155  PHE155     -0.0003
    145  CE2        9.7600   -4.9180   30.7370 C.ar  155  PHE155     -0.0003
    146  CZ         9.4400   -5.9340   29.8530 C.ar  155  PHE155     -0.0000
@<TRIPOS>BOND
     1   113   112    2
     2   112   111    1
     3   115   114    1
     4   102   101    2
     5   101   100    1
     6   106   107    1
     7   111   110    1
     8   111   114    1
     9   110   108   am
    10   108   109    2
    11   108   107    1
    12   103   104    1
    13   103   100    1
    14   104   105    1
    15   100    99    1
    16   118   119    2
    17   118   117    1
    18    99   105    1
    19    99    93   am
    20    90    89    1
    21   117   116    1
    22   117   120    1
    23    94    93    2
    24    93    92    1
    25    89    88   ar
    26    89    87   ar
    27   120   121    1
    28    88    86   ar
    29     8     6    1
    30    95    92    1
    31    95    96    1
    32    92    91    1
    33     4     3    2
    34   123   121    1
    35    87    85   ar
    36    98    96    1
    37   121   122    1
    38     3     2    1
    39     2     1    1
    40     2     5    1
    41    96    97    1
    42    86    84   ar
    43    91    81   am
    44     6     5    1
    45     6     7    1
    46    85    84   ar
    47    84    83    1
    48    82    81    2
    49    81    80    1
    50   124   125    1
    51    83    80    1
    52    80    79    1
    53   125   126    1
    54    12    11    2
    55    79    72   am
    56    77    76   ar
    57   126   128   am
    58   126   127    2
    59    78    76   ar
    60    76    75    1
    61   128   129    1
    62    73    72    2
    63   132   129    1
    64   132   133    1
    65    14    13    1
    66    72    71    1
    67   135   133   ar
    68    13    15    1
    69    13    10    1
    70    75    74    1
    71    11    10    1
    72    47    48    1
    73    53    51    1
    74    51    48    1
    75    51    52    1
    76    48    49    1
    77    20    17    1
    78   129   130    1
    79   133   134   ar
    80    10     9    1
    81    74    71    1
    82   131   130    2
    83    71    70    1
    84    17    16    1
    85    17    18    1
    86   130   136   am
    87    49    50    2
    88   144   146   ar
    89   144   142   ar
    90    70    64   am
    91   146   145   ar
    92   136   137    1
    93    18    19    2
    94    65    64    2
    95   142   141   ar
    96    64    63    1
    97   145   143   ar
    98    66    63    1
    99    66    67    1
   100   137   140    1
   101   137   138    1
   102   141   143   ar
   103   141   140    1
   104    69    68    1
   105    63    62    1
   106    67    68    1
   107   138   139    2
   108    21    22    1
   109    25    22    1
   110    25    26    1
   111    22    23    1
   112    27    26    1
   113    27    28    1
   114    46    44    1
   115    38    36   ar
   116    29    28    1
   117    23    24    2
   118    57    56    2
   119    36    37   ar
   120    36    35    1
   121    61    59    1
   122    44    45    1
   123    44    43    1
   124    59    58    1
   125    59    60    1
   126    35    34    1
   127    56    55    1
   128    43    40    1
   129    42    41    2
   130    58    55    1
   131    40    41    1
   132    40    39    1
   133    55    54    1
   134    34    31    1
   135    33    32    2
   136    31    32    1
   137    31    30    1
