@<TRIPOS>MOLECULE
tmp/5tq5A00.pdb
 175 166 0 0 0
SMALL
GASTEIGER

@<TRIPOS>ATOM
      1  N         11.2430   -4.8240   20.3060 N.3    13  GLN13      -0.1245
      2  CA        12.0150   -5.2950   19.1260 C.3    13  GLN13       0.1566
      3  C         11.8700   -4.3680   17.9290 C.2    13  GLN13       0.2260
      4  O         10.9000   -3.6150   17.8310 O.2    13  GLN13      -0.2867
      5  CB        11.6530   -6.7370   18.7230 C.3    13  GLN13       0.0367
      6  CG        10.1780   -7.0380   18.5180 C.3    13  GLN13       0.0905
      7  CD         9.9000   -8.5410   18.4230 C.2    13  GLN13       0.2608
      8  OE1       10.0300   -9.2630   19.4080 O.2    13  GLN13      -0.2717
      9  NE2        9.5220   -9.0150   17.2400 N.am   13  GLN13      -0.0878
     10  N         10.9830   -3.7670   14.2220 N.3    15  LEU15      -0.1245
     11  CA        10.1250   -4.3860   13.2030 C.3    15  LEU15       0.1561
     12  C         10.7070   -4.1990   11.7890 C.2    15  LEU15       0.2260
     13  O         10.6060   -5.0960   10.9490 O.2    15  LEU15      -0.2867
     14  CB         8.7000   -3.8270   13.3020 C.3    15  LEU15       0.0270
     15  CG         7.9980   -4.0000   14.6610 C.3    15  LEU15       0.0019
     16  CD1        6.7360   -3.1640   14.7330 C.3    15  LEU15       0.0001
     17  CD2        7.6840   -5.4680   14.9300 C.3    15  LEU15       0.0001
     18  N         11.1420    1.5880   12.4000 N.3    23  VAL23      -0.1245
     19  CA         9.8700    1.1880   13.0330 C.3    23  VAL23       0.1561
     20  C         10.1700    0.1360   14.1040 C.2    23  VAL23       0.2260
     21  O         10.6760   -0.9350   13.7910 O.2    23  VAL23      -0.2867
     22  CB         8.8650    0.6010   12.0040 C.3    23  VAL23       0.0252
     23  CG1        7.5660    0.1760   12.6740 C.3    23  VAL23       0.0019
     24  CG2        8.5580    1.6210   10.9130 C.3    23  VAL23       0.0019
     25  N          3.3820    0.3030   17.7000 N.3    40  ALA40      -0.1245
     26  CA         4.4230    0.4390   16.6710 C.3    40  ALA40       0.1562
     27  C          4.8650    1.9000   16.6410 C.2    40  ALA40       0.2260
     28  O          4.0130    2.8050   16.5050 O.2    40  ALA40      -0.2867
     29  CB         3.8920    0.0150   15.3160 C.3    40  ALA40       0.0290
     30  N          7.4080    4.9060   15.0570 N.3    42  LYS42      -0.1245
     31  CA         8.2850    5.3790   13.9990 C.3    42  LYS42       0.1561
     32  C          9.1140    6.5560   14.5040 C.2    42  LYS42       0.2260
     33  O          8.5790    7.4390   15.1590 O.2    42  LYS42      -0.2867
     34  CB         7.4890    5.7830   12.7580 C.3    42  LYS42       0.0271
     35  CG         8.3760    6.0860   11.5450 C.3    42  LYS42       0.0035
     36  CD         7.6260    6.7180   10.3830 C.3    42  LYS42       0.0206
     37  CE         8.6040    7.3610    9.4080 C.3    42  LYS42       0.1093
     38  NZ         7.9240    7.9120    8.2120 N.3    42  LYS42      -0.1314
     39  N          2.8730   13.6360    7.1760 N.3    58  GLU58      -0.1245
     40  CA         2.3920   12.2510    7.3450 C.3    58  GLU58       0.1567
     41  C          1.4870   12.1550    8.5830 C.2    58  GLU58       0.2260
     42  O          0.3970   11.5960    8.5290 O.2    58  GLU58      -0.2867
     43  CB         3.5690   11.2590    7.4320 C.3    58  GLU58       0.0388
     44  CG         3.1690    9.7870    7.6370 C.3    58  GLU58       0.1160
     45  CD         4.3420    8.8640    7.9500 C.2    58  GLU58       0.3649
     46  OE1        5.5100    9.3180    7.9880 O.co2  58  GLU58      -0.2457
     47  OE2        4.1080    7.6580    8.1770 O.co2  58  GLU58      -0.2457
     48  N         -2.3500   11.1210    8.8210 N.3    62  LEU62      -0.1245
     49  CA        -2.7440   10.0070    9.6950 C.3    62  LEU62       0.1561
     50  C         -3.7930   10.3950   10.7490 C.2    62  LEU62       0.2260
     51  O         -4.6840    9.6170   11.0530 O.2    62  LEU62      -0.2867
     52  CB        -1.5040    9.3580   10.3450 C.3    62  LEU62       0.0270
     53  CG        -0.6310    8.5230    9.3970 C.3    62  LEU62       0.0019
     54  CD1        0.7370    8.2420   10.0160 C.3    62  LEU62       0.0001
     55  CD2       -1.3170    7.2230    8.9640 C.3    62  LEU62       0.0001
     56  N         -4.6160    1.5240    8.6730 N.3    71  VAL71      -0.1245
     57  CA        -3.9470    1.3310    9.9800 C.3    71  VAL71       0.1561
     58  C         -4.3190    2.4830   10.9450 C.2    71  VAL71       0.2260
     59  O         -4.3370    3.6360   10.5550 O.2    71  VAL71      -0.2867
     60  CB        -2.4000    1.1880    9.8240 C.3    71  VAL71       0.0252
     61  CG1       -1.6870    1.0090   11.1590 C.3    71  VAL71       0.0019
     62  CG2       -2.0660   -0.0340    8.9880 C.3    71  VAL71       0.0019
     63  N          6.1880    8.8220   16.0330 N.3    87  LEU87      -0.1245
     64  CA         4.8270    8.5210   15.5870 C.3    87  LEU87       0.1561
     65  C          4.3730    7.2280   16.2310 C.2    87  LEU87       0.2260
     66  O          5.0310    6.1970   16.0530 O.2    87  LEU87      -0.2867
     67  CB         4.7910    8.3540   14.0670 C.3    87  LEU87       0.0270
     68  CG         3.5390    7.7910   13.4030 C.3    87  LEU87       0.0019
     69  CD1        2.4250    8.8110   13.4790 C.3    87  LEU87       0.0001
     70  CD2        3.8230    7.4050   11.9580 C.3    87  LEU87       0.0001
     71  N          1.7060    4.3370   16.2150 N.3    89  MET89      -0.1230
     72  CA         0.6850    3.6020   15.4510 C.3    89  MET89       0.1702
     73  C          0.3460    2.2600   16.0890 C.2    89  MET89       0.2592
     74  O          1.1510    1.6810   16.8460 O.2    89  MET89      -0.2718
     75  CB         1.1590    3.3380   14.0320 C.3    89  MET89       0.0401
     76  CG         1.4700    4.5920   13.2560 C.3    89  MET89       0.0596
     77  SD         0.0430    5.6320   12.9730 S.3    89  MET89      -0.1393
     78  CE        -0.8320    4.6710   11.7370 C.3    89  MET89       0.0692
     79  N         -0.8400    1.7530   15.7670 N.am   90  GLU90      -0.1966
     80  CA        -1.2830    0.4780   16.3210 C.3    90  GLU90       0.1733
     81  C         -0.3130   -0.6220   15.8970 C.2    90  GLU90       0.2616
     82  O          0.1700   -0.6450   14.7520 O.2    90  GLU90      -0.2715
     83  CB        -2.7370    0.1450   15.9220 C.3    90  GLU90       0.0429
     84  CG        -2.9590   -0.0060   14.4250 C.3    90  GLU90       0.1163
     85  CD        -4.1560   -0.8710   14.0360 C.2    90  GLU90       0.3649
     86  OE1       -4.5750   -0.7430   12.8620 O.co2  90  GLU90      -0.2457
     87  OE2       -4.6880   -1.6470   14.8690 O.co2  90  GLU90      -0.2457
     88  N          0.0230   -1.5030   16.8350 N.am   91  TYR91      -0.1960
     89  CA         0.8770   -2.6280   16.5210 C.3    91  TYR91       0.1771
     90  C          0.0130   -3.7470   15.9770 C.2    91  TYR91       0.2619
     91  O         -0.9170   -4.1840   16.6500 O.2    91  TYR91      -0.2715
     92  CB         1.6460   -3.1090   17.7480 C.3    91  TYR91       0.0574
     93  CG         2.3870   -4.4150   17.5080 C.ar   91  TYR91      -0.0198
     94  CD1        3.4300   -4.4820   16.5900 C.ar   91  TYR91      -0.0009
     95  CD2        2.0180   -5.5880   18.1790 C.ar   91  TYR91      -0.0009
     96  CE1        4.1150   -5.6750   16.3700 C.ar   91  TYR91       0.0417
     97  CE2        2.6930   -6.7840   17.9600 C.ar   91  TYR91       0.0417
     98  CZ         3.7410   -6.8200   17.0500 C.ar   91  TYR91       0.1957
     99  OH         4.4170   -7.9980   16.8250 O.3    91  TYR91      -0.2866
    100  N          0.3140   -4.1940   14.7580 N.am   92  LEU92      -0.1964
    101  CA        -0.3810   -5.3240   14.1480 C.3    92  LEU92       0.1713
    102  C          0.5480   -6.5410   14.1160 C.2    92  LEU92       0.2458
    103  O          1.4390   -6.5820   13.2870 O.2    92  LEU92      -0.2730
    104  CB        -0.8600   -4.9420   12.7470 C.3    92  LEU92       0.0310
    105  CG        -2.0010   -3.9150   12.7210 C.3    92  LEU92       0.0022
    106  CD1       -2.2670   -3.4970   11.2860 C.3    92  LEU92       0.0001
    107  CD2       -3.2910   -4.4030   13.3870 C.3    92  LEU92       0.0001
    108  N          0.3500   -7.5240   15.0290 N.am   93  PRO93      -0.2716
    109  CA         1.2780   -8.6620   15.1430 C.3    93  PRO93       0.1536
    110  C          1.4090   -9.5840   13.9140 C.2    93  PRO93       0.2599
    111  O          2.4190  -10.2560   13.8000 O.2    93  PRO93      -0.2715
    112  CB         0.7400   -9.4480   16.3520 C.3    93  PRO93       0.0310
    113  CG        -0.6870   -9.0360   16.4750 C.3    93  PRO93       0.0237
    114  CD        -0.6960   -7.5900   16.0720 C.3    93  PRO93       0.0939
    115  N          0.4090   -9.6220   13.0240 N.am   94  TYR94      -0.1960
    116  CA         0.4700  -10.4710   11.8150 C.3    94  TYR94       0.1771
    117  C          1.3330   -9.8640   10.7020 C.2    94  TYR94       0.2620
    118  O          1.6060  -10.5250    9.7050 O.2    94  TYR94      -0.2715
    119  CB        -0.9320  -10.8030   11.2930 C.3    94  TYR94       0.0574
    120  CG        -1.7370  -11.6800   12.2320 C.ar   94  TYR94      -0.0198
    121  CD1       -1.3190  -12.9890   12.5300 C.ar   94  TYR94      -0.0009
    122  CD2       -2.9250  -11.2200   12.8140 C.ar   94  TYR94      -0.0009
    123  CE1       -2.0520  -13.7980   13.3950 C.ar   94  TYR94       0.0417
    124  CE2       -3.6670  -12.0270   13.6740 C.ar   94  TYR94       0.0417
    125  CZ        -3.2300  -13.3150   13.9620 C.ar   94  TYR94       0.1957
    126  OH        -3.9590  -14.1390   14.8050 O.3    94  TYR94      -0.2866
    127  N          1.7490   -8.6110   10.8650 N.am   95  GLY95      -0.1940
    128  CA         2.7050   -7.9810    9.9560 C.3    95  GLY95       0.2014
    129  C          2.1740   -7.7110    8.5590 C.2    95  GLY95       0.2639
    130  O          0.9710   -7.6620    8.3300 O.2    95  GLY95      -0.2714
    131  N          3.0990   -7.5400    7.6230 N.am   96  SER96      -0.1949
    132  CA         2.7560   -7.1690    6.2480 C.3    96  SER96       0.1924
    133  C          2.0590   -8.3040    5.5010 C.2    96  SER96       0.2314
    134  O          2.2510   -9.4750    5.8160 O.2    96  SER96      -0.2863
    135  CB         4.0080   -6.7290    5.4580 C.3    96  SER96       0.2116
    136  OG         4.7080   -7.8580    4.9650 O.3    96  SER96      -0.2180
    137  N          4.5410  -10.6850    3.6710 N.3    99  ASP99      -0.1239
    138  CA         5.0600  -11.7930    4.5130 C.3    99  ASP99       0.1674
    139  C          3.9790  -12.7990    4.9020 C.2    99  ASP99       0.2266
    140  O          4.2030  -14.0210    4.8280 O.2    99  ASP99      -0.2867
    141  CB         5.7380  -11.2780    5.7790 C.3    99  ASP99       0.1410
    142  CG         7.0060  -10.4780    5.4900 C.2    99  ASP99       0.3668
    143  OD1        7.6850  -10.7310    4.4740 O.co2  99  ASP99      -0.2456
    144  OD2        7.3130   -9.5790    6.3020 O.co2  99  ASP99      -0.2456
    145  N         -0.8690   -4.0370    5.7610 N.3   143  LEU143     -0.1245
    146  CA        -0.7340   -4.7870    6.9970 C.3   143  LEU143      0.1561
    147  C         -1.9860   -5.6260    7.2710 C.2   143  LEU143      0.2260
    148  O         -3.0970   -5.2490    6.8430 O.2   143  LEU143     -0.2867
    149  CB        -0.4410   -3.8200    8.1460 C.3   143  LEU143      0.0270
    150  CG         0.8870   -3.0570    8.0560 C.3   143  LEU143      0.0019
    151  CD1        0.9340   -1.9440    9.0850 C.3   143  LEU143      0.0001
    152  CD2        2.0610   -3.9850    8.2960 C.3   143  LEU143      0.0001
    153  N         -1.1780    0.5410    5.0410 N.3   153  GLY153     -0.1210
    154  CA        -0.2530    1.1660    5.9590 C.3   153  GLY153      0.1956
    155  C          0.6810    2.0830    5.2110 C.2   153  GLY153      0.2612
    156  O          0.2900    2.7450    4.2490 O.2   153  GLY153     -0.2717
    157  N          1.9270    2.0900    5.6660 N.am  154  ASP154     -0.1959
    158  CA         2.9660    3.0630    5.2920 C.3   154  ASP154      0.1840
    159  C          2.5390    4.2900    4.4490 C.2   154  ASP154      0.2622
    160  O          2.6600    4.2930    3.2090 O.2   154  ASP154     -0.2715
    161  CB         4.1570    2.3280    4.6550 C.3   154  ASP154      0.1450
    162  CG         5.4810    2.9620    5.0220 C.2   154  ASP154      0.3671
    163  OD1        5.6220    4.1820    4.8750 O.co2 154  ASP154     -0.2456
    164  OD2        6.3800    2.2480    5.5000 O.co2 154  ASP154     -0.2456
    165  N          2.0690    5.3260    5.1580 N.am  155  PHE155     -0.1974
    166  CA         1.6780    6.6050    4.5640 C.3   155  PHE155      0.1639
    167  C          2.8330    7.6290    4.4900 C.2   155  PHE155      0.2290
    168  O          2.5770    8.8230    4.2770 O.2   155  PHE155     -0.2864
    169  CB         0.4790    7.1970    5.3310 C.3   155  PHE155      0.0560
    170  CG        -0.8160    6.5120    5.0360 C.ar  155  PHE155     -0.0200
    171  CD1       -1.1370    5.3020    5.6430 C.ar  155  PHE155     -0.0042
    172  CD2       -1.7090    7.0610    4.1280 C.ar  155  PHE155     -0.0042
    173  CE1       -2.3320    4.6660    5.3550 C.ar  155  PHE155     -0.0003
    174  CE2       -2.9060    6.4230    3.8330 C.ar  155  PHE155     -0.0003
    175  CZ        -3.2170    5.2260    4.4470 C.ar  155  PHE155     -0.0000
@<TRIPOS>BOND
     1   160   159    2
     2   137   138    1
     3   174   172   ar
     4   174   175   ar
     5   172   170   ar
     6   156   155    2
     7   168   167    2
     8   175   173   ar
     9   159   165   am
    10   159   158    1
    11   143   142   ar
    12   167   166    1
    13   138   139    1
    14   138   141    1
    15   166   165    1
    16   166   169    1
    17   161   162    1
    18   161   158    1
    19   140   139    2
    20   163   162   ar
    21   136   135    1
    22   162   164   ar
    23   170   169    1
    24   170   171   ar
    25   153   154    1
    26   155   157   am
    27   155   154    1
    28   158   157    1
    29   173   171   ar
    30   135   132    1
    31   142   141    1
    32   142   144   ar
    33   133   134    2
    34   133   132    1
    35   145   146    1
    36   132   131    1
    37   148   147    2
    38   146   147    1
    39   146   149    1
    40    39    40    1
    41    40    43    1
    42    40    41    1
    43    43    44    1
    44   131   129   am
    45    44    45    1
    46    45    46   ar
    47    45    47   ar
    48   150   149    1
    49   150   152    1
    50   150   151    1
    51    38    37    1
    52   130   129    2
    53    42    41    2
    54   129   128    1
    55    56    57    1
    56    48    49    1
    57    55    53    1
    58    62    60    1
    59    53    54    1
    60    53    52    1
    61    37    36    1
    62    49    52    1
    63    49    50    1
    64   118   117    2
    65    60    57    1
    66    60    61    1
    67   128   127    1
    68    57    58    1
    69    36    35    1
    70    59    58    2
    71   117   127   am
    72   117   116    1
    73    50    51    2
    74    24    22    1
    75    13    12    2
    76   106   105    1
    77   119   116    1
    78   119   120    1
    79    35    34    1
    80    78    77    1
    81    12    11    1
    82   116   115    1
    83    70    68    1
    84    22    23    1
    85    22    19    1
    86   120   121   ar
    87   120   122   ar
    88    18    19    1
    89   121   123   ar
    90   105   104    1
    91   105   107    1
    92   104   101    1
    93    34    31    1
    94   122   124   ar
    95    86    85   ar
    96    77    76    1
    97   115   110   am
    98    19    20    1
    99    11    14    1
   100    11    10    1
   101    76    75    1
   102   103   102    2
   103    14    15    1
   104   123   125   ar
   105    68    69    1
   106    68    67    1
   107   124   125   ar
   108    21    20    2
   109   111   110    2
   110   110   109    1
   111   125   126    1
   112    31    32    1
   113    31    30    1
   114    75    72    1
   115    85    84    1
   116    85    87   ar
   117    67    64    1
   118   102   101    1
   119   102   108   am
   120   101   100    1
   121    84    83    1
   122    32    33    2
   123    15    16    1
   124    15    17    1
   125    82    81    2
   126   100    90   am
   127   108   109    1
   128   108   114    1
   129   109   112    1
   130    29    26    1
   131    72    73    1
   132    72    71    1
   133    64    63    1
   134    64    65    1
   135    79    73   am
   136    79    80    1
   137    81    80    1
   138    81    88   am
   139    83    80    1
   140    90    89    1
   141    90    91    2
   142    66    65    2
   143   114   113    1
   144    73    74    2
   145   112   113    1
   146    96    94   ar
   147    96    98   ar
   148    28    27    2
   149    89    88    1
   150    89    92    1
   151    94    93   ar
   152    27    26    1
   153    26    25    1
   154    99    98    1
   155    98    97   ar
   156     9     7   am
   157    93    92    1
   158    93    95   ar
   159     4     3    2
   160     3     2    1
   161    97    95   ar
   162     7     6    1
   163     7     8    2
   164     6     5    1
   165     5     2    1
   166     2     1    1
