@<TRIPOS>MOLECULE
tmp/5tq6A00.pdb
 159 149 0 0 0
SMALL
GASTEIGER

@<TRIPOS>ATOM
      1  N        -13.0730   -0.6960   37.1480 N.3    13  LEU13      -0.1231
      2  CA       -12.0870    0.1050   36.4260 C.3    13  LEU13       0.1693
      3  C        -12.4190    0.3260   34.9540 C.2    13  LEU13       0.2593
      4  O        -11.9260    1.2580   34.3710 O.2    13  LEU13      -0.2718
      5  CB       -10.6820   -0.4950   36.5540 C.3    13  LEU13       0.0284
      6  CG        -9.9160   -0.3760   37.8810 C.3    13  LEU13       0.0019
      7  CD1       -8.4640   -0.7040   37.5720 C.3    13  LEU13       0.0001
      8  CD2      -10.0000    0.9740   38.5900 C.3    13  LEU13       0.0001
      9  N        -13.2450   -0.5240   34.3650 N.am   14  GLY14      -0.1942
     10  CA       -13.6990   -0.3490   32.9940 C.3    14  GLY14       0.2014
     11  C        -14.5500   -1.5290   32.4950 C.2    14  GLY14       0.2639
     12  O        -14.5980   -2.5990   33.1130 O.2    14  GLY14      -0.2714
     13  N        -15.2470   -1.3220   31.3920 N.am   15  LYS15      -0.1963
     14  CA       -16.0700   -2.3720   30.8200 C.3    15  LYS15       0.1728
     15  C        -15.8970   -2.3150   29.3040 C.2    15  LYS15       0.2616
     16  O        -15.9360   -1.2410   28.6850 O.2    15  LYS15      -0.2715
     17  CB       -17.5250   -2.2130   31.2670 C.3    15  LYS15       0.0311
     18  CG       -18.2870   -3.5010   31.4890 C.3    15  LYS15       0.0038
     19  CD       -19.0820   -3.4320   32.7900 C.3    15  LYS15       0.0206
     20  CE       -20.1890   -4.4690   32.8490 C.3    15  LYS15       0.1093
     21  NZ       -21.2810   -4.1220   31.9080 N.3    15  LYS15      -0.1314
     22  N        -15.6420   -3.4830   28.7350 N.am   16  GLY16      -0.1955
     23  CA       -15.2170   -3.6200   27.3470 C.3    16  GLY16       0.1869
     24  C        -15.9510   -4.7320   26.6280 C.2    16  GLY16       0.2309
     25  O        -15.3560   -5.7620   26.2120 O.2    16  GLY16      -0.2863
     26  N        -15.9950   -8.1430   28.3960 N.3    19  GLY19      -0.1225
     27  CA       -15.0790   -8.2510   29.5230 C.3    19  GLY19       0.1811
     28  C        -15.1040   -7.0260   30.4150 C.2    19  GLY19       0.2280
     29  O        -15.4180   -5.9240   29.9560 O.2    19  GLY19      -0.2866
     30  N        -12.8690   -5.0750   33.8940 N.3    21  VAL21      -0.1245
     31  CA       -11.6330   -4.9470   34.6320 C.3    21  VAL21       0.1561
     32  C        -11.9700   -4.2530   35.9590 C.2    21  VAL21       0.2260
     33  O        -12.5030   -3.1220   35.9770 O.2    21  VAL21      -0.2867
     34  CB       -10.5630   -4.1490   33.8460 C.3    21  VAL21       0.0252
     35  CG1       -9.3070   -3.9300   34.6790 C.3    21  VAL21       0.0019
     36  CG2      -10.2080   -4.8680   32.5570 C.3    21  VAL21       0.0019
     37  N         -5.5220   -5.5830   39.7690 N.3    38  ALA38      -0.1245
     38  CA        -6.4720   -5.4110   38.6640 C.3    38  ALA38       0.1562
     39  C         -6.9210   -6.7940   38.2440 C.2    38  ALA38       0.2260
     40  O         -6.1140   -7.7240   38.1580 O.2    38  ALA38      -0.2867
     41  CB        -5.8490   -4.6650   37.4810 C.3    38  ALA38       0.0290
     42  N         -9.3450   -8.9580   35.5450 N.3    40  LYS40      -0.1245
     43  CA       -10.1120   -9.0800   34.2920 C.3    40  LYS40       0.1561
     44  C        -10.9720  -10.3620   34.2810 C.2    40  LYS40       0.2260
     45  O        -10.4900  -11.4470   34.6230 O.2    40  LYS40      -0.2867
     46  CB        -9.1700   -9.0750   33.0780 C.3    40  LYS40       0.0271
     47  CG        -9.8830   -9.3110   31.7580 C.3    40  LYS40       0.0035
     48  CD        -9.2350   -8.6310   30.5630 C.3    40  LYS40       0.0206
     49  CE       -10.0190   -8.9280   29.2990 C.3    40  LYS40       0.1093
     50  NZ        -9.2630   -8.6670   28.0440 N.3    40  LYS40      -0.1314
     51  N          1.9960   -4.5970   30.7160 N.3    69  VAL69      -0.1245
     52  CA         1.4000   -4.7410   32.0480 C.3    69  VAL69       0.1561
     53  C          1.7120   -6.1610   32.5810 C.2    69  VAL69       0.2260
     54  O          1.6230   -7.1670   31.8340 O.2    69  VAL69      -0.2867
     55  CB        -0.1330   -4.4710   32.0360 C.3    69  VAL69       0.0252
     56  CG1       -0.8990   -5.6440   31.4140 C.3    69  VAL69       0.0019
     57  CG2       -0.6380   -4.1010   33.4410 C.3    69  VAL69       0.0019
     58  N         -3.7680   -9.0900   37.2830 N.3    83  MET83      -0.1230
     59  CA        -2.6680   -8.2240   36.8610 C.3    83  MET83       0.1702
     60  C         -2.4150   -7.1650   37.9260 C.2    83  MET83       0.2592
     61  O         -3.2890   -6.8440   38.7710 O.2    83  MET83      -0.2718
     62  CB        -3.0180   -7.4840   35.5620 C.3    83  MET83       0.0401
     63  CG        -3.5000   -8.3620   34.4330 C.3    83  MET83       0.0596
     64  SD        -4.1600   -7.4530   33.0330 S.3    83  MET83      -0.1393
     65  CE        -5.8630   -7.2490   33.5890 C.3    83  MET83       0.0692
     66  N         -1.2310   -6.5950   37.8610 N.am   84  GLU84      -0.1966
     67  CA        -0.9160   -5.4570   38.6960 C.3    84  GLU84       0.1733
     68  C         -1.8800   -4.3110   38.4640 C.2    84  GLU84       0.2616
     69  O         -2.3520   -4.1050   37.3360 O.2    84  GLU84      -0.2715
     70  CB         0.4920   -4.9800   38.4350 C.3    84  GLU84       0.0429
     71  CG         0.7050   -4.3760   37.0720 C.3    84  GLU84       0.1163
     72  CD         2.1110   -3.8690   36.8980 C.2    84  GLU84       0.3649
     73  OE1        2.5580   -3.7760   35.7510 O.co2  84  GLU84      -0.2457
     74  OE2        2.7650   -3.5750   37.9140 O.co2  84  GLU84      -0.2457
     75  N         -2.1190   -3.5460   39.5290 N.am   85  TYR85      -0.1960
     76  CA        -2.9580   -2.3710   39.4830 C.3    85  TYR85       0.1771
     77  C         -2.1300   -1.1020   39.3010 C.2    85  TYR85       0.2619
     78  O         -1.1970   -0.8730   40.0500 O.2    85  TYR85      -0.2715
     79  CB        -3.7730   -2.2580   40.7780 C.3    85  TYR85       0.0574
     80  CG        -4.5630   -0.9800   40.7940 C.ar   85  TYR85      -0.0198
     81  CD1       -5.5280   -0.7470   39.8220 C.ar   85  TYR85      -0.0009
     82  CD2       -4.3370    0.0090   41.7590 C.ar   85  TYR85      -0.0009
     83  CE1       -6.2240    0.4570   39.7860 C.ar   85  TYR85       0.0417
     84  CE2       -5.0600    1.2080   41.7460 C.ar   85  TYR85       0.0417
     85  CZ        -5.9980    1.4110   40.7560 C.ar   85  TYR85       0.1957
     86  OH        -6.7380    2.5330   40.7040 O.3    85  TYR85      -0.2866
     87  N         -2.4780   -0.3060   38.2870 N.am   86  LEU86      -0.1977
     88  CA        -1.7830    0.9480   37.9890 C.3    86  LEU86       0.1596
     89  C         -2.7290    2.1460   38.1700 C.2    86  LEU86       0.2287
     90  O         -3.5620    2.3820   37.3150 O.2    86  LEU86      -0.2864
     91  CB        -1.1830    0.9210   36.5740 C.3    86  LEU86       0.0297
     92  CG         0.0920    0.1010   36.3820 C.3    86  LEU86       0.0022
     93  CD1        0.4080   -0.0410   34.8990 C.3    86  LEU86       0.0001
     94  CD2        1.2430    0.7760   37.1040 C.3    86  LEU86       0.0001
     95  N         -4.3760    4.8190   35.6730 N.3    89  GLY89      -0.1210
     96  CA        -5.3230    4.4200   34.6660 C.3    89  GLY89       0.1956
     97  C         -4.8190    4.4430   33.2380 C.2    89  GLY89       0.2612
     98  O         -3.5860    4.4400   32.9790 O.2    89  GLY89      -0.2717
     99  N         -5.7750    4.4610   32.3210 N.am   90  SER90      -0.1952
    100  CA        -5.5080    4.3940   30.9170 C.3    90  SER90       0.1924
    101  C         -4.8870    5.7190   30.4810 C.2    90  SER90       0.2314
    102  O         -5.1630    6.7650   31.0790 O.2    90  SER90      -0.2863
    103  CB        -6.7910    4.0790   30.1140 C.3    90  SER90       0.2116
    104  OG        -7.6980    5.1550   30.0850 O.3    90  SER90      -0.2180
    105  N         -7.6060    8.5050   29.4790 N.3    93  ASP93      -0.1239
    106  CA        -8.1590    9.2890   30.5790 C.3    93  ASP93       0.1674
    107  C         -7.0760   10.1940   31.1460 C.2    93  ASP93       0.2266
    108  O         -7.2700   11.3650   31.3070 O.2    93  ASP93      -0.2867
    109  CB        -8.6910    8.3590   31.6740 C.3    93  ASP93       0.1410
    110  CG        -9.8950    7.5320   31.2400 C.2    93  ASP93       0.3668
    111  OD1      -10.6840    7.9370   30.3650 O.co2  93  ASP93      -0.2456
    112  OD2      -10.0560    6.4490   31.8210 O.co2  93  ASP93      -0.2456
    113  N         -7.0250    3.8850   24.7840 N.3   134  ARG134     -0.1231
    114  CA        -7.8900    3.2600   25.8110 C.3   134  ARG134      0.1694
    115  C         -7.2930    1.9650   26.3640 C.2   134  ARG134      0.2592
    116  O         -7.6970    1.5100   27.4120 O.2   134  ARG134     -0.2718
    117  CB        -9.3430    3.0280   25.3160 C.3   134  ARG134      0.0321
    118  CG        -9.4490    2.1000   24.1140 C.3   134  ARG134      0.0489
    119  CD       -10.9000    1.7600   23.7500 C.3   134  ARG134      0.2205
    120  NE       -10.9150    0.5380   22.9480 N.pl3 134  ARG134     -0.0865
    121  CZ       -10.5200    0.4510   21.6750 C.cat 134  ARG134      0.5346
    122  NH1      -10.1070    1.5170   21.0100 N.pl3 134  ARG134      0.1354
    123  NH2      -10.5500   -0.7100   21.0550 N.pl3 134  ARG134      0.1354
    124  N         -6.3030    1.4080   25.6600 N.am  135  ASN135     -0.1960
    125  CA        -5.6660    0.1740   26.0550 C.3   135  ASN135      0.1819
    126  C         -4.2280    0.3140   26.5300 C.2   135  ASN135      0.2621
    127  O         -3.6330   -0.6610   26.8800 O.2   135  ASN135     -0.2715
    128  CB        -5.7690   -0.8490   24.9340 C.3   135  ASN135      0.1195
    129  CG        -7.1890   -1.2550   24.6750 C.2   135  ASN135      0.2630
    130  OD1       -7.8990   -1.6170   25.6030 O.2   135  ASN135     -0.2716
    131  ND2       -7.6290   -1.1490   23.4220 N.am  135  ASN135     -0.0877
    132  N         -3.7020    1.5280   26.5590 N.am  136  ILE136     -0.1963
    133  CA        -2.3920    1.8190   27.1220 C.3   136  ILE136      0.1727
    134  C         -2.6420    2.2980   28.5640 C.2   136  ILE136      0.2616
    135  O         -3.6490    2.9670   28.8340 O.2   136  ILE136     -0.2715
    136  CB        -1.6370    2.9320   26.3420 C.3   136  ILE136      0.0290
    137  CG1       -1.6860    2.7400   24.8130 C.3   136  ILE136      0.0022
    138  CG2       -0.2210    3.1300   26.8670 C.3   136  ILE136      0.0023
    139  CD1       -1.1830    1.4480   24.2650 C.3   136  ILE136      0.0001
    140  N         -1.7490    1.9230   29.4650 N.am  137  LEU137     -0.1977
    141  CA        -1.8330    2.2650   30.8920 C.3   137  LEU137      0.1596
    142  C         -0.7260    3.2100   31.2660 C.2   137  LEU137      0.2287
    143  O          0.3440    3.2180   30.6320 O.2   137  LEU137     -0.2864
    144  CB        -1.6510    1.0250   31.7320 C.3   137  LEU137      0.0297
    145  CG        -2.8810    0.2870   32.1790 C.3   137  LEU137      0.0022
    146  CD1       -2.5510   -1.1610   32.5100 C.3   137  LEU137      0.0001
    147  CD2       -3.5110    0.9960   33.3490 C.3   137  LEU137      0.0001
    148  N         -1.7470   -2.3170   28.1740 N.3   147  GLY147     -0.1210
    149  CA        -2.4770   -2.9000   29.3390 C.3   147  GLY147      0.1956
    150  C         -3.6330   -3.8440   29.1000 C.2   147  GLY147      0.2611
    151  O         -4.2730   -4.2350   30.0570 O.2   147  GLY147     -0.2717
    152  N         -3.9180   -4.1970   27.8450 N.am  148  ASP148     -0.1973
    153  CA        -4.9230   -5.2170   27.5070 C.3   148  ASP148      0.1709
    154  C         -4.5430   -5.9280   26.1960 C.2   148  ASP148      0.2293
    155  O         -4.0740   -5.2830   25.2430 O.2   148  ASP148     -0.2864
    156  CB        -6.3020   -4.5870   27.3260 C.3   148  ASP148      0.1436
    157  CG        -7.3990   -5.6160   27.1450 C.2   148  ASP148      0.3671
    158  OD1       -7.7620   -6.2660   28.1560 O.co2 148  ASP148     -0.2456
    159  OD2       -7.9080   -5.7730   26.0060 O.co2 148  ASP148     -0.2456
@<TRIPOS>BOND
     1   122   121    1
     2   123   121    1
     3   121   120    2
     4   120   119    1
     5   131   129   am
     6   119   118    1
     7   118   117    1
     8   139   137    1
     9   129   128    1
    10   129   130    2
    11   113   114    1
    12   137   136    1
    13   128   125    1
    14   155   154    2
    15   117   114    1
    16   124   125    1
    17   124   115   am
    18   114   115    1
    19   159   157   ar
    20   125   126    1
    21   154   153    1
    22    25    24    2
    23   136   138    1
    24   136   133    1
    25   115   116    2
    26   126   132   am
    27   126   127    2
    28   132   133    1
    29    24    23    1
    30   133   134    1
    31   157   156    1
    32   157   158   ar
    33   156   153    1
    34    23    22    1
    35   153   152    1
    36   152   150   am
    37    50    49    1
    38   148   149    1
    39    26    27    1
    40   134   135    2
    41   134   140   am
    42    16    15    2
    43    22    15   am
    44   150   149    1
    45   150   151    2
    46    49    48    1
    47    15    14    1
    48   140   141    1
    49   105   106    1
    50    27    28    1
    51    29    28    2
    52   104   103    1
    53   103   100    1
    54   111   110   ar
    55   101   100    1
    56   101   102    2
    57    48    47    1
    58   106   107    1
    59   106   109    1
    60   143   142    2
    61    51    52    1
    62    14    17    1
    63    14    13    1
    64   141   142    1
    65   141   144    1
    66   100    99    1
    67   107   108    2
    68   110   109    1
    69   110   112   ar
    70    17    18    1
    71    13    11   am
    72    56    55    1
    73    18    19    1
    74   144   145    1
    75    47    46    1
    76    54    53    2
    77    21    20    1
    78    55    52    1
    79    55    57    1
    80    52    53    1
    81   145   146    1
    82   145   147    1
    83    99    97   am
    84    11    10    1
    85    11    12    2
    86    36    34    1
    87    19    20    1
    88    98    97    2
    89    10     9    1
    90    64    65    1
    91    64    63    1
    92    46    43    1
    93    97    96    1
    94    34    31    1
    95    34    35    1
    96    30    31    1
    97    44    43    1
    98    44    45    2
    99    43    42    1
   100     9     3   am
   101     4     3    2
   102    63    62    1
   103    31    32    1
   104    96    95    1
   105    93    92    1
   106     3     2    1
   107    62    59    1
   108    73    72   ar
   109    32    33    2
   110    92    91    1
   111    92    94    1
   112     2     5    1
   113     2     1    1
   114     5     6    1
   115    91    88    1
   116    59    58    1
   117    59    60    1
   118    72    71    1
   119    72    74   ar
   120    71    70    1
   121    90    89    2
   122    69    68    2
   123    41    38    1
   124     7     6    1
   125    66    60   am
   126    66    67    1
   127     6     8    1
   128    60    61    2
   129    88    89    1
   130    88    87    1
   131    40    39    2
   132    39    38    1
   133    87    77   am
   134    70    67    1
   135    68    67    1
   136    68    75   am
   137    38    37    1
   138    77    76    1
   139    77    78    2
   140    76    75    1
   141    76    79    1
   142    83    81   ar
   143    83    85   ar
   144    81    80   ar
   145    86    85    1
   146    85    84   ar
   147    79    80    1
   148    80    82   ar
   149    84    82   ar
