@<TRIPOS>MOLECULE
tmp/5tq7B00.pdb
 193 187 0 0 0
SMALL
GASTEIGER

@<TRIPOS>ATOM
      1  N         11.3210   44.7310   55.6460 N.3    13  LEU13      -0.1231
      2  CA        10.3660   43.9430   54.8740 C.3    13  LEU13       0.1693
      3  C         10.7550   43.8490   53.4140 C.2    13  LEU13       0.2593
      4  O         10.3230   42.9510   52.6820 O.2    13  LEU13      -0.2718
      5  CB         8.9640   44.5080   55.0370 C.3    13  LEU13       0.0284
      6  CG         8.4400   44.6050   56.4730 C.3    13  LEU13       0.0019
      7  CD1        7.0440   45.1830   56.4350 C.3    13  LEU13       0.0001
      8  CD2        8.4480   43.2240   57.1040 C.3    13  LEU13       0.0001
      9  N         11.5900   44.7760   52.9860 N.am   14  GLY14      -0.1942
     10  CA        12.1850   44.6680   51.6810 C.3    14  GLY14       0.2014
     11  C         13.2150   45.7420   51.5640 C.2    14  GLY14       0.2639
     12  O         13.1530   46.7630   52.2540 O.2    14  GLY14      -0.2714
     13  N         14.1890   45.4950   50.7100 N.am   15  LYS15      -0.1963
     14  CA        15.1650   46.5080   50.4090 C.3    15  LYS15       0.1728
     15  C         15.3410   46.5340   48.9180 C.2    15  LYS15       0.2617
     16  O         15.2760   45.4930   48.2650 O.2    15  LYS15      -0.2715
     17  CB        16.4860   46.1800   51.0930 C.3    15  LYS15       0.0311
     18  CG        17.4620   47.3420   51.1730 C.3    15  LYS15       0.0038
     19  CD        18.7640   46.9010   51.8560 C.3    15  LYS15       0.0206
     20  CE        19.2210   47.8740   52.9660 C.3    15  LYS15       0.1093
     21  NZ        20.1090   47.2550   53.9980 N.3    15  LYS15      -0.1314
     22  N         15.5610   47.7290   48.3930 N.am   16  GLY16      -0.1940
     23  CA        15.9300   47.9030   47.0070 C.3    16  GLY16       0.2014
     24  C         17.0850   48.8600   46.7800 C.2    16  GLY16       0.2639
     25  O         17.7890   49.3150   47.6960 O.2    16  GLY16      -0.2714
     26  N         17.2450   49.1570   45.5080 N.am   17  ASN17      -0.1958
     27  CA        18.2660   50.0390   45.0260 C.3    17  ASN17       0.1819
     28  C         18.1880   51.4940   45.4900 C.2    17  ASN17       0.2621
     29  O         19.2170   52.1050   45.7000 O.2    17  ASN17      -0.2715
     30  CB        18.2570   49.9910   43.4980 C.3    17  ASN17       0.1195
     31  CG        19.3690   49.1390   42.9360 C.2    17  ASN17       0.2630
     32  OD1       20.3640   48.8560   43.6040 O.2    17  ASN17      -0.2716
     33  ND2       19.2160   48.7430   41.6910 N.am   17  ASN17      -0.0877
     34  N         16.9930   52.0670   45.6230 N.am   18  PHE18      -0.1960
     35  CA        16.8950   53.4620   46.0760 C.3    18  PHE18       0.1774
     36  C         15.9210   53.6330   47.2480 C.2    18  PHE18       0.2659
     37  O         15.2840   54.6730   47.3660 O.2    18  PHE18      -0.2711
     38  CB        16.4730   54.4100   44.9300 C.3    18  PHE18       0.0574
     39  CG        17.1120   54.1160   43.5820 C.ar   18  PHE18      -0.0200
     40  CD1       18.4780   54.3190   43.3720 C.ar   18  PHE18      -0.0042
     41  CD2       16.3240   53.7090   42.5010 C.ar   18  PHE18      -0.0042
     42  CE1       19.0530   54.0760   42.1310 C.ar   18  PHE18      -0.0003
     43  CE2       16.8930   53.4790   41.2550 C.ar   18  PHE18      -0.0003
     44  CZ        18.2600   53.6600   41.0710 C.ar   18  PHE18      -0.0000
     45  N         15.7980   52.6250   48.1060 N.am   19  GLY19      -0.1716
     46  CA        14.8470   52.7040   49.2150 C.2    19  GLY19       0.1480
     47  C         14.5390   51.3880   49.9150 C.2    19  GLY19       0.2821
     48  O         15.1130   50.3640   49.6030 O.2    19  GLY19      -0.2669
     49  N         13.6040   51.4300   50.8630 N.am   20  SER20      -0.1901
     50  CA        13.1890   50.2350   51.6140 C.3    20  SER20       0.2058
     51  C         11.7970   50.3560   52.2470 C.2    20  SER20       0.2643
     52  O         11.2190   51.4520   52.3300 O.2    20  SER20      -0.2714
     53  CB        14.2190   49.8790   52.6820 C.3    20  SER20       0.2130
     54  OG        14.3850   50.9300   53.6090 O.3    20  SER20      -0.2179
     55  N         11.2770   49.1880   52.6270 N.am   21  VAL21      -0.1977
     56  CA        10.0310   49.0080   53.3290 C.3    21  VAL21       0.1596
     57  C         10.3660   48.2190   54.6010 C.2    21  VAL21       0.2287
     58  O         11.0870   47.1930   54.5670 O.2    21  VAL21      -0.2864
     59  CB         8.9620   48.2650   52.4860 C.3    21  VAL21       0.0276
     60  CG1        7.6050   48.2620   53.1770 C.3    21  VAL21       0.0022
     61  CG2        8.7910   48.9500   51.1450 C.3    21  VAL21       0.0022
     62  N          3.6860   49.6970   58.4940 N.3    36  ALA36      -0.1245
     63  CA         4.6770   49.4740   57.4280 C.3    36  ALA36       0.1562
     64  C          5.0900   50.8160   56.8340 C.2    36  ALA36       0.2260
     65  O          4.2540   51.6020   56.4020 O.2    36  ALA36      -0.2867
     66  CB         4.1320   48.5360   56.3590 C.3    36  ALA36       0.0290
     67  N          7.5880   53.0040   54.2980 N.3    38  LYS38      -0.1231
     68  CA         8.4280   53.0610   53.0820 C.3    38  LYS38       0.1693
     69  C          9.2600   54.3480   53.0270 C.2    38  LYS38       0.2592
     70  O          8.7150   55.4320   53.1550 O.2    38  LYS38      -0.2718
     71  CB         7.5520   52.9390   51.8280 C.3    38  LYS38       0.0285
     72  CG         8.2730   52.7970   50.4950 C.3    38  LYS38       0.0035
     73  CD         7.3100   52.4330   49.3510 C.3    38  LYS38       0.0206
     74  CE         8.0250   52.5610   47.9900 C.3    38  LYS38       0.1093
     75  NZ         7.1360   52.3190   46.8040 N.3    38  LYS38      -0.1314
     76  N         10.5740   54.2120   52.8500 N.am   39  LYS39      -0.1966
     77  CA        11.4980   55.3520   52.7570 C.3    39  LYS39       0.1728
     78  C         12.4670   55.2390   51.5880 C.2    39  LYS39       0.2616
     79  O         12.6550   54.1610   51.0140 O.2    39  LYS39      -0.2715
     80  CB        12.2780   55.5300   54.0560 C.3    39  LYS39       0.0311
     81  CG        13.1210   54.3390   54.4730 C.3    39  LYS39       0.0038
     82  CD        14.0740   54.7190   55.5950 C.3    39  LYS39       0.0206
     83  CE        14.9680   53.5580   56.0160 C.3    39  LYS39       0.1093
     84  NZ        16.4250   53.9000   55.8600 N.3    39  LYS39      -0.1314
     85  N         13.0490   56.3800   51.2320 N.am   40  LEU40      -0.1977
     86  CA        14.0270   56.5160   50.1620 C.3    40  LEU40       0.1596
     87  C         15.3900   56.4960   50.7920 C.2    40  LEU40       0.2287
     88  O         15.5560   56.9330   51.9070 O.2    40  LEU40      -0.2864
     89  CB        13.8570   57.8370   49.4000 C.3    40  LEU40       0.0297
     90  CG        12.4980   58.1150   48.7710 C.3    40  LEU40       0.0022
     91  CD1       12.6310   59.3580   47.9120 C.3    40  LEU40       0.0001
     92  CD2       11.9760   56.9220   47.9570 C.3    40  LEU40       0.0001
     93  N         -3.9050   48.4800   49.4180 N.3    63  VAL63      -0.1245
     94  CA        -3.3050   48.6620   50.7700 C.3    63  VAL63       0.1561
     95  C         -3.6080   50.0640   51.3100 C.2    63  VAL63       0.2260
     96  O         -3.5580   51.0260   50.5570 O.2    63  VAL63      -0.2867
     97  CB        -1.7940   48.3190   50.7850 C.3    63  VAL63       0.0252
     98  CG1       -0.9250   49.3000   49.9950 C.3    63  VAL63       0.0019
     99  CG2       -1.3220   48.1910   52.2220 C.3    63  VAL63       0.0019
    100  N          2.0110   52.9950   55.9820 N.3    77  MET77      -0.1230
    101  CA         0.9160   52.1650   55.5060 C.3    77  MET77       0.1702
    102  C          0.5200   51.1540   56.5700 C.2    77  MET77       0.2592
    103  O          1.2660   50.9240   57.5410 O.2    77  MET77      -0.2718
    104  CB         1.3890   51.3750   54.2870 C.3    77  MET77       0.0401
    105  CG         1.4800   52.1750   52.9890 C.3    77  MET77       0.0596
    106  SD         2.5110   51.3630   51.7150 S.3    77  MET77      -0.1393
    107  CE         4.1010   51.2720   52.5420 C.3    77  MET77       0.0692
    108  N         -0.6170   50.5030   56.3570 N.am   78  GLU78      -0.1966
    109  CA        -1.0140   49.3980   57.2070 C.3    78  GLU78       0.1733
    110  C         -0.0410   48.2860   56.9720 C.2    78  GLU78       0.2616
    111  O          0.3990   48.1030   55.8500 O.2    78  GLU78      -0.2715
    112  CB        -2.4480   48.9320   56.9220 C.3    78  GLU78       0.0429
    113  CG        -2.6650   48.4030   55.5130 C.3    78  GLU78       0.1163
    114  CD        -4.0680   47.8660   55.2660 C.2    78  GLU78       0.3649
    115  OE1       -4.4520   47.7490   54.0950 O.co2  78  GLU78      -0.2457
    116  OE2       -4.7950   47.5540   56.2120 O.co2  78  GLU78      -0.2457
    117  N          0.2980   47.5780   58.0440 N.am   79  TYR79      -0.1960
    118  CA         1.1570   46.3930   57.9800 C.3    79  TYR79       0.1771
    119  C          0.3550   45.0780   57.9030 C.2    79  TYR79       0.2619
    120  O         -0.4090   44.7680   58.8130 O.2    79  TYR79      -0.2715
    121  CB         2.0930   46.3480   59.2040 C.3    79  TYR79       0.0574
    122  CG         2.8230   45.0270   59.3440 C.ar   79  TYR79      -0.0198
    123  CD1        3.7890   44.6570   58.4150 C.ar   79  TYR79      -0.0009
    124  CD2        2.5000   44.1310   60.3520 C.ar   79  TYR79      -0.0009
    125  CE1        4.4200   43.4540   58.5010 C.ar   79  TYR79       0.0417
    126  CE2        3.1240   42.9110   60.4430 C.ar   79  TYR79       0.0417
    127  CZ         4.0950   42.5930   59.5150 C.ar   79  TYR79       0.1957
    128  OH         4.7510   41.4260   59.5950 O.3    79  TYR79      -0.2866
    129  N          0.5610   44.2940   56.8420 N.am   80  LEU80      -0.1977
    130  CA        -0.1870   43.0500   56.6600 C.3    80  LEU80       0.1596
    131  C          0.7410   41.8940   56.9220 C.2    80  LEU80       0.2287
    132  O          1.5910   41.5750   56.0800 O.2    80  LEU80      -0.2864
    133  CB        -0.7760   42.9420   55.2740 C.3    80  LEU80       0.0297
    134  CG        -1.6100   44.1360   54.8940 C.3    80  LEU80       0.0022
    135  CD1       -2.2590   43.9020   53.5410 C.3    80  LEU80       0.0001
    136  CD2       -2.6300   44.4000   55.9900 C.3    80  LEU80       0.0001
    137  N          1.9750   38.8760   54.6920 N.3    83  GLY83      -0.1210
    138  CA         3.0880   39.1310   53.7730 C.3    83  GLY83       0.1956
    139  C          2.6470   39.1460   52.3230 C.2    83  GLY83       0.2612
    140  O          1.4670   39.2870   52.0350 O.2    83  GLY83      -0.2717
    141  N          3.6080   39.0530   51.4090 N.am   84  SER84      -0.1952
    142  CA         3.3170   39.1250   49.9830 C.3    84  SER84       0.1924
    143  C          2.7330   37.8180   49.4850 C.2    84  SER84       0.2314
    144  O          3.0100   36.7540   50.0360 O.2    84  SER84      -0.2863
    145  CB         4.5790   39.4120   49.1940 C.3    84  SER84       0.2116
    146  OG         5.1960   38.1970   48.8420 O.3    84  SER84      -0.2180
    147  N          4.9230   39.7640   43.6050 N.3   128  ARG128     -0.1231
    148  CA         5.7670   40.3810   44.6940 C.3   128  ARG128      0.1694
    149  C          5.1450   41.6420   45.3340 C.2   128  ARG128      0.2592
    150  O          5.4390   41.9600   46.4940 O.2   128  ARG128     -0.2718
    151  CB         7.2190   40.7000   44.2330 C.3   128  ARG128      0.0321
    152  CG         7.2650   41.6700   43.0870 C.3   128  ARG128      0.0489
    153  CD         8.6610   42.0130   42.5920 C.3   128  ARG128      0.2205
    154  NE         8.5170   42.4960   41.2060 N.pl3 128  ARG128     -0.0865
    155  CZ         8.6020   43.7510   40.7560 C.cat 128  ARG128      0.5346
    156  NH1        8.9170   44.7820   41.5420 N.pl3 128  ARG128      0.1354
    157  NH2        8.4230   43.9710   39.4630 N.pl3 128  ARG128      0.1354
    158  N          4.2620   42.3210   44.5940 N.am  129  ASN129     -0.1960
    159  CA         3.6110   43.5620   45.0440 C.3   129  ASN129      0.1819
    160  C          2.1240   43.4180   45.4600 C.2   129  ASN129      0.2621
    161  O          1.3840   44.4030   45.5780 O.2   129  ASN129     -0.2715
    162  CB         3.7320   44.5790   43.9320 C.3   129  ASN129      0.1195
    163  CG         5.1340   45.0440   43.7430 C.2   129  ASN129      0.2630
    164  OD1        5.8700   45.2680   44.7130 O.2   129  ASN129     -0.2716
    165  ND2        5.5280   45.1870   42.5100 N.am  129  ASN129     -0.0877
    166  N          1.7160   42.1760   45.6810 N.am  130  ILE130     -0.1963
    167  CA         0.3900   41.8240   46.1310 C.3   130  ILE130      0.1727
    168  C          0.5550   41.3820   47.5710 C.2   130  ILE130      0.2616
    169  O          1.4700   40.6010   47.8790 O.2   130  ILE130     -0.2715
    170  CB        -0.1770   40.6580   45.2840 C.3   130  ILE130      0.0290
    171  CG1       -0.2780   41.0690   43.8150 C.3   130  ILE130      0.0022
    172  CG2       -1.5270   40.1970   45.8050 C.3   130  ILE130      0.0023
    173  CD1       -1.2750   42.1360   43.5400 C.3   130  ILE130      0.0001
    174  N         -0.2700   41.9220   48.4600 N.am  131  LEU131     -0.1977
    175  CA        -0.2830   41.5220   49.8790 C.3   131  LEU131      0.1596
    176  C         -1.4690   40.6540   50.2080 C.2   131  LEU131      0.2287
    177  O         -2.5180   40.7880   49.5510 O.2   131  LEU131     -0.2864
    178  CB        -0.3690   42.7420   50.7700 C.3   131  LEU131      0.0297
    179  CG         0.9230   43.5360   50.8360 C.3   131  LEU131      0.0022
    180  CD1        0.6750   44.8690   51.5190 C.3   131  LEU131      0.0001
    181  CD2        1.9890   42.7260   51.5510 C.3   131  LEU131      0.0001
    182  N         -0.2830   46.1070   47.0930 N.3   141  GLY141     -0.1210
    183  CA         0.4950   46.6570   48.1890 C.3   141  GLY141      0.1956
    184  C          1.6930   47.5330   47.8520 C.2   141  GLY141      0.2611
    185  O          2.4390   47.9140   48.7650 O.2   141  GLY141     -0.2717
    186  N          1.9160   47.8480   46.5730 N.am  142  ASP142     -0.1973
    187  CA         2.9790   48.8150   46.1940 C.3   142  ASP142      0.1709
    188  C          2.5600   49.6280   44.9810 C.2   142  ASP142      0.2293
    189  O          1.9300   49.0750   44.0830 O.2   142  ASP142     -0.2864
    190  CB         4.3040   48.1650   45.8520 C.3   142  ASP142      0.1436
    191  CG         5.4300   49.1850   45.7810 C.2   142  ASP142      0.3671
    192  OD1        5.7810   49.6990   46.8630 O.co2 142  ASP142     -0.2456
    193  OD2        5.9210   49.5380   44.6790 O.co2 142  ASP142     -0.2456
@<TRIPOS>BOND
     1   157   155    1
     2   155   154    2
     3   155   156    1
     4    44    43   ar
     5    44    42   ar
     6   154   153    1
     7    43    41   ar
     8    33    31   am
     9    42    40   ar
    10    41    39   ar
    11   165   163   am
    12   153   152    1
    13    31    30    1
    14    31    32    2
    15   152   151    1
    16    40    39   ar
    17    30    27    1
    18   173   171    1
    19    39    38    1
    20   147   148    1
    21   163   162    1
    22   163   164    2
    23   171   170    1
    24   162   159    1
    25   189   188    2
    26   151   148    1
    27   158   159    1
    28   158   149   am
    29   193   191   ar
    30   148   149    1
    31    38    35    1
    32   188   187    1
    33    27    28    1
    34    27    26    1
    35   159   160    1
    36   170   172    1
    37   170   167    1
    38   149   150    2
    39   160   161    2
    40   160   166   am
    41    28    34   am
    42    28    29    2
    43    26    24   am
    44    34    35    1
    45   166   167    1
    46   191   190    1
    47   191   192   ar
    48   190   187    1
    49    35    36    1
    50   167   168    1
    51   187   186    1
    52   186   184   am
    53    24    23    1
    54    24    25    2
    55    75    74    1
    56    23    22    1
    57   182   183    1
    58    36    37    2
    59    36    45    1
    60   168   169    2
    61   168   174   am
    62   184   183    1
    63   184   185    2
    64    91    90    1
    65    92    90    1
    66    74    73    1
    67    45    46    2
    68    16    15    2
    69    22    15   am
    70   174   175    1
    71    90    89    1
    72   146   145    1
    73    15    14    1
    74   145   142    1
    75    46    47    1
    76    73    72    1
    77    89    86    1
    78    93    94    1
    79   143   142    1
    80   143   144    2
    81   177   176    2
    82    48    47    2
    83   175   176    1
    84   175   178    1
    85    47    49   am
    86   142   141    1
    87    98    97    1
    88    86    87    1
    89    86    85    1
    90    14    13    1
    91    14    17    1
    92    72    71    1
    93    96    95    2
    94    13    11   am
    95   178   179    1
    96    94    97    1
    97    94    95    1
    98    97    99    1
    99    87    88    2
   100   179   180    1
   101   179   181    1
   102    49    50    1
   103    79    78    2
   104    17    18    1
   105    61    59    1
   106    18    19    1
   107    85    78   am
   108   141   139   am
   109    11    10    1
   110    11    12    2
   111    78    77    1
   112    50    51    1
   113    50    53    1
   114    10     9    1
   115   106   107    1
   116   106   105    1
   117    71    68    1
   118    19    20    1
   119   140   139    2
   120    51    52    2
   121    51    55   am
   122   139   138    1
   123    59    60    1
   124    59    56    1
   125    55    56    1
   126     4     3    2
   127    53    54    1
   128    77    76    1
   129    77    80    1
   130    76    69   am
   131    20    21    1
   132     9     3   am
   133   105   104    1
   134    69    68    1
   135    69    70    2
   136    68    67    1
   137    56    57    1
   138     3     2    1
   139   135   134    1
   140   138   137    1
   141    80    81    1
   142   115   114   ar
   143   104   101    1
   144    81    82    1
   145    58    57    2
   146     2     5    1
   147     2     1    1
   148   134   133    1
   149   134   136    1
   150     5     6    1
   151   114   113    1
   152   114   116   ar
   153   133   130    1
   154   101   100    1
   155   101   102    1
   156   113   112    1
   157    82    83    1
   158   111   110    2
   159    84    83    1
   160   132   131    2
   161   108   102   am
   162   108   109    1
   163    66    63    1
   164    65    64    2
   165     7     6    1
   166     6     8    1
   167   102   103    2
   168   130   129    1
   169   130   131    1
   170    64    63    1
   171   129   119   am
   172   112   109    1
   173   110   109    1
   174   110   117   am
   175    63    62    1
   176   119   118    1
   177   119   120    2
   178   118   117    1
   179   118   121    1
   180   123   125   ar
   181   123   122   ar
   182   125   127   ar
   183   121   122    1
   184   122   124   ar
   185   127   128    1
   186   127   126   ar
   187   124   126   ar
