@<TRIPOS>MOLECULE
tmp/5tq8A00.pdb
 197 189 0 0 0
SMALL
GASTEIGER

@<TRIPOS>ATOM
      1  N         11.4610   -4.6730   20.3110 N.3    13  GLN13      -0.1231
      2  CA        12.2090   -5.2110   19.1770 C.3    13  GLN13       0.1698
      3  C         12.1240   -4.3250   17.9590 C.2    13  GLN13       0.2592
      4  O         11.2580   -3.4510   17.8860 O.2    13  GLN13      -0.2718
      5  CB        11.7840   -6.6470   18.8150 C.3    13  GLN13       0.0381
      6  CG        10.4040   -6.8010   18.2490 C.3    13  GLN13       0.0905
      7  CD        10.3890   -8.0460   17.4020 C.2    13  GLN13       0.2608
      8  OE1       10.2850   -9.1660   17.9110 O.2    13  GLN13      -0.2717
      9  NE2       10.5930   -7.8800   16.0990 N.am   13  GLN13      -0.0878
     10  N         13.0670   -4.5190   17.0290 N.am   14  GLN14      -0.1966
     11  CA        13.0750   -3.7910   15.7630 C.3    14  GLN14       0.1733
     12  C         11.9910   -4.3840   14.8520 C.2    14  GLN14       0.2616
     13  O         11.7820   -5.5930   14.8490 O.2    14  GLN14      -0.2715
     14  CB        14.4580   -3.8990   15.0840 C.3    14  GLN14       0.0408
     15  CG        14.6690   -2.8650   13.9660 C.3    14  GLN14       0.0908
     16  CD        15.4410   -1.6260   14.3740 C.2    14  GLN14       0.2608
     17  OE1       16.1750   -1.0460   13.5660 O.2    14  GLN14      -0.2717
     18  NE2       15.2930   -1.1710   15.6180 N.am   14  GLN14      -0.0878
     19  N         11.3060   -3.5320   14.0800 N.am   15  LEU15      -0.1963
     20  CA        10.2590   -3.9750   13.1440 C.3    15  LEU15       0.1728
     21  C         10.5530   -3.6030   11.6760 C.2    15  LEU15       0.2617
     22  O          9.8710   -4.0660   10.7740 O.2    15  LEU15      -0.2715
     23  CB         8.9010   -3.3830   13.5390 C.3    15  LEU15       0.0311
     24  CG         8.2210   -3.8890   14.8130 C.3    15  LEU15       0.0022
     25  CD1        6.9060   -3.1410   15.0070 C.3    15  LEU15       0.0001
     26  CD2        8.0100   -5.4070   14.7920 C.3    15  LEU15       0.0001
     27  N         11.5390   -2.7600   11.4510 N.am   16  GLY16      -0.1940
     28  CA        11.8600   -2.3230   10.0980 C.3    16  GLY16       0.2014
     29  C         12.7360   -1.1050   10.1090 C.2    16  GLY16       0.2638
     30  O         12.8270   -0.4050   11.1200 O.2    16  GLY16      -0.2714
     31  N         13.4510   -0.8930    9.0040 N.am   17  LYS17      -0.1977
     32  CA        14.3750    0.2280    8.8850 C.3    17  LYS17       0.1596
     33  C         14.5590    0.6150    7.4390 C.2    17  LYS17       0.2287
     34  O         14.7430   -0.2460    6.5750 O.2    17  LYS17      -0.2864
     35  CB        15.7330   -0.0480    9.5630 C.3    17  LYS17       0.0298
     36  CG        16.2620   -1.4640    9.3700 C.3    17  LYS17       0.0038
     37  CD        17.4850   -1.7420   10.2300 C.3    17  LYS17       0.0206
     38  CE        18.7540   -1.7280    9.4160 C.3    17  LYS17       0.1093
     39  NZ        19.1840   -0.3450    9.0680 N.3    17  LYS17      -0.1314
     40  N         11.2820    1.6320   12.3950 N.3    23  VAL23      -0.1245
     41  CA        10.0690    1.2700   13.1410 C.3    23  VAL23       0.1561
     42  C         10.4680    0.2660   14.2350 C.2    23  VAL23       0.2260
     43  O         11.1100   -0.7350   13.9290 O.2    23  VAL23      -0.2867
     44  CB         8.9770    0.6570   12.2260 C.3    23  VAL23       0.0252
     45  CG1        7.6750    0.4180   13.0050 C.3    23  VAL23       0.0019
     46  CG2        8.7100    1.5460   11.0010 C.3    23  VAL23       0.0019
     47  N          3.6990    0.3570   17.5770 N.3    40  ALA40      -0.1245
     48  CA         4.7390    0.4740   16.5550 C.3    40  ALA40       0.1562
     49  C          5.1400    1.9550   16.5690 C.2    40  ALA40       0.2260
     50  O          4.2810    2.8440   16.5570 O.2    40  ALA40      -0.2867
     51  CB         4.1860    0.0600   15.1790 C.3    40  ALA40       0.0290
     52  N          7.6560    4.9890   14.9550 N.3    42  LYS42      -0.1245
     53  CA         8.5840    5.4540   13.9180 C.3    42  LYS42       0.1561
     54  C          9.3730    6.6330   14.4100 C.2    42  LYS42       0.2260
     55  O          8.8180    7.5630   15.0110 O.2    42  LYS42      -0.2867
     56  CB         7.8250    5.8480   12.6410 C.3    42  LYS42       0.0271
     57  CG         8.7380    6.4680   11.5500 C.3    42  LYS42       0.0035
     58  CD         8.0010    6.7660   10.2250 C.3    42  LYS42       0.0206
     59  CE         8.8990    7.6380    9.3540 C.3    42  LYS42       0.1093
     60  NZ         8.2940    7.8410    7.9970 N.3    42  LYS42      -0.1314
     61  N          3.2620   13.5810    7.1830 N.3    58  GLU58      -0.1245
     62  CA         2.7920   12.2020    7.3200 C.3    58  GLU58       0.1567
     63  C          1.9260   12.0890    8.5890 C.2    58  GLU58       0.2260
     64  O          0.8510   11.5060    8.5620 O.2    58  GLU58      -0.2867
     65  CB         3.9830   11.2230    7.3730 C.3    58  GLU58       0.0388
     66  CG         3.5840    9.7850    7.6950 C.3    58  GLU58       0.1160
     67  CD         4.7320    8.8170    7.9100 C.2    58  GLU58       0.3649
     68  OE1        5.9050    9.2520    7.8240 O.co2  58  GLU58      -0.2457
     69  OE2        4.4580    7.6080    8.1030 O.co2  58  GLU58      -0.2457
     70  N         -2.0340   11.1390    8.9480 N.3    62  LEU62      -0.1245
     71  CA        -2.4950   10.0290    9.7890 C.3    62  LEU62       0.1561
     72  C         -3.5370   10.4320   10.8250 C.2    62  LEU62       0.2260
     73  O         -4.4900    9.6720   11.0460 O.2    62  LEU62      -0.2867
     74  CB        -1.3240    9.2470   10.4110 C.3    62  LEU62       0.0270
     75  CG        -0.4130    8.5330    9.4050 C.3    62  LEU62       0.0019
     76  CD1        0.9070    8.1990   10.0290 C.3    62  LEU62       0.0001
     77  CD2       -1.0540    7.2600    8.8670 C.3    62  LEU62       0.0001
     78  N         -4.4430    1.6800    8.7420 N.3    71  VAL71      -0.1245
     79  CA        -3.7150    1.4640   10.0030 C.3    71  VAL71       0.1561
     80  C         -4.0360    2.6080   11.0050 C.2    71  VAL71       0.2260
     81  O         -4.1090    3.7760   10.6130 O.2    71  VAL71      -0.2867
     82  CB        -2.1880    1.2380    9.7940 C.3    71  VAL71       0.0252
     83  CG1       -1.4950    1.0090   11.1340 C.3    71  VAL71       0.0019
     84  CG2       -1.9060    0.0480    8.8650 C.3    71  VAL71       0.0019
     85  N          6.4270    8.7860   15.9760 N.3    87  LEU87      -0.1245
     86  CA         5.0470    8.5860   15.5860 C.3    87  LEU87       0.1561
     87  C          4.5840    7.2760   16.1940 C.2    87  LEU87       0.2260
     88  O          5.2670    6.2880   16.0430 O.2    87  LEU87      -0.2867
     89  CB         4.9460    8.5490   14.0640 C.3    87  LEU87       0.0270
     90  CG         3.6830    7.9220   13.4680 C.3    87  LEU87       0.0019
     91  CD1        2.4580    8.8320   13.6800 C.3    87  LEU87       0.0001
     92  CD2        3.9060    7.5630   11.9860 C.3    87  LEU87       0.0001
     93  N          1.7980    4.2990   16.2330 N.3    89  MET89      -0.1230
     94  CA         0.7320    3.6190   15.4900 C.3    89  MET89       0.1702
     95  C          0.3820    2.3260   16.2130 C.2    89  MET89       0.2592
     96  O          1.1880    1.7800   16.9940 O.2    89  MET89      -0.2718
     97  CB         1.1940    3.2060   14.0740 C.3    89  MET89       0.0401
     98  CG         1.6510    4.3560   13.1900 C.3    89  MET89       0.0596
     99  SD         0.3670    5.6010   12.9180 S.3    89  MET89      -0.1393
    100  CE        -0.7400    4.7120   11.6860 C.3    89  MET89       0.0692
    101  N         -0.8050    1.7850   15.9070 N.am   90  GLU90      -0.1966
    102  CA        -1.1620    0.4930   16.4690 C.3    90  GLU90       0.1733
    103  C         -0.1670   -0.5720   15.9860 C.2    90  GLU90       0.2616
    104  O          0.3760   -0.4780   14.8640 O.2    90  GLU90      -0.2715
    105  CB        -2.5850    0.0720   16.0420 C.3    90  GLU90       0.0429
    106  CG        -2.7250   -0.2300   14.5630 C.3    90  GLU90       0.1163
    107  CD        -4.0790   -0.7930   14.2100 C.2    90  GLU90       0.3649
    108  OE1       -4.5410   -0.5230   13.0790 O.co2  90  GLU90      -0.2457
    109  OE2       -4.7040   -1.4420   15.0780 O.co2  90  GLU90      -0.2457
    110  N          0.1370   -1.5210   16.8750 N.am   91  TYR91      -0.1960
    111  CA         0.9980   -2.6230   16.5120 C.3    91  TYR91       0.1771
    112  C          0.1330   -3.7620   15.9880 C.2    91  TYR91       0.2619
    113  O         -0.8290   -4.1880   16.6660 O.2    91  TYR91      -0.2715
    114  CB         1.8310   -3.0870   17.7230 C.3    91  TYR91       0.0574
    115  CG         2.5400   -4.3940   17.4470 C.ar   91  TYR91      -0.0198
    116  CD1        3.5920   -4.4610   16.5380 C.ar   91  TYR91      -0.0009
    117  CD2        2.1710   -5.5610   18.1110 C.ar   91  TYR91      -0.0009
    118  CE1        4.2280   -5.6710   16.2530 C.ar   91  TYR91       0.0417
    119  CE2        2.8090   -6.7770   17.8440 C.ar   91  TYR91       0.0417
    120  CZ         3.8770   -6.8110   16.9570 C.ar   91  TYR91       0.1957
    121  OH         4.4960   -8.0110   16.6710 O.3    91  TYR91      -0.2866
    122  N          0.4830   -4.2770   14.8020 N.am   92  LEU92      -0.1964
    123  CA        -0.2540   -5.3700   14.1660 C.3    92  LEU92       0.1713
    124  C          0.6530   -6.6130   14.0760 C.2    92  LEU92       0.2458
    125  O          1.5980   -6.6410   13.2770 O.2    92  LEU92      -0.2730
    126  CB        -0.8220   -4.9020   12.8000 C.3    92  LEU92       0.0310
    127  CG        -1.9300   -3.8580   12.9110 C.3    92  LEU92       0.0022
    128  CD1       -2.1010   -3.1290   11.6020 C.3    92  LEU92       0.0001
    129  CD2       -3.2670   -4.4980   13.3690 C.3    92  LEU92       0.0001
    130  N          0.4760   -7.5850   14.9990 N.am   93  PRO93      -0.2716
    131  CA         1.4160   -8.7180   15.0570 C.3    93  PRO93       0.1536
    132  C          1.5170   -9.5680   13.7920 C.2    93  PRO93       0.2599
    133  O          2.5900  -10.1270   13.5420 O.2    93  PRO93      -0.2715
    134  CB         0.9120   -9.5500   16.2560 C.3    93  PRO93       0.0310
    135  CG        -0.5250   -9.1570   16.4160 C.3    93  PRO93       0.0237
    136  CD        -0.5650   -7.7000   16.0460 C.3    93  PRO93       0.0939
    137  N          0.4620   -9.5820   12.9570 N.am   94  TYR94      -0.1960
    138  CA         0.5020  -10.3440   11.6980 C.3    94  TYR94       0.1771
    139  C          1.4180   -9.6870   10.6450 C.2    94  TYR94       0.2620
    140  O          1.7550  -10.3250    9.6570 O.2    94  TYR94      -0.2715
    141  CB        -0.8940  -10.6090   11.1350 C.3    94  TYR94       0.0574
    142  CG        -1.7180  -11.5550   11.9720 C.ar   94  TYR94      -0.0198
    143  CD1       -1.3650  -12.8990   12.0940 C.ar   94  TYR94      -0.0009
    144  CD2       -2.8690  -11.1210   12.6180 C.ar   94  TYR94      -0.0009
    145  CE1       -2.1280  -13.7800   12.8660 C.ar   94  TYR94       0.0417
    146  CE2       -3.6590  -12.0020   13.3670 C.ar   94  TYR94       0.0417
    147  CZ        -3.2740  -13.3260   13.5000 C.ar   94  TYR94       0.1957
    148  OH        -4.0340  -14.1890   14.2610 O.3    94  TYR94      -0.2866
    149  N          1.7930   -8.4200   10.8480 N.am   95  GLY95      -0.1940
    150  CA         2.7350   -7.7760    9.9400 C.3    95  GLY95       0.2014
    151  C          2.1550   -7.4990    8.5650 C.2    95  GLY95       0.2639
    152  O          0.9380   -7.3520    8.4170 O.2    95  GLY95      -0.2714
    153  N          3.0230   -7.4050    7.5710 N.am   96  SER96      -0.1949
    154  CA         2.5960   -7.0520    6.2130 C.3    96  SER96       0.1924
    155  C          1.8630   -8.1630    5.5140 C.2    96  SER96       0.2314
    156  O          2.1260   -9.3360    5.7680 O.2    96  SER96      -0.2863
    157  CB         3.7830   -6.6250    5.3510 C.3    96  SER96       0.2116
    158  OG         4.5710   -7.7510    4.9920 O.3    96  SER96      -0.2180
    159  N          4.2600  -10.5710    3.7500 N.3    99  ASP99      -0.1239
    160  CA         4.7750  -11.6740    4.5500 C.3    99  ASP99       0.1674
    161  C          3.7190  -12.6830    4.9610 C.2    99  ASP99       0.2266
    162  O          3.9980  -13.8820    4.9820 O.2    99  ASP99      -0.2867
    163  CB         5.5200  -11.1570    5.7810 C.3    99  ASP99       0.1410
    164  CG         6.7450  -10.3240    5.4460 C.2    99  ASP99       0.3668
    165  OD1        7.3290  -10.5330    4.3630 O.co2  99  ASP99      -0.2456
    166  OD2        7.1090   -9.4620    6.2600 O.co2  99  ASP99      -0.2456
    167  N         -1.0000   -3.8590    5.8830 N.3   143  LEU143     -0.1245
    168  CA        -0.8350   -4.6700    7.0990 C.3   143  LEU143      0.1561
    169  C         -2.0340   -5.5370    7.3550 C.2   143  LEU143      0.2260
    170  O         -3.1270   -5.2130    6.8970 O.2   143  LEU143     -0.2867
    171  CB        -0.5380   -3.7640    8.3120 C.3   143  LEU143      0.0270
    172  CG         0.7170   -2.8790    8.1760 C.3   143  LEU143      0.0019
    173  CD1        0.9310   -2.0510    9.4440 C.3   143  LEU143      0.0001
    174  CD2        1.9590   -3.7210    7.9790 C.3   143  LEU143      0.0001
    175  N         -1.1900    0.6920    5.0650 N.3   153  GLY153     -0.1210
    176  CA        -0.1410    1.2380    5.9200 C.3   153  GLY153      0.1956
    177  C          0.7240    2.2490    5.1980 C.2   153  GLY153      0.2612
    178  O          0.2480    2.9730    4.3100 O.2   153  GLY153     -0.2717
    179  N          1.9920    2.2720    5.5900 N.am  154  ASP154     -0.1959
    180  CA         3.0510    3.2090    5.2370 C.3   154  ASP154      0.1840
    181  C          2.6220    4.4430    4.4340 C.2   154  ASP154      0.2622
    182  O          2.6460    4.4180    3.2110 O.2   154  ASP154     -0.2715
    183  CB         4.2810    2.5130    4.6500 C.3   154  ASP154      0.1450
    184  CG         5.5480    3.3560    4.7210 C.2   154  ASP154      0.3671
    185  OD1        5.4330    4.6180    4.8470 O.co2 154  ASP154     -0.2456
    186  OD2        6.6540    2.7620    4.7690 O.co2 154  ASP154     -0.2456
    187  N          2.2180    5.4900    5.1450 N.am  155  PHE155     -0.1974
    188  CA         1.7890    6.7640    4.5480 C.3   155  PHE155      0.1639
    189  C          2.9940    7.7510    4.3860 C.2   155  PHE155      0.2290
    190  O          2.7930    8.9610    4.2520 O.2   155  PHE155     -0.2864
    191  CB         0.6940    7.3860    5.4360 C.3   155  PHE155      0.0560
    192  CG        -0.6570    6.7690    5.1730 C.ar  155  PHE155     -0.0200
    193  CD1       -0.9980    5.5400    5.7190 C.ar  155  PHE155     -0.0042
    194  CD2       -1.5480    7.3650    4.2910 C.ar  155  PHE155     -0.0042
    195  CE1       -2.2340    4.9300    5.4210 C.ar  155  PHE155     -0.0003
    196  CE2       -2.7720    6.7600    3.9980 C.ar  155  PHE155     -0.0003
    197  CZ        -3.0990    5.5440    4.5430 C.ar  155  PHE155     -0.0000
@<TRIPOS>BOND
     1   182   181    2
     2   159   160    1
     3   196   194   ar
     4   196   197   ar
     5   190   189    2
     6   194   192   ar
     7   178   177    2
     8   165   164   ar
     9   189   188    1
    10   181   187   am
    11   181   180    1
    12   197   195   ar
    13   188   187    1
    14   188   191    1
    15   160   161    1
    16   160   163    1
    17   183   184    1
    18   183   180    1
    19   184   186   ar
    20   184   185   ar
    21   161   162    2
    22   158   157    1
    23   175   176    1
    24   192   191    1
    25   192   193   ar
    26   177   179   am
    27   177   176    1
    28   180   179    1
    29   157   154    1
    30   195   193   ar
    31   164   163    1
    32   164   166   ar
    33   155   156    2
    34   155   154    1
    35   167   168    1
    36   154   153    1
    37    34    33    2
    38   170   169    2
    39   168   169    1
    40   168   171    1
    41    61    62    1
    42    62    65    1
    43    62    63    1
    44    65    66    1
    45    33    32    1
    46   153   151   am
    47    66    67    1
    48    68    67   ar
    49    67    69   ar
    50   174   172    1
    51    60    59    1
    52   172   171    1
    53   172   173    1
    54   152   151    2
    55    64    63    2
    56   151   150    1
    57    78    79    1
    58    84    82    1
    59    77    75    1
    60    32    31    1
    61    32    35    1
    62    70    71    1
    63    31    29   am
    64    39    38    1
    65    59    58    1
    66    36    35    1
    67    36    37    1
    68    75    76    1
    69    75    74    1
    70    38    37    1
    71   140   139    2
    72    71    74    1
    73    71    72    1
    74    82    79    1
    75    82    83    1
    76   150   149    1
    77    79    80    1
    78    28    29    1
    79    28    27    1
    80    29    30    2
    81    58    57    1
    82    81    80    2
    83   139   149   am
    84   139   138    1
    85    22    21    2
    86    72    73    2
    87    46    44    1
    88   141   138    1
    89   141   142    1
    90    27    21   am
    91    57    56    1
    92   128   127    1
    93    21    20    1
    94   100    99    1
    95   138   137    1
    96   142   143   ar
    97   142   144   ar
    98    92    90    1
    99   143   145   ar
   100    44    45    1
   101    44    41    1
   102    40    41    1
   103   144   146   ar
   104    56    53    1
   105   126   127    1
   106   126   123    1
   107   145   147   ar
   108   127   129    1
   109    99    98    1
   110   137   132   am
   111   108   107   ar
   112    41    42    1
   113    20    23    1
   114    20    19    1
   115    98    97    1
   116   125   124    2
   117   146   147   ar
   118    90    91    1
   119    90    89    1
   120   147   148    1
   121    23    24    1
   122   133   132    2
   123    17    16    2
   124   132   131    1
   125    53    54    1
   126    53    52    1
   127    43    42    2
   128    15    16    1
   129    15    14    1
   130    89    86    1
   131    97    94    1
   132   124   123    1
   133   124   130   am
   134    19    12   am
   135   123   122    1
   136   107   106    1
   137   107   109   ar
   138    16    18   am
   139    54    55    2
   140   106   105    1
   141    26    24    1
   142   122   112   am
   143    24    25    1
   144    13    12    2
   145    12    11    1
   146   104   103    2
   147   130   131    1
   148   130   136    1
   149   131   134    1
   150    14    11    1
   151    51    48    1
   152    94    95    1
   153    94    93    1
   154    86    85    1
   155    86    87    1
   156    11    10    1
   157   101    95   am
   158   101   102    1
   159   103   102    1
   160   103   110   am
   161   112   111    1
   162   112   113    2
   163   105   102    1
   164    88    87    2
   165   136   135    1
   166     9     7   am
   167    95    96    2
   168   118   116   ar
   169   118   120   ar
   170   134   135    1
   171   111   110    1
   172   111   114    1
   173   116   115   ar
   174    48    49    1
   175    48    47    1
   176    50    49    2
   177   121   120    1
   178   120   119   ar
   179    10     3   am
   180     7     8    2
   181     7     6    1
   182   115   114    1
   183   115   117   ar
   184   119   117   ar
   185     4     3    2
   186     3     2    1
   187     6     5    1
   188     5     2    1
   189     2     1    1
