@<TRIPOS>MOLECULE
tmp/5tqfA00.pdb
 203 201 0 0 0
SMALL
GASTEIGER

@<TRIPOS>ATOM
      1  N         15.4790   40.2430   16.7470 N.3    25  LEU25      -0.1231
      2  CA        14.0590   39.9430   16.8340 C.3    25  LEU25       0.1693
      3  C         13.7710   38.7850   17.7790 C.2    25  LEU25       0.2592
      4  O         12.9480   38.9220   18.6810 O.2    25  LEU25      -0.2718
      5  CB        13.4720   39.6190   15.4450 C.3    25  LEU25       0.0284
      6  CG        11.9760   39.2190   15.4190 C.3    25  LEU25       0.0019
      7  CD1       11.0560   40.4240   15.7540 C.3    25  LEU25       0.0001
      8  CD2       11.5840   38.6160   14.0640 C.3    25  LEU25       0.0001
      9  N         14.3190   37.5960   17.4560 N.am   26  CYS26      -0.1970
     10  CA        14.0520   36.3260   18.1340 C.3    26  CYS26       0.1712
     11  C         15.1790   35.3530   17.8760 C.2    26  CYS26       0.2296
     12  O         16.0670   35.6250   17.0730 O.2    26  CYS26      -0.2864
     13  CB        12.7480   35.7490   17.5920 C.3    26  CYS26       0.0983
     14  SG        11.2560   36.3350   18.4140 S.3    26  CYS26      -0.0798
     15  N          4.7740   33.7040   17.5280 N.3    41  HIS41      -0.1226
     16  CA         4.5760   35.0580   18.0870 C.3    41  HIS41       0.1752
     17  C          5.6850   36.0450   17.7060 C.2    41  HIS41       0.2596
     18  O          5.4620   37.2650   17.7880 O.2    41  HIS41      -0.2718
     19  CB         4.3060   35.0250   19.5980 C.3    41  HIS41       0.0759
     20  CG         5.5310   34.9920   20.4610 C.ar   41  HIS41       0.0818
     21  ND1        6.0180   33.8010   20.9650 N.ar   41  HIS41      -0.2268
     22  CD2        6.3020   36.0100   20.9160 C.ar   41  HIS41       0.1154
     23  CE1        7.0840   34.1190   21.6830 C.ar   41  HIS41       0.1986
     24  NE2        7.2960   35.4350   21.6860 N.ar   41  HIS41      -0.2212
     25  N          6.8580   35.5250   17.2570 N.am   42  CYS42      -0.1970
     26  CA         7.9950   36.3220   16.7880 C.3    42  CYS42       0.1712
     27  C          7.5810   37.2330   15.6230 C.2    42  CYS42       0.2296
     28  O          8.2120   38.2630   15.4140 O.2    42  CYS42      -0.2864
     29  CB         9.1580   35.4220   16.3630 C.3    42  CYS42       0.0983
     30  SG        10.1590   34.7730   17.7320 S.3    42  CYS42      -0.0798
     31  N          4.3230   38.4750   14.9420 N.3    44  ASP44      -0.1225
     32  CA         3.0560   39.1910   15.1090 C.3    44  ASP44       0.1805
     33  C          3.1290   40.6460   14.6610 C.2    44  ASP44       0.2597
     34  O          2.1440   41.1650   14.1330 O.2    44  ASP44      -0.2718
     35  CB         2.6050   39.1610   16.5650 C.3    44  ASP44       0.1424
     36  CG         1.8740   37.9210   17.0010 C.2    44  ASP44       0.3668
     37  OD1        1.8790   36.9140   16.2340 O.co2  44  ASP44      -0.2456
     38  OD2        1.2960   37.9420   18.0940 O.co2  44  ASP44      -0.2456
     39  N          4.2750   41.2880   14.8510 N.am   45  LYS45      -0.1979
     40  CA         4.4100   42.7220   14.5560 C.3    45  LYS45       0.1596
     41  C          5.1850   43.0360   13.3010 C.2    45  LYS45       0.2287
     42  O          5.4850   44.2070   13.0670 O.2    45  LYS45      -0.2864
     43  CB         5.0400   43.4570   15.7490 C.3    45  LYS45       0.0298
     44  CG         4.2390   43.3340   17.0370 C.3    45  LYS45       0.0038
     45  CD         4.9640   44.0510   18.1570 C.3    45  LYS45       0.0206
     46  CE         4.3000   43.8620   19.4900 C.3    45  LYS45       0.1093
     47  NZ         5.1230   44.4360   20.5910 N.3    45  LYS45      -0.1314
     48  N         -1.2010   37.2950   19.1820 N.3    85  GLY85      -0.1210
     49  CA        -1.3720   37.8820   20.5050 C.3    85  GLY85       0.1956
     50  C         -1.7130   36.8860   21.5920 C.2    85  GLY85       0.2613
     51  O         -1.8310   37.2690   22.7570 O.2    85  GLY85      -0.2717
     52  N         -1.8700   35.5830   21.2260 N.am   86  THR86      -0.1938
     53  CA        -2.1790   34.5220   22.1860 C.3    86  THR86       0.2028
     54  C         -0.9830   33.5410   22.3050 C.2    86  THR86       0.2642
     55  O          0.0480   33.7290   21.6590 O.2    86  THR86      -0.2714
     56  CB        -3.5400   33.8490   21.8930 C.3    86  THR86       0.1808
     57  OG1       -3.4130   33.0490   20.7260 O.3    86  THR86      -0.2208
     58  CG2       -4.6950   34.8650   21.7200 C.3    86  THR86       0.0379
     59  N         -1.1260   32.5170   23.1530 N.am   87  THR87      -0.1950
     60  CA        -0.0550   31.5780   23.4940 C.3    87  THR87       0.1897
     61  C         -0.0920   30.2270   22.7890 C.2    87  THR87       0.2313
     62  O          0.9690   29.6300   22.6260 O.2    87  THR87      -0.2863
     63  CB        -0.0990   31.2860   25.0090 C.3    87  THR87       0.1794
     64  OG1       -1.4250   30.8620   25.3340 O.3    87  THR87      -0.2208
     65  CG2        0.2730   32.5000   25.8560 C.3    87  THR87       0.0378
     66  N          2.2950   27.9210   19.3620 N.3    90  ASP90      -0.1239
     67  CA         3.3470   28.9110   19.1570 C.3    90  ASP90       0.1674
     68  C          4.5700   28.3500   18.4150 C.2    90  ASP90       0.2266
     69  O          5.6420   28.1870   18.9990 O.2    90  ASP90      -0.2867
     70  CB         3.7300   29.5740   20.5020 C.3    90  ASP90       0.1410
     71  CG         4.5080   30.8610   20.3040 C.2    90  ASP90       0.3668
     72  OD1        4.5130   31.3910   19.1560 O.co2  90  ASP90      -0.2456
     73  OD2        5.0950   31.3440   21.2750 O.co2  90  ASP90      -0.2456
     74  N         -2.9310   32.3710   31.8070 N.3   165  PRO165     -0.2116
     75  CA        -3.3560   31.4490   30.7410 C.3   165  PRO165      0.1372
     76  C         -3.1740   29.9650   31.0950 C.2   165  PRO165      0.2244
     77  O         -2.4480   29.6290   32.0380 O.2   165  PRO165     -0.2868
     78  CB        -2.4960   31.8730   29.5360 C.3   165  PRO165      0.0268
     79  CG        -2.0200   33.2490   29.8450 C.3   165  PRO165      0.0207
     80  CD        -1.8860   33.3020   31.3370 C.3   165  PRO165      0.0892
     81  N         15.8150   31.2810   34.0500 N.3   182  ASP182     -0.1225
     82  CA        14.7340   31.2040   33.0640 C.3   182  ASP182      0.1805
     83  C         15.2370   31.6800   31.7310 C.2   182  ASP182      0.2598
     84  O         16.3070   32.2860   31.6590 O.2   182  ASP182     -0.2718
     85  CB        13.5780   32.1430   33.4870 C.3   182  ASP182      0.1424
     86  CG        12.1910   31.8330   32.9410 C.2   182  ASP182      0.3668
     87  OD1       12.0550   30.8550   32.1400 O.co2 182  ASP182     -0.2456
     88  OD2       11.2520   32.5800   33.2720 O.co2 182  ASP182     -0.2456
     89  N         14.4510   31.4100   30.6700 N.am  183  SER183     -0.1938
     90  CA        14.6710   32.0290   29.3670 C.3   183  SER183      0.2055
     91  C         13.7430   33.2730   29.4380 C.2   183  SER183      0.2643
     92  O         12.8340   33.3020   30.2960 O.2   183  SER183     -0.2714
     93  CB        14.3030   31.0850   28.2210 C.3   183  SER183      0.2130
     94  OG        13.0060   30.5410   28.3790 O.3   183  SER183     -0.2179
     95  N         13.9760   34.2900   28.5800 N.am  184  CYS184     -0.1953
     96  CA        13.2300   35.5600   28.5860 C.3   184  CYS184      0.1843
     97  C         12.5760   35.8320   27.2370 C.2   184  CYS184      0.2625
     98  O         12.8670   35.1330   26.2700 O.2   184  CYS184     -0.2714
     99  CB        14.1520   36.7160   28.9790 C.3   184  CYS184      0.0997
    100  SG        15.1040   36.4410   30.4950 S.3   184  CYS184     -0.0797
    101  N         11.7680   36.9180   27.1390 N.am  185  LYS185     -0.1963
    102  CA        11.1410   37.2810   25.8650 C.3   185  LYS185      0.1728
    103  C         12.1180   37.4160   24.6960 C.2   185  LYS185      0.2616
    104  O         11.7630   37.0280   23.5890 O.2   185  LYS185     -0.2715
    105  CB        10.2640   38.5330   25.9910 C.3   185  LYS185      0.0311
    106  CG        11.0080   39.8130   26.2960 C.3   185  LYS185      0.0038
    107  CD        10.0020   40.9210   26.5040 C.3   185  LYS185      0.0206
    108  CE        10.6800   42.2390   26.7710 C.3   185  LYS185      0.1093
    109  NZ         9.6850   43.2490   27.2110 N.3   185  LYS185     -0.1314
    110  N         13.3280   37.9290   24.9240 N.am  186  GLY186     -0.1955
    111  CA        14.3090   38.0900   23.8480 C.3   186  GLY186      0.1869
    112  C         14.8830   36.7570   23.3720 C.2   186  GLY186      0.2309
    113  O         15.6230   36.7150   22.3810 O.2   186  GLY186     -0.2863
    114  N         12.7880   34.2260   22.8250 N.3   188  SER188     -0.1217
    115  CA        11.6090   33.6650   22.1260 C.3   188  SER188      0.1889
    116  C         12.0210   33.0310   20.8070 C.2   188  SER188      0.2288
    117  O         12.8260   33.6240   20.0730 O.2   188  SER188     -0.2866
    118  CB        10.5830   34.7670   21.8290 C.3   188  SER188      0.2089
    119  OG         9.8650   35.1560   22.9900 O.3   188  SER188     -0.2183
    120  N         11.3000   28.2720   22.9580 N.3   206  VAL206     -0.1231
    121  CA        11.0810   29.3730   23.9510 C.3   206  VAL206      0.1692
    122  C          9.7960   30.1060   23.5230 C.2   206  VAL206      0.2593
    123  O          9.7170   30.6510   22.4210 O.2   206  VAL206     -0.2718
    124  CB        12.3150   30.3170   24.0550 C.3   206  VAL206      0.0266
    125  CG1       12.0550   31.4470   25.0720 C.3   206  VAL206      0.0020
    126  CG2       13.5840   29.5230   24.4360 C.3   206  VAL206      0.0020
    127  N          8.7530   30.0510   24.3710 N.am  207  SER207     -0.1938
    128  CA         7.4520   30.5540   23.9510 C.3   207  SER207      0.2055
    129  C          6.8990   31.7080   24.8330 C.2   207  SER207      0.2643
    130  O          6.7680   32.8380   24.3470 O.2   207  SER207     -0.2714
    131  CB         6.4700   29.3830   23.8600 C.3   207  SER207      0.2130
    132  OG         5.1690   29.8090   23.4880 O.3   207  SER207     -0.2179
    133  N          6.5600   31.4350   26.1050 N.am  208  TRP208     -0.1959
    134  CA         5.9740   32.4880   26.9530 C.3   208  TRP208      0.1771
    135  C          6.1860   32.2530   28.4480 C.2   208  TRP208      0.2620
    136  O          6.7570   31.2420   28.8600 O.2   208  TRP208     -0.2715
    137  CB         4.4710   32.6990   26.6250 C.3   208  TRP208      0.0590
    138  CG         3.5910   31.5270   26.9280 C.ar  208  TRP208      0.0006
    139  CD1        3.3960   30.4210   26.1480 C.ar  208  TRP208      0.0946
    140  CD2        2.7810   31.3410   28.1010 C.ar  208  TRP208      0.0152
    141  NE1        2.5110   29.5610   26.7610 N.ar  208  TRP208     -0.2442
    142  CE2        2.1080   30.1060   27.9540 C.ar  208  TRP208      0.0810
    143  CE3        2.5070   32.1350   29.2380 C.ar  208  TRP208      0.0012
    144  CZ2        1.1970   29.6240   28.9130 C.ar  208  TRP208      0.0191
    145  CZ3        1.6130   31.6510   30.1930 C.ar  208  TRP208      0.0001
    146  CH2        0.9740   30.4080   30.0290 C.ar  208  TRP208      0.0015
    147  N          5.7240   33.2140   29.2400 N.am  209  GLY209     -0.1940
    148  CA         5.8110   33.1670   30.6970 C.3   209  GLY209      0.2014
    149  C          5.4420   34.5190   31.2730 C.2   209  GLY209      0.2639
    150  O          4.8720   35.3520   30.5580 O.2   209  GLY209     -0.2714
    151  N          5.7990   34.7660   32.5570 N.am  210  GLN210     -0.1963
    152  CA         5.5380   36.0460   33.2560 C.3   210  GLN210      0.1733
    153  C          6.8540   36.7520   33.5910 C.2   210  GLN210      0.2617
    154  O          7.7620   36.0990   34.1100 O.2   210  GLN210     -0.2715
    155  CB         4.6830   35.8120   34.5060 C.3   210  GLN210      0.0408
    156  CG         3.6010   36.8690   34.6720 C.3   210  GLN210      0.0908
    157  CD         2.6010   36.4780   35.7230 C.2   210  GLN210      0.2608
    158  OE1        1.6940   35.6700   35.4840 O.2   210  GLN210     -0.2717
    159  NE2        2.7420   37.0480   36.9120 N.am  210  GLN210     -0.0878
    160  N          6.9550   38.0530   33.2500 N.am  211  GLY211     -0.1940
    161  CA         8.1610   38.8800   33.3790 C.3   211  GLY211      0.2014
    162  C          9.2860   38.0800   32.7670 C.2   211  GLY211      0.2639
    163  O          9.2490   37.8040   31.5680 O.2   211  GLY211     -0.2714
    164  N         10.3180   37.7840   33.5800 N.am  212  CYS212     -0.1967
    165  CA        11.4280   36.8600   33.3550 C.3   212  CYS212      0.1712
    166  C         11.9680   36.4200   34.6840 C.2   212  CYS212      0.2296
    167  O         12.2450   37.2740   35.5360 O.2   212  CYS212     -0.2864
    168  CB        12.5380   37.3730   32.4370 C.3   212  CYS212      0.0983
    169  SG        13.4850   36.0240   31.6510 S.3   212  CYS212     -0.0798
    170  N          7.1330   29.2460   36.0070 N.3   218  PHE218     -0.1227
    171  CA         8.0820   28.4860   35.1880 C.3   218  PHE218      0.1736
    172  C          8.0420   29.0510   33.7570 C.2   218  PHE218      0.2596
    173  O          7.0850   29.7320   33.3970 O.2   218  PHE218     -0.2718
    174  CB         7.6810   26.9930   35.1550 C.3   218  PHE218      0.0547
    175  CG         7.8380   26.2950   36.4830 C.ar  218  PHE218     -0.0202
    176  CD1        9.0620   25.7560   36.8610 C.ar  218  PHE218     -0.0042
    177  CD2        6.7830   26.2370   37.3840 C.ar  218  PHE218     -0.0042
    178  CE1        9.2180   25.1390   38.1060 C.ar  218  PHE218     -0.0003
    179  CE2        6.9350   25.6020   38.6210 C.ar  218  PHE218     -0.0003
    180  CZ         8.1570   25.0770   38.9820 C.ar  218  PHE218     -0.0000
    181  N          9.0600   28.7530   32.9570 N.am  219  GLY219     -0.1942
    182  CA         9.0420   29.1160   31.5400 C.3   219  GLY219      0.2014
    183  C          8.1070   28.1470   30.8290 C.2   219  GLY219      0.2639
    184  O          7.9800   26.9940   31.2530 O.2   219  GLY219     -0.2714
    185  N          7.3980   28.6100   29.7930 N.am  220  VAL220     -0.1963
    186  CA         6.4590   27.7620   29.0390 C.3   220  VAL220      0.1727
    187  C          7.0140   27.6060   27.6220 C.2   220  VAL220      0.2616
    188  O          7.4240   28.5960   27.0060 O.2   220  VAL220     -0.2715
    189  CB         4.9880   28.2490   29.0560 C.3   220  VAL220      0.0290
    190  CG1        4.0470   27.1910   28.4490 C.3   220  VAL220      0.0023
    191  CG2        4.5400   28.6030   30.4820 C.3   220  VAL220      0.0023
    192  N          7.0460   26.3550   27.1320 N.am  221  TYR221     -0.1974
    193  CA         7.6960   26.0150   25.8590 C.3   221  TYR221      0.1639
    194  C          6.7340   25.3190   24.9300 C.2   221  TYR221      0.2290
    195  O          5.9180   24.5190   25.3860 O.2   221  TYR221     -0.2864
    196  CB         8.9190   25.0950   26.1350 C.3   221  TYR221      0.0560
    197  CG         9.9950   25.7820   26.9510 C.ar  221  TYR221     -0.0198
    198  CD1        9.9090   25.8500   28.3440 C.ar  221  TYR221     -0.0009
    199  CD2       11.0780   26.3980   26.3320 C.ar  221  TYR221     -0.0009
    200  CE1       10.8760   26.5200   29.0970 C.ar  221  TYR221      0.0417
    201  CE2       12.0640   27.0420   27.0730 C.ar  221  TYR221      0.0417
    202  CZ        11.9470   27.1230   28.4530 C.ar  221  TYR221      0.1957
    203  OH        12.9010   27.8110   29.1580 O.3   221  TYR221     -0.2866
@<TRIPOS>BOND
     1    42    41    2
     2    41    40    1
     3     8     6    1
     4    34    33    2
     5    40    39    1
     6    40    43    1
     7    33    39   am
     8    33    32    1
     9    31    32    1
    10    32    35    1
    11    28    27    2
    12     6     5    1
    13     6     7    1
    14     5     2    1
    15    27    26    1
    16    43    44    1
    17    37    36   ar
    18    29    26    1
    19    29    30    1
    20    35    36    1
    21     1     2    1
    22    26    25    1
    23     2     3    1
    24    36    38   ar
    25    44    45    1
    26    12    11    2
    27    25    17   am
    28     9     3   am
    29     9    10    1
    30    15    16    1
    31    13    10    1
    32    13    14    1
    33    17    18    2
    34    17    16    1
    35    30    14    1
    36     3     4    2
    37    11    10    1
    38    16    19    1
    39    45    46    1
    40    68    69    2
    41    68    67    1
    42    72    71   ar
    43    67    66    1
    44    67    70    1
    45    48    49    1
    46    46    47    1
    47    19    20    1
    48   117   116    2
    49    71    70    1
    50    71    73   ar
    51    20    22   ar
    52    20    21   ar
    53    49    50    1
    54    57    56    1
    55   116   115    1
    56    22    24   ar
    57    21    23   ar
    58    52    50   am
    59    52    53    1
    60    50    51    2
    61    55    54    2
    62    23    24   ar
    63    58    56    1
    64   118   115    1
    65   118   119    1
    66    56    53    1
    67   115   114    1
    68    53    54    1
    69    54    59   am
    70   113   112    2
    71   123   122    2
    72    62    61    2
    73    61    60    1
    74   120   121    1
    75    59    60    1
    76   112   111    1
    77   132   131    1
    78    60    63    1
    79   122   121    1
    80   122   127   am
    81   104   103    2
    82   111   110    1
    83   131   128    1
    84   128   127    1
    85   128   129    1
    86   121   124    1
    87   124   126    1
    88   124   125    1
    89   130   129    2
    90   103   110   am
    91   103   102    1
    92   129   133   am
    93   194   195    2
    94   194   193    1
    95    63    64    1
    96    63    65    1
    97   193   196    1
    98   193   192    1
    99   102   105    1
   100   102   101    1
   101   105   106    1
   102   133   134    1
   103   196   197    1
   104   139   141   ar
   105   139   138   ar
   106    98    97    2
   107   106   107    1
   108   199   197   ar
   109   199   201   ar
   110   107   108    1
   111   137   138    1
   112   137   134    1
   113   141   142   ar
   114   108   109    1
   115   138   140   ar
   116   197   198   ar
   117   134   135    1
   118   188   187    2
   119   201   202   ar
   120   192   187   am
   121   101    97   am
   122    97    96    1
   123   187   186    1
   124   142   140   ar
   125   142   144   ar
   126   140   143   ar
   127    93    94    1
   128    93    90    1
   129   198   200   ar
   130   135   136    2
   131   135   147   am
   132   190   189    1
   133   202   200   ar
   134   202   203    1
   135    95    96    1
   136    95    91   am
   137    96    99    1
   138   144   146   ar
   139    99   100    1
   140   186   189    1
   141   186   185    1
   142   189   191    1
   143   143   145   ar
   144   147   148    1
   145    90    91    1
   146    90    89    1
   147    91    92    2
   148    78    79    1
   149    78    75    1
   150   185   183   am
   151    79    80    1
   152   146   145   ar
   153   100   169    1
   154   150   149    2
   155    89    83   am
   156   148   149    1
   157    75    76    1
   158    75    74    1
   159   183   184    2
   160   183   182    1
   161    76    77    2
   162   149   151   am
   163    80    74    1
   164   182   181    1
   165   163   162    2
   166   169   168    1
   167    84    83    2
   168    83    82    1
   169    87    86   ar
   170   168   165    1
   171   151   152    1
   172   162   161    1
   173   162   164   am
   174    86    88   ar
   175    86    85    1
   176   181   172   am
   177    82    85    1
   178    82    81    1
   179   160   161    1
   180   160   153   am
   181   152   153    1
   182   152   155    1
   183   165   164    1
   184   165   166    1
   185   173   172    2
   186   153   154    2
   187   172   171    1
   188   155   156    1
   189   156   157    1
   190   166   167    2
   191   174   171    1
   192   174   175    1
   193   171   170    1
   194   158   157    2
   195   157   159   am
   196   175   176   ar
   197   175   177   ar
   198   176   178   ar
   199   177   179   ar
   200   178   180   ar
   201   179   180   ar
