@<TRIPOS>MOLECULE
tmp/5tqgA00.pdb
 205 203 0 0 0
SMALL
GASTEIGER

@<TRIPOS>ATOM
      1  N         15.5030   40.4770   16.7990 N.3    25  LEU25      -0.1231
      2  CA        14.0860   40.1740   16.9010 C.3    25  LEU25       0.1693
      3  C         13.7950   38.9870   17.8310 C.2    25  LEU25       0.2592
      4  O         12.9400   39.0860   18.7110 O.2    25  LEU25      -0.2718
      5  CB        13.4980   39.8760   15.5040 C.3    25  LEU25       0.0284
      6  CG        12.0160   39.4520   15.4500 C.3    25  LEU25       0.0019
      7  CD1       11.0700   40.6230   15.8080 C.3    25  LEU25       0.0001
      8  CD2       11.6490   38.9130   14.0570 C.3    25  LEU25       0.0001
      9  N         14.4210   37.8370   17.5570 N.am   26  CYS26      -0.1970
     10  CA        14.1180   36.5660   18.2340 C.3    26  CYS26       0.1712
     11  C         15.2620   35.5880   17.9840 C.2    26  CYS26       0.2296
     12  O         16.1710   35.8700   17.2020 O.2    26  CYS26      -0.2864
     13  CB        12.8250   36.0000   17.6280 C.3    26  CYS26       0.0983
     14  SG        11.3030   36.4950   18.4710 S.3    26  CYS26      -0.0798
     15  N          4.8130   33.9140   17.5520 N.3    41  HIS41      -0.1226
     16  CA         4.6290   35.2610   18.1260 C.3    41  HIS41       0.1752
     17  C          5.7430   36.2400   17.7550 C.2    41  HIS41       0.2596
     18  O          5.5310   37.4610   17.8360 O.2    41  HIS41      -0.2718
     19  CB         4.3740   35.2220   19.6420 C.3    41  HIS41       0.0759
     20  CG         5.5930   35.1880   20.5080 C.ar   41  HIS41       0.0818
     21  ND1        6.0450   34.0050   21.0590 N.ar   41  HIS41      -0.2268
     22  CD2        6.3510   36.2100   20.9770 C.ar   41  HIS41       0.1154
     23  CE1        7.0810   34.3310   21.8190 C.ar   41  HIS41       0.1986
     24  NE2        7.3110   35.6430   21.7930 N.ar   41  HIS41      -0.2212
     25  N          6.9090   35.7190   17.2960 N.am   42  CYS42      -0.1970
     26  CA         8.0120   36.5790   16.8440 C.3    42  CYS42       0.1712
     27  C          7.5980   37.4400   15.6590 C.2    42  CYS42       0.2296
     28  O          8.2530   38.4510   15.4060 O.2    42  CYS42      -0.2864
     29  CB         9.2350   35.7400   16.4800 C.3    42  CYS42       0.0983
     30  SG        10.0510   34.9900   17.9050 S.3    42  CYS42      -0.0798
     31  N          4.3060   38.6720   14.9320 N.3    44  ASP44      -0.1225
     32  CA         3.0410   39.3910   15.1170 C.3    44  ASP44       0.1805
     33  C          3.0940   40.8500   14.6630 C.2    44  ASP44       0.2597
     34  O          2.0890   41.3620   14.1690 O.2    44  ASP44      -0.2718
     35  CB         2.6090   39.3560   16.5870 C.3    44  ASP44       0.1424
     36  CG         1.8710   38.1150   17.0440 C.2    44  ASP44       0.3668
     37  OD1        1.8660   37.1090   16.2940 O.co2  44  ASP44      -0.2456
     38  OD2        1.3250   38.1330   18.1640 O.co2  44  ASP44      -0.2456
     39  N          4.2440   41.5170   14.8420 N.am   45  LYS45      -0.1979
     40  CA         4.3820   42.9450   14.5410 C.3    45  LYS45       0.1596
     41  C          5.1910   43.2540   13.2930 C.2    45  LYS45       0.2287
     42  O          5.5230   44.4270   13.0650 O.2    45  LYS45      -0.2864
     43  CB         4.9750   43.6790   15.7590 C.3    45  LYS45       0.0298
     44  CG         4.1310   43.5390   17.0230 C.3    45  LYS45       0.0038
     45  CD         4.7600   44.3110   18.1700 C.3    45  LYS45       0.0206
     46  CE         4.0300   44.1060   19.4720 C.3    45  LYS45       0.1093
     47  NZ         4.7550   44.7440   20.6020 N.3    45  LYS45      -0.1314
     48  N         -1.1820   37.4050   19.2480 N.3    85  GLY85      -0.1210
     49  CA        -1.3130   37.9900   20.5790 C.3    85  GLY85       0.1956
     50  C         -1.6530   37.0120   21.6800 C.2    85  GLY85       0.2613
     51  O         -1.6910   37.4110   22.8480 O.2    85  GLY85      -0.2717
     52  N         -1.8740   35.7140   21.3280 N.am   86  THR86      -0.1938
     53  CA        -2.2120   34.6550   22.2860 C.3    86  THR86       0.2028
     54  C         -1.0450   33.6440   22.4290 C.2    86  THR86       0.2642
     55  O         -0.0210   33.7980   21.7730 O.2    86  THR86      -0.2714
     56  CB        -3.5770   34.0020   21.9650 C.3    86  THR86       0.1808
     57  OG1       -3.4360   33.1770   20.8140 O.3    86  THR86      -0.2208
     58  CG2       -4.7010   35.0320   21.7580 C.3    86  THR86       0.0379
     59  N         -1.2120   32.6210   23.2790 N.am   87  THR87      -0.1950
     60  CA        -0.1530   31.6570   23.6010 C.3    87  THR87       0.1897
     61  C         -0.1570   30.3270   22.8430 C.2    87  THR87       0.2313
     62  O          0.9170   29.7590   22.6560 O.2    87  THR87      -0.2863
     63  CB        -0.2060   31.3180   25.1010 C.3    87  THR87       0.1794
     64  OG1       -1.5170   30.8390   25.3990 O.3    87  THR87      -0.2208
     65  CG2        0.1410   32.5070   25.9950 C.3    87  THR87       0.0378
     66  N          2.3280   28.0980   19.4070 N.3    90  ASP90      -0.1239
     67  CA         3.3700   29.1040   19.2070 C.3    90  ASP90       0.1674
     68  C          4.6040   28.5510   18.4660 C.2    90  ASP90       0.2266
     69  O          5.6780   28.3630   19.0570 O.2    90  ASP90      -0.2867
     70  CB         3.7500   29.7600   20.5600 C.3    90  ASP90       0.1410
     71  CG         4.5030   31.0770   20.3920 C.2    90  ASP90       0.3668
     72  OD1        4.5060   31.6290   19.2580 O.co2  90  ASP90      -0.2456
     73  OD2        5.0830   31.5560   21.3810 O.co2  90  ASP90      -0.2456
     74  N         -3.9560   34.4970   34.3480 N.3   164  SER164     -0.1203
     75  CA        -2.9690   33.5740   33.7840 C.3   164  SER164      0.2005
     76  C         -3.6390   32.5370   32.8640 C.2   164  SER164      0.2460
     77  O         -4.6200   31.9120   33.2810 O.2   164  SER164     -0.2732
     78  CB        -2.1940   32.8700   34.8950 C.3   164  SER164      0.2103
     79  OG        -1.3010   31.9740   34.4570 O.3   164  SER164     -0.2182
     80  N         -3.1440   32.3270   31.6180 N.am  165  PRO165     -0.2728
     81  CA        -3.7900   31.3380   30.7410 C.3   165  PRO165      0.1401
     82  C         -3.4360   29.8940   31.0940 C.2   165  PRO165      0.2269
     83  O         -2.5930   29.6380   31.9580 O.2   165  PRO165     -0.2865
     84  CB        -3.3270   31.7380   29.3250 C.3   165  PRO165      0.0296
     85  CG        -2.4230   32.9260   29.4980 C.3   165  PRO165      0.0237
     86  CD        -2.0020   32.9590   30.9360 C.3   165  PRO165      0.0939
     87  N         15.8690   31.5030   34.1770 N.3   182  ASP182     -0.1225
     88  CA        14.7810   31.4210   33.1830 C.3   182  ASP182      0.1805
     89  C         15.2650   31.8950   31.8230 C.2   182  ASP182      0.2598
     90  O         16.3390   32.5040   31.7170 O.2   182  ASP182     -0.2718
     91  CB        13.6260   32.3690   33.6150 C.3   182  ASP182      0.1424
     92  CG        12.2250   32.0690   33.1060 C.2   182  ASP182      0.3668
     93  OD1       12.0670   31.1190   32.2960 O.co2 182  ASP182     -0.2456
     94  OD2       11.2940   32.8060   33.4840 O.co2 182  ASP182     -0.2456
     95  N         14.4460   31.6490   30.7800 N.am  183  SER183     -0.1938
     96  CA        14.6890   32.2600   29.4670 C.3   183  SER183      0.2055
     97  C         13.7630   33.5060   29.5090 C.2   183  SER183      0.2643
     98  O         12.7880   33.4960   30.2860 O.2   183  SER183     -0.2714
     99  CB        14.3330   31.3160   28.3180 C.3   183  SER183      0.2130
    100  OG        13.0480   30.7380   28.4830 O.3   183  SER183     -0.2179
    101  N         14.0670   34.5570   28.7040 N.am  184  CYS184     -0.1953
    102  CA        13.3610   35.8490   28.6660 C.3   184  CYS184      0.1843
    103  C         12.7010   36.1210   27.3190 C.2   184  CYS184      0.2625
    104  O         12.9590   35.4050   26.3510 O.2   184  CYS184     -0.2714
    105  CB        14.3200   36.9850   29.0230 C.3   184  CYS184      0.0997
    106  SG        15.1770   36.7830   30.6010 S.3   184  CYS184     -0.0797
    107  N         11.9110   37.2170   27.2200 N.am  185  LYS185     -0.1977
    108  CA        11.2640   37.5840   25.9550 C.3   185  LYS185      0.1596
    109  C         12.2250   37.6730   24.7610 C.2   185  LYS185      0.2287
    110  O         11.8540   37.2600   23.6630 O.2   185  LYS185     -0.2864
    111  CB        10.4120   38.8630   26.0950 C.3   185  LYS185      0.0298
    112  CG        11.1740   40.1700   26.2190 C.3   185  LYS185      0.0038
    113  CD        10.1900   41.3030   26.4890 C.3   185  LYS185      0.0206
    114  CE        10.8650   42.6520   26.5110 C.3   185  LYS185      0.1093
    115  NZ        10.0330   43.6470   27.2370 N.3   185  LYS185     -0.1314
    116  N         12.8530   34.4490   22.9160 N.3   188  SER188     -0.1217
    117  CA        11.6670   33.8970   22.2170 C.3   188  SER188      0.1889
    118  C         12.0760   33.2590   20.8920 C.2   188  SER188      0.2288
    119  O         12.8660   33.8610   20.1460 O.2   188  SER188     -0.2866
    120  CB        10.6510   35.0110   21.9200 C.3   188  SER188      0.2089
    121  OG         9.9310   35.4360   23.0730 O.3   188  SER188     -0.2183
    122  N         11.3250   28.4580   23.0610 N.3   206  VAL206     -0.1231
    123  CA        11.1110   29.5560   24.0660 C.3   206  VAL206      0.1692
    124  C          9.8300   30.2990   23.6490 C.2   206  VAL206      0.2593
    125  O          9.7650   30.8600   22.5510 O.2   206  VAL206     -0.2718
    126  CB        12.3330   30.5060   24.1480 C.3   206  VAL206      0.0266
    127  CG1       12.0800   31.6390   25.1720 C.3   206  VAL206      0.0020
    128  CG2       13.6080   29.7200   24.4960 C.3   206  VAL206      0.0020
    129  N          8.7920   30.2440   24.4910 N.am  207  SER207     -0.1938
    130  CA         7.4890   30.7810   24.0850 C.3   207  SER207      0.2055
    131  C          6.9580   31.9270   24.9770 C.2   207  SER207      0.2643
    132  O          6.8200   33.0460   24.4900 O.2   207  SER207     -0.2714
    133  CB         6.4690   29.6390   23.9780 C.3   207  SER207      0.2130
    134  OG         5.1660   30.0800   23.6150 O.3   207  SER207     -0.2179
    135  N          6.5870   31.6400   26.2430 N.am  208  TRP208     -0.1959
    136  CA         5.9950   32.6720   27.1130 C.3   208  TRP208      0.1771
    137  C          6.2250   32.4300   28.6070 C.2   208  TRP208      0.2620
    138  O          6.7920   31.4180   29.0100 O.2   208  TRP208     -0.2715
    139  CB         4.4790   32.8650   26.8080 C.3   208  TRP208      0.0590
    140  CG         3.5970   31.6840   27.0970 C.ar  208  TRP208      0.0006
    141  CD1        3.3790   30.6040   26.2860 C.ar  208  TRP208      0.0946
    142  CD2        2.7810   31.4810   28.2680 C.ar  208  TRP208      0.0152
    143  NE1        2.4920   29.7340   26.8860 N.ar  208  TRP208     -0.2442
    144  CE2        2.0940   30.2570   28.0940 C.ar  208  TRP208      0.0810
    145  CE3        2.5420   32.2350   29.4390 C.ar  208  TRP208      0.0012
    146  CZ2        1.1990   29.7500   29.0570 C.ar  208  TRP208      0.0191
    147  CZ3        1.6540   31.7370   30.3900 C.ar  208  TRP208      0.0001
    148  CH2        0.9910   30.5110   30.1960 C.ar  208  TRP208      0.0015
    149  N          5.7940   33.3940   29.4070 N.am  209  GLY209     -0.1940
    150  CA         5.8970   33.3500   30.8600 C.3   209  GLY209      0.2014
    151  C          5.3330   34.6200   31.4720 C.2   209  GLY209      0.2639
    152  O          4.9160   35.5270   30.7490 O.2   209  GLY209     -0.2714
    153  N          5.3370   34.7040   32.8060 N.am  210  GLN210     -0.1963
    154  CA         4.7990   35.8700   33.5290 C.3   210  GLN210      0.1733
    155  C          5.9620   36.6350   34.1590 C.2   210  GLN210      0.2617
    156  O          6.2110   36.4760   35.3490 O.2   210  GLN210     -0.2715
    157  CB         3.7950   35.3960   34.6090 C.3   210  GLN210      0.0408
    158  CG         2.6100   34.5890   34.0760 C.3   210  GLN210      0.0908
    159  CD         1.4800   35.4680   33.6020 C.2   210  GLN210      0.2608
    160  OE1        0.5270   35.7370   34.3370 O.2   210  GLN210     -0.2717
    161  NE2        1.5570   35.9380   32.3640 N.am  210  GLN210     -0.0878
    162  N          6.6760   37.4270   33.3530 N.am  211  GLY211     -0.1940
    163  CA         7.8580   38.1850   33.7580 C.3   211  GLY211      0.2014
    164  C          9.0400   37.2370   33.8450 C.2   211  GLY211      0.2639
    165  O          8.8650   36.1180   34.3610 O.2   211  GLY211     -0.2714
    166  N         10.2610   37.6530   33.3870 N.am  212  CYS212     -0.1967
    167  CA        11.4600   36.8060   33.3920 C.3   212  CYS212      0.1712
    168  C         11.9840   36.5120   34.7820 C.2   212  CYS212      0.2296
    169  O         12.2420   37.4660   35.5230 O.2   212  CYS212     -0.2864
    170  CB        12.5550   37.3900   32.5000 C.3   212  CYS212      0.0983
    171  SG        13.6540   36.1370   31.7790 S.3   212  CYS212     -0.0798
    172  N          7.1160   29.4800   36.1760 N.3   218  PHE218     -0.1227
    173  CA         8.0610   28.7180   35.3550 C.3   218  PHE218      0.1736
    174  C          8.0270   29.2740   33.9170 C.2   218  PHE218      0.2596
    175  O          7.0940   29.9870   33.5510 O.2   218  PHE218     -0.2718
    176  CB         7.6620   27.2310   35.3210 C.3   218  PHE218      0.0547
    177  CG         7.8260   26.4970   36.6320 C.ar  218  PHE218     -0.0202
    178  CD1        9.0470   25.9330   36.9850 C.ar  218  PHE218     -0.0042
    179  CD2        6.7590   26.3720   37.5140 C.ar  218  PHE218     -0.0042
    180  CE1        9.2040   25.2700   38.2080 C.ar  218  PHE218     -0.0003
    181  CE2        6.9110   25.6910   38.7320 C.ar  218  PHE218     -0.0003
    182  CZ         8.1350   25.1550   39.0740 C.ar  218  PHE218     -0.0000
    183  N          9.0290   28.9250   33.1190 N.am  219  GLY219     -0.1942
    184  CA         9.0350   29.2600   31.6980 C.3   219  GLY219      0.2014
    185  C          8.1070   28.2910   30.9810 C.2   219  GLY219      0.2639
    186  O          7.9870   27.1340   31.4020 O.2   219  GLY219     -0.2714
    187  N          7.4020   28.7560   29.9280 N.am  220  VAL220     -0.1963
    188  CA         6.4760   27.9110   29.1520 C.3   220  VAL220      0.1727
    189  C          7.0430   27.7590   27.7220 C.2   220  VAL220      0.2616
    190  O          7.4290   28.7570   27.0960 O.2   220  VAL220     -0.2715
    191  CB         4.9870   28.3650   29.1730 C.3   220  VAL220      0.0290
    192  CG1        4.0750   27.2950   28.5510 C.3   220  VAL220      0.0023
    193  CG2        4.5180   28.6980   30.5960 C.3   220  VAL220      0.0023
    194  N          7.1040   26.4960   27.2270 N.am  221  TYR221     -0.1974
    195  CA         7.7430   26.1710   25.9410 C.3   221  TYR221      0.1639
    196  C          6.7730   25.4760   25.0090 C.2   221  TYR221      0.2290
    197  O          5.9640   24.6770   25.4720 O.2   221  TYR221     -0.2864
    198  CB         8.9780   25.2570   26.2020 C.3   221  TYR221      0.0560
    199  CG        10.0390   25.9460   27.0290 C.ar  221  TYR221     -0.0198
    200  CD1        9.9300   26.0240   28.4210 C.ar  221  TYR221     -0.0009
    201  CD2       11.1180   26.5810   26.4210 C.ar  221  TYR221     -0.0009
    202  CE1       10.8650   26.7220   29.1820 C.ar  221  TYR221      0.0417
    203  CE2       12.0600   27.2780   27.1710 C.ar  221  TYR221      0.0417
    204  CZ        11.9360   27.3400   28.5530 C.ar  221  TYR221      0.1957
    205  OH        12.8670   28.0370   29.2830 O.3   221  TYR221     -0.2866
@<TRIPOS>BOND
     1    42    41    2
     2    41    40    1
     3     8     6    1
     4    34    33    2
     5    40    39    1
     6    40    43    1
     7    33    39   am
     8    33    32    1
     9    31    32    1
    10    32    35    1
    11    28    27    2
    12     6     5    1
    13     6     7    1
    14     5     2    1
    15    27    26    1
    16    43    44    1
    17    37    36   ar
    18    29    26    1
    19    29    30    1
    20    35    36    1
    21     1     2    1
    22    26    25    1
    23     2     3    1
    24    44    45    1
    25    36    38   ar
    26    12    11    2
    27    25    17   am
    28    15    16    1
    29     9     3   am
    30     9    10    1
    31    13    10    1
    32    13    14    1
    33    17    18    2
    34    17    16    1
    35     3     4    2
    36    30    14    1
    37    11    10    1
    38    16    19    1
    39    45    46    1
    40    68    69    2
    41    68    67    1
    42    67    66    1
    43    67    70    1
    44    48    49    1
    45    72    71   ar
    46    46    47    1
    47    19    20    1
    48   119   118    2
    49    71    70    1
    50    71    73   ar
    51    20    22   ar
    52    20    21   ar
    53    49    50    1
    54    57    56    1
    55   118   117    1
    56    22    24   ar
    57    21    23   ar
    58    52    50   am
    59    52    53    1
    60    50    51    2
    61    58    56    1
    62    55    54    2
    63    24    23   ar
    64   120   117    1
    65   120   121    1
    66    56    53    1
    67   117   116    1
    68    53    54    1
    69    54    59   am
    70   125   124    2
    71    62    61    2
    72    61    60    1
    73   122   123    1
    74    59    60    1
    75    60    63    1
    76   134   133    1
    77   124   123    1
    78   124   129   am
    79   110   109    2
    80   133   130    1
    81   123   126    1
    82   130   129    1
    83   130   131    1
    84   126   128    1
    85   126   127    1
    86   132   131    2
    87   109   108    1
    88   131   135   am
    89   196   197    2
    90   196   195    1
    91    63    64    1
    92    63    65    1
    93   195   198    1
    94   195   194    1
    95   108   111    1
    96   108   107    1
    97   111   112    1
    98   198   199    1
    99   112   113    1
   100   135   136    1
   101   141   143   ar
   102   141   140   ar
   103   104   103    2
   104   201   199   ar
   105   201   203   ar
   106   113   114    1
   107   114   115    1
   108   139   140    1
   109   139   136    1
   110   143   144   ar
   111   199   200   ar
   112   190   189    2
   113   140   142   ar
   114   136   137    1
   115   203   204   ar
   116   107   103   am
   117   194   189   am
   118   103   102    1
   119   189   188    1
   120   144   142   ar
   121   144   146   ar
   122   142   145   ar
   123    99   100    1
   124    99    96    1
   125   200   202   ar
   126   192   191    1
   127   204   202   ar
   128   204   205    1
   129   137   138    2
   130   137   149   am
   131   102   101    1
   132   102   105    1
   133   101    97   am
   134   105   106    1
   135   146   148   ar
   136   188   191    1
   137   188   187    1
   138   191   193    1
   139    84    85    1
   140    84    81    1
   141   149   150    1
   142   145   147   ar
   143    96    97    1
   144    96    95    1
   145    85    86    1
   146    97    98    2
   147   187   185   am
   148   148   147   ar
   149   106   171    1
   150    81    82    1
   151    81    80    1
   152   152   151    2
   153    95    89   am
   154   150   151    1
   155    86    80    1
   156   185   186    2
   157   185   184    1
   158    82    83    2
   159   151   153   am
   160    80    76   am
   161   184   183    1
   162    90    89    2
   163   171   170    1
   164    89    88    1
   165    93    92   ar
   166   161   159   am
   167   170   167    1
   168   153   154    1
   169    76    77    2
   170    76    75    1
   171    92    94   ar
   172    92    91    1
   173   183   174   am
   174    88    91    1
   175    88    87    1
   176   162   163    1
   177   162   155   am
   178   166   167    1
   179   166   164   am
   180   167   168    1
   181   154   155    1
   182   154   157    1
   183   175   174    2
   184   159   158    1
   185   159   160    2
   186   163   164    1
   187    75    74    1
   188    75    78    1
   189   164   165    2
   190   174   173    1
   191   158   157    1
   192   155   156    2
   193    79    78    1
   194   168   169    2
   195   176   173    1
   196   176   177    1
   197   173   172    1
   198   177   178   ar
   199   177   179   ar
   200   178   180   ar
   201   179   181   ar
   202   180   182   ar
   203   181   182   ar
