@<TRIPOS>MOLECULE
tmp/5tqhC00.pdb
 197 189 0 0 0
SMALL
GASTEIGER

@<TRIPOS>ATOM
      1  N         34.7300   15.9110   48.9770 N.3   107  ARG107     -0.1231
      2  CA        33.6060   16.8280   49.0530 C.3   107  ARG107      0.1694
      3  C         32.3090   16.0780   48.8150 C.2   107  ARG107      0.2592
      4  O         32.2660   15.1570   47.9920 O.2   107  ARG107     -0.2718
      5  CB        33.7690   17.9740   48.0360 C.3   107  ARG107      0.0321
      6  CG        34.6400   19.1120   48.5440 C.3   107  ARG107      0.0489
      7  CD        34.6430   20.2540   47.5480 C.3   107  ARG107      0.2205
      8  NE        35.3660   21.4330   48.0340 N.pl3 107  ARG107     -0.0865
      9  CZ        36.6630   21.6560   47.8340 C.cat 107  ARG107      0.5346
     10  NH1       37.4040   20.7700   47.1820 N.pl3 107  ARG107      0.1354
     11  NH2       37.2300   22.7610   48.2970 N.pl3 107  ARG107      0.1354
     12  N         31.2460   16.4940   49.5060 N.am  108  GLU108     -0.1966
     13  CA        29.9300   15.8780   49.3560 C.3   108  GLU108      0.1733
     14  C         28.8160   16.8530   49.6860 C.2   108  GLU108      0.2616
     15  O         28.7900   17.4110   50.7760 O.2   108  GLU108     -0.2715
     16  CB        29.8080   14.5920   50.2200 C.3   108  GLU108      0.0429
     17  CG        28.4830   13.8580   50.0790 C.3   108  GLU108      0.1163
     18  CD        28.2730   12.6700   51.0070 C.2   108  GLU108      0.3649
     19  OE1       27.2170   12.0110   50.8810 O.co2 108  GLU108     -0.2457
     20  OE2       29.1620   12.3830   51.8420 O.co2 108  GLU108     -0.2457
     21  N         27.8590   17.0030   48.7740 N.am  109  ALA109     -0.1977
     22  CA        26.7160   17.8770   49.0320 C.3   109  ALA109      0.1597
     23  C         25.5610   17.1060   49.6920 C.2   109  ALA109      0.2287
     24  O         25.3350   15.9270   49.3960 O.2   109  ALA109     -0.2864
     25  CB        26.2500   18.5240   47.7440 C.3   109  ALA109      0.0319
     26  N         21.7930   16.2930   50.0740 N.3   111  ILE111     -0.1245
     27  CA        20.6010   16.2210   49.2320 C.3   111  ILE111      0.1561
     28  C         19.3130   16.1850   50.0540 C.2   111  ILE111      0.2260
     29  O         19.1920   15.3740   50.9780 O.2   111  ILE111     -0.2867
     30  CB        20.6950   15.0310   48.2150 C.3   111  ILE111      0.0252
     31  CG1       21.7520   15.3280   47.1320 C.3   111  ILE111      0.0019
     32  CG2       19.3240   14.6880   47.5690 C.3   111  ILE111      0.0019
     33  CD1       21.8330   14.2890   46.0040 C.3   111  ILE111      0.0001
     34  N         18.3740   19.8070   42.4740 N.3   117  ARG117     -0.1231
     35  CA        19.7670   19.5190   42.1770 C.3   117  ARG117      0.1694
     36  C         20.0280   20.0820   40.7860 C.2   117  ARG117      0.2591
     37  O         19.1010   20.1210   39.9750 O.2   117  ARG117     -0.2718
     38  CB        20.0290   18.0020   42.1730 C.3   117  ARG117      0.0321
     39  CG        20.2900   17.4010   43.5600 C.3   117  ARG117      0.0489
     40  CD        19.0160   17.1320   44.3590 C.3   117  ARG117      0.2205
     41  NE        18.1390   16.1610   43.7020 N.pl3 117  ARG117     -0.0865
     42  CZ        16.8130   16.1380   43.8220 C.cat 117  ARG117      0.5346
     43  NH1       16.1000   15.2170   43.1860 N.pl3 117  ARG117      0.1354
     44  NH2       16.1850   17.0500   44.5660 N.pl3 117  ARG117      0.1354
     45  N         21.2790   20.4920   40.5100 N.am  118  LEU118     -0.1980
     46  CA        21.7040   21.0150   39.2080 C.3   118  LEU118      0.1596
     47  C         21.3870   20.0190   38.0990 C.2   118  LEU118      0.2287
     48  O         20.8600   20.4000   37.0590 O.2   118  LEU118     -0.2864
     49  CB        23.1880   21.4010   39.2220 C.3   118  LEU118      0.0297
     50  CG        23.6890   22.1260   37.9640 C.3   118  LEU118      0.0022
     51  CD1       23.1050   23.5220   37.8600 C.3   118  LEU118      0.0001
     52  CD2       25.1790   22.1570   37.9420 C.3   118  LEU118      0.0001
     53  N         20.1230   13.4010   39.8850 N.3   122  TRP122     -0.1241
     54  CA        20.9230   13.1180   41.0750 C.3   122  TRP122      0.1605
     55  C         20.0630   12.9920   42.3350 C.2   122  TRP122      0.2264
     56  O         19.7210   13.9970   42.9640 O.2   122  TRP122     -0.2867
     57  CB        22.0440   14.1590   41.2790 C.3   122  TRP122      0.0550
     58  CG        23.0760   14.1930   40.1820 C.ar  122  TRP122      0.0003
     59  CD1       23.3680   13.1970   39.2910 C.ar  122  TRP122      0.0946
     60  CD2       24.0040   15.2530   39.9170 C.ar  122  TRP122      0.0152
     61  NE1       24.3620   13.6000   38.4380 N.ar  122  TRP122     -0.2442
     62  CE2       24.7860   14.8530   38.8050 C.ar  122  TRP122      0.0810
     63  CE3       24.2000   16.5380   40.4610 C.ar  122  TRP122      0.0012
     64  CZ2       25.7870   15.6710   38.2590 C.ar  122  TRP122      0.0191
     65  CZ3       25.1900   17.3520   39.9190 C.ar  122  TRP122      0.0001
     66  CH2       25.9620   16.9220   38.8250 C.ar  122  TRP122      0.0015
     67  N         21.0810   10.6660   44.7950 N.3   124  LYS124     -0.1231
     68  CA        22.0670   10.3540   45.8220 C.3   124  LYS124      0.1678
     69  C         23.2610   11.2810   45.6380 C.2   124  LYS124      0.2434
     70  O         23.5640   11.6500   44.5030 O.2   124  LYS124     -0.2733
     71  CB        22.5040    8.8770   45.7440 C.3   124  LYS124      0.0284
     72  CG        21.3690    7.8880   45.9850 C.3   124  LYS124      0.0035
     73  CD        21.7730    6.4580   45.6390 C.3   124  LYS124      0.0206
     74  CE        20.5900    5.5130   45.5130 C.3   124  LYS124      0.1093
     75  NZ        19.8640    5.6730   44.2160 N.3   124  LYS124     -0.1314
     76  N         23.9250   11.6980   46.7380 N.am  125  PRO125     -0.2718
     77  CA        25.0930   12.5900   46.6000 C.3   125  PRO125      0.1535
     78  C         26.2590   11.9600   45.8460 C.2   125  PRO125      0.2598
     79  O         26.4340   10.7340   45.8860 O.2   125  PRO125     -0.2715
     80  CB        25.5110   12.8460   48.0500 C.3   125  PRO125      0.0310
     81  CG        24.3140   12.4820   48.8860 C.3   125  PRO125      0.0237
     82  CD        23.6630   11.3670   48.1570 C.3   125  PRO125      0.0939
     83  N         27.0450   12.8040   45.1490 N.am  126  ILE126     -0.1978
     84  CA        28.2720   12.4080   44.4500 C.3   126  ILE126      0.1596
     85  C         29.3950   12.8680   45.3580 C.2   126  ILE126      0.2287
     86  O         29.3590   14.0040   45.8460 O.2   126  ILE126     -0.2864
     87  CB        28.4020   13.0420   43.0300 C.3   126  ILE126      0.0276
     88  CG1       27.2510   12.5910   42.1000 C.3   126  ILE126      0.0022
     89  CG2       29.8020   12.7410   42.4150 C.3   126  ILE126      0.0022
     90  CD1       27.2600   13.1570   40.6910 C.3   126  ILE126      0.0001
     91  N         33.4180   13.5880   45.7020 N.3   128  ILE128     -0.1245
     92  CA        34.5740   13.8820   44.8650 C.3   128  ILE128      0.1561
     93  C         35.8280   13.9730   45.6970 C.2   128  ILE128      0.2260
     94  O         35.8970   14.7670   46.6280 O.2   128  ILE128     -0.2867
     95  CB        34.3620   15.1330   43.9500 C.3   128  ILE128      0.0252
     96  CG1       33.0270   15.0120   43.1760 C.3   128  ILE128      0.0019
     97  CG2       35.5920   15.3490   43.0050 C.3   128  ILE128      0.0019
     98  CD1       32.8300   15.8670   42.0140 C.3   128  ILE128      0.0001
     99  N         32.6640   12.7590   32.7830 N.3   249  VAL249     -0.1245
    100  CA        31.7740   13.9240   32.8930 C.3   249  VAL249      0.1561
    101  C         30.3730   13.5040   32.4720 C.2   249  VAL249      0.2260
    102  O         29.4450   13.6350   33.2700 O.2   249  VAL249     -0.2867
    103  CB        32.2870   15.1770   32.1260 C.3   249  VAL249      0.0252
    104  CG1       31.1890   16.2270   31.9540 C.3   249  VAL249      0.0019
    105  CG2       33.5080   15.7780   32.8180 C.3   249  VAL249      0.0019
    106  N         28.7430   10.7910   34.8210 N.3   252  ALA252     -0.1231
    107  CA        28.3070   11.4190   36.0740 C.3   252  ALA252      0.1694
    108  C         26.9370   12.1080   35.9440 C.2   252  ALA252      0.2591
    109  O         26.0770   11.9890   36.8300 O.2   252  ALA252     -0.2718
    110  CB        29.3530   12.4230   36.5620 C.3   252  ALA252      0.0304
    111  N         26.7530   12.8320   34.8520 N.am  253  MET253     -0.1979
    112  CA        25.5270   13.5540   34.5600 C.3   253  MET253      0.1605
    113  C         24.3480   12.6710   34.1790 C.2   253  MET253      0.2287
    114  O         23.2100   13.1320   34.2790 O.2   253  MET253     -0.2864
    115  CB        25.7850   14.5830   33.4730 C.3   253  MET253      0.0413
    116  CG        26.5330   15.7750   33.9830 C.3   253  MET253      0.0598
    117  SD        26.8890   16.8490   32.6220 S.3   253  MET253     -0.1393
    118  CE        25.2590   17.7650   32.5060 C.3   253  MET253      0.0692
    119  N         34.1680    9.6970   43.2330 N.3   261  TRP261     -0.1241
    120  CA        34.8740   10.1550   42.0490 C.3   261  TRP261      0.1605
    121  C         36.2170   10.7280   42.4470 C.2   261  TRP261      0.2264
    122  O         36.2890   11.8390   42.9610 O.2   261  TRP261     -0.2867
    123  CB        34.0110   11.1620   41.2630 C.3   261  TRP261      0.0550
    124  CG        34.5640   11.6880   39.9630 C.ar  261  TRP261      0.0003
    125  CD1       35.7490   11.3620   39.3660 C.ar  261  TRP261      0.0946
    126  CD2       33.9340   12.6480   39.1050 C.ar  261  TRP261      0.0152
    127  NE1       35.8980   12.0650   38.1930 N.ar  261  TRP261     -0.2442
    128  CE2       34.8090   12.8790   38.0190 C.ar  261  TRP261      0.0810
    129  CE3       32.7170   13.3550   39.1570 C.ar  261  TRP261      0.0012
    130  CZ2       34.4990   13.7730   36.9840 C.ar  261  TRP261      0.0191
    131  CZ3       32.3990   14.2170   38.1170 C.ar  261  TRP261      0.0001
    132  CH2       33.2790   14.4110   37.0420 C.ar  261  TRP261      0.0015
    133  N         41.8520   18.2630   39.4010 N.3   266  TYR266     -0.1241
    134  CA        40.6570   18.8300   40.0060 C.3   266  TYR266      0.1605
    135  C         40.9100   20.1000   40.7700 C.2   266  TYR266      0.2264
    136  O         41.8060   20.1650   41.6160 O.2   266  TYR266     -0.2867
    137  CB        39.9320   17.8020   40.8980 C.3   266  TYR266      0.0534
    138  CG        38.4730   18.1290   41.1580 C.ar  266  TYR266     -0.0201
    139  CD1       37.5240   18.0360   40.1400 C.ar  266  TYR266     -0.0009
    140  CD2       38.0370   18.5160   42.4220 C.ar  266  TYR266     -0.0009
    141  CE1       36.1790   18.3120   40.3750 C.ar  266  TYR266      0.0417
    142  CE2       36.6940   18.8110   42.6660 C.ar  266  TYR266      0.0417
    143  CZ        35.7690   18.7160   41.6350 C.ar  266  TYR266      0.1957
    144  OH        34.4390   19.0010   41.8480 O.3   266  TYR266     -0.2866
    145  N         35.2420   23.6860   40.4440 N.3   271  GLN271     -0.1231
    146  CA        34.3340   22.6410   39.9560 C.3   271  GLN271      0.1698
    147  C         33.2520   22.2140   40.9610 C.2   271  GLN271      0.2592
    148  O         32.1960   21.7070   40.5510 O.2   271  GLN271     -0.2718
    149  CB        35.1310   21.4420   39.4460 C.3   271  GLN271      0.0381
    150  CG        35.8640   21.7440   38.1420 C.3   271  GLN271      0.0905
    151  CD        36.8130   20.6410   37.7470 C.2   271  GLN271      0.2608
    152  OE1       37.9950   20.6360   38.1240 O.2   271  GLN271     -0.2717
    153  NE2       36.3220   19.6970   36.9550 N.am  271  GLN271     -0.0878
    154  N         33.4960   22.4530   42.2640 N.am  272  SER272     -0.1952
    155  CA        32.5190   22.1560   43.3030 C.3   272  SER272      0.1924
    156  C         32.0630   23.4160   43.9980 C.2   272  SER272      0.2314
    157  O         30.8910   23.7600   43.8770 O.2   272  SER272     -0.2863
    158  CB        33.0610   21.1460   44.3100 C.3   272  SER272      0.2116
    159  OG        32.7400   19.8240   43.9150 O.3   272  SER272     -0.2180
    160  N         30.7500   26.4100   41.6840 N.3   275  VAL275     -0.1231
    161  CA        29.4990   25.9510   41.0780 C.3   275  VAL275      0.1692
    162  C         28.4250   26.0040   42.1690 C.2   275  VAL275      0.2591
    163  O         27.3760   26.6080   41.9460 O.2   275  VAL275     -0.2718
    164  CB        29.6260   24.5580   40.4050 C.3   275  VAL275      0.0266
    165  CG1       28.2700   24.0770   39.8620 C.3   275  VAL275      0.0020
    166  CG2       30.6760   24.5830   39.2960 C.3   275  VAL275      0.0020
    167  N         28.7410   25.4810   43.3830 N.am  276  ALA276     -0.1980
    168  CA        27.8340   25.5230   44.5470 C.3   276  ALA276      0.1597
    169  C         27.4690   26.9590   44.9110 C.2   276  ALA276      0.2287
    170  O         26.2920   27.2420   45.1070 O.2   276  ALA276     -0.2864
    171  CB        28.4680   24.8320   45.7460 C.3   276  ALA276      0.0319
    172  N         25.1830   28.3790   42.2440 N.3   279  TYR279     -0.1241
    173  CA        23.9120   27.6740   42.3790 C.3   279  TYR279      0.1605
    174  C         23.1750   28.0890   43.6710 C.2   279  TYR279      0.2264
    175  O         21.9590   27.9740   43.7340 O.2   279  TYR279     -0.2867
    176  CB        24.1500   26.1610   42.3560 C.3   279  TYR279      0.0534
    177  CG        22.8920   25.3510   42.1180 C.ar  279  TYR279     -0.0201
    178  CD1       22.1840   25.4600   40.9240 C.ar  279  TYR279     -0.0009
    179  CD2       22.4320   24.4440   43.0700 C.ar  279  TYR279     -0.0009
    180  CE1       21.0320   24.7130   40.6960 C.ar  279  TYR279      0.0417
    181  CE2       21.2770   23.6920   42.8530 C.ar  279  TYR279      0.0417
    182  CZ        20.5790   23.8340   41.6660 C.ar  279  TYR279      0.1957
    183  OH        19.4460   23.1000   41.4310 O.3   279  TYR279     -0.2866
    184  N         24.0950   26.8500   46.8400 N.3   281  SER281     -0.1217
    185  CA        24.0580   25.6480   47.6740 C.3   281  SER281      0.1889
    186  C         25.3160   25.3890   48.5420 C.2   281  SER281      0.2288
    187  O         25.4890   24.2590   49.0250 O.2   281  SER281     -0.2866
    188  CB        23.7610   24.4290   46.8020 C.3   281  SER281      0.2089
    189  OG        24.8690   24.0900   45.9820 O.3   281  SER281     -0.2183
    190  N         27.2210   21.9470   51.3230 N.3   285  MET285     -0.1245
    191  CA        28.4340   21.2490   50.8700 C.3   285  MET285      0.1570
    192  C         29.3770   20.8820   52.0450 C.2   285  MET285      0.2261
    193  O         29.7560   21.7520   52.8240 O.2   285  MET285     -0.2867
    194  CB        29.1540   22.1430   49.8410 C.3   285  MET285      0.0387
    195  CG        30.3520   21.5000   49.1580 C.3   285  MET285      0.0595
    196  SD        29.9580   20.2740   47.9020 S.3   285  MET285     -0.1393
    197  CE        29.0410   21.2380   46.7720 C.3   285  MET285      0.0692
@<TRIPOS>BOND
     1   104   103    1
     2   103   105    1
     3   103   100    1
     4   101   100    1
     5   101   102    2
     6   118   117    1
     7   117   116    1
     8    99   100    1
     9   115   116    1
    10   115   112    1
    11   113   114    2
    12   113   112    1
    13   112   111    1
    14   106   107    1
    15   111   108   am
    16   108   107    1
    17   108   109    2
    18   107   110    1
    19   153   151   am
    20   130   132   ar
    21   130   128   ar
    22   132   131   ar
    23    48    47    2
    24   151   152    2
    25   151   150    1
    26    51    50    1
    27    52    50    1
    28    50    49    1
    29   128   127   ar
    30   128   126   ar
    31    47    46    1
    32   131   129   ar
    33   150   149    1
    34   127   125   ar
    35    64    62   ar
    36    64    66   ar
    37    61    62   ar
    38    61    59   ar
    39    62    60   ar
    40    66    65   ar
    41   126   129   ar
    42   126   124   ar
    43    46    49    1
    44    46    45    1
    45    59    58   ar
    46   166   164    1
    47   125   124   ar
    48   133   134    1
    49   149   146    1
    50   165   164    1
    51    53    54    1
    52    60    58   ar
    53    60    63   ar
    54    65    63   ar
    55   146   145    1
    56   146   147    1
    57   124   123    1
    58    37    36    2
    59   134   135    1
    60   134   137    1
    61   139   141   ar
    62   139   138   ar
    63    58    57    1
    64   141   143   ar
    65   164   161    1
    66    45    36   am
    67   148   147    2
    68    90    88    1
    69   180   178   ar
    70   180   182   ar
    71   135   136    2
    72    36    35    1
    73   137   138    1
    74   178   177   ar
    75   147   154   am
    76    54    57    1
    77    54    55    1
    78   161   160    1
    79   161   162    1
    80   138   140   ar
    81   123   120    1
    82   183   182    1
    83   143   144    1
    84   143   142   ar
    85   182   181   ar
    86   163   162    2
    87    98    96    1
    88   120   121    1
    89   120   119    1
    90    88    87    1
    91   177   176    1
    92   177   179   ar
    93   162   167   am
    94    38    35    1
    95    38    39    1
    96    35    34    1
    97   172   173    1
    98   154   155    1
    99    55    56    2
   100   176   173    1
   101   173   174    1
   102    89    87    1
   103   140   142   ar
   104   121   122    2
   105   181   179   ar
   106    97    95    1
   107    87    84    1
   108    96    95    1
   109    43    42    1
   110   155   156    1
   111   155   158    1
   112   167   168    1
   113    39    40    1
   114   174   175    2
   115    41    42    2
   116    41    40    1
   117    42    44    1
   118   157   156    2
   119   159   158    1
   120    95    92    1
   121    75    74    1
   122    84    83    1
   123    84    85    1
   124    70    69    2
   125   168   169    1
   126   168   171    1
   127    67    68    1
   128    92    93    1
   129    92    91    1
   130   169   170    2
   131    83    78   am
   132    85    86    2
   133    74    73    1
   134    69    68    1
   135    69    76   am
   136    73    72    1
   137    93    94    2
   138    71    68    1
   139    71    72    1
   140    78    79    2
   141    78    77    1
   142   189   188    1
   143    33    31    1
   144    77    76    1
   145    77    80    1
   146    76    82    1
   147   197   196    1
   148   188   185    1
   149   184   185    1
   150    31    30    1
   151    10     9    1
   152     7     8    1
   153     7     6    1
   154    32    30    1
   155   185   186    1
   156    25    22    1
   157     9     8    2
   158     9    11    1
   159   196   195    1
   160     4     3    2
   161     5     6    1
   162     5     2    1
   163    80    81    1
   164    82    81    1
   165    30    27    1
   166   186   187    2
   167    21    22    1
   168    21    14   am
   169     3     2    1
   170     3    12   am
   171     1     2    1
   172    22    23    1
   173   195   194    1
   174    27    28    1
   175    27    26    1
   176    13    12    1
   177    13    14    1
   178    13    16    1
   179    24    23    2
   180    14    15    2
   181   194   191    1
   182    28    29    2
   183    17    16    1
   184    17    18    1
   185   191   190    1
   186   191   192    1
   187    19    18   ar
   188    18    20   ar
   189   192   193    2
