@<TRIPOS>MOLECULE
tmp/5tqmB01.pdb
 118 112 0 0 0
SMALL
GASTEIGER

@<TRIPOS>ATOM
      1  N         66.7720   71.3280  -16.8430 N.3    83  VAL83      -0.1245
      2  CA        67.4560   70.9910  -15.5990 C.3    83  VAL83       0.1561
      3  C         67.7490   69.4940  -15.5840 C.2    83  VAL83       0.2260
      4  O         66.9590   68.6970  -15.0790 O.2    83  VAL83      -0.2867
      5  CB        66.6230   71.3840  -14.3560 C.3    83  VAL83       0.0252
      6  CG1       67.3930   71.0860  -13.0810 C.3    83  VAL83       0.0019
      7  CG2       66.2450   72.8590  -14.4070 C.3    83  VAL83       0.0019
      8  N         72.9360   79.8770  -12.5550 N.3   119  SER119     -0.1202
      9  CA        72.9590   79.0390  -11.3580 C.3   119  SER119      0.2020
     10  C         74.2990   79.1170  -10.6400 C.2   119  SER119      0.2619
     11  O         75.2660   79.6700  -11.1630 O.2   119  SER119     -0.2717
     12  CB        72.6550   77.5850  -11.7200 C.3   119  SER119      0.2103
     13  OG        73.0110   76.7120  -10.6650 O.3   119  SER119     -0.2182
     14  N         74.3470   78.5500   -9.4380 N.am  120  ILE120     -0.1965
     15  CA        75.5870   78.4560   -8.6770 C.3   120  ILE120      0.1727
     16  C         76.5020   77.4340   -9.3490 C.2   120  ILE120      0.2616
     17  O         77.7060   77.4000   -9.1000 O.2   120  ILE120     -0.2715
     18  CB        75.3160   78.0590   -7.2030 C.3   120  ILE120      0.0290
     19  CG1       76.5500   78.3060   -6.3250 C.3   120  ILE120      0.0022
     20  CG2       74.8640   76.6120   -7.1040 C.3   120  ILE120      0.0023
     21  CD1       76.7910   79.7600   -6.0180 C.3   120  ILE120      0.0001
     22  N         75.9170   76.6000  -10.2060 N.am  121  GLY121     -0.1955
     23  CA        76.6790   75.6380  -10.9810 C.3   121  GLY121      0.1869
     24  C         77.7120   76.3130  -11.8640 C.2   121  GLY121      0.2309
     25  O         78.6760   75.6830  -12.3000 O.2   121  GLY121     -0.2863
     26  N         80.5220   77.8590   -8.1170 N.3   124  THR124     -0.1203
     27  CA        81.2770   77.1530   -7.0820 C.3   124  THR124      0.1994
     28  C         81.9540   75.8690   -7.5590 C.2   124  THR124      0.2617
     29  O         82.6490   75.2130   -6.7840 O.2   124  THR124     -0.2717
     30  CB        80.3640   76.7940   -5.8930 C.3   124  THR124      0.1784
     31  OG1       79.2060   76.0900   -6.3610 O.3   124  THR124     -0.2211
     32  CG2       79.9280   78.0480   -5.1620 C.3   124  THR124      0.0376
     33  N         81.7650   75.5170   -8.8270 N.am  125  MET125     -0.1979
     34  CA        82.3190   74.2740   -9.3560 C.3   125  MET125      0.1605
     35  C         83.7550   74.4620   -9.8360 C.2   125  MET125      0.2287
     36  O         84.0140   74.5420  -11.0380 O.2   125  MET125     -0.2864
     37  CB        81.4520   73.7530  -10.5010 C.3   125  MET125      0.0413
     38  CG        80.0120   73.4850  -10.1020 C.3   125  MET125      0.0598
     39  SD        79.8410   72.1750   -8.8790 S.3   125  MET125     -0.1393
     40  CE        80.3040   70.7330   -9.8350 C.3   125  MET125      0.0692
     41  N         79.1250   66.7320  -14.8650 N.3   151  ASN151     -0.1240
     42  CA        78.2720   67.8080  -14.3720 C.3   151  ASN151      0.1653
     43  C         77.8240   68.6970  -15.5260 C.2   151  ASN151      0.2266
     44  O         78.3860   69.7690  -15.7610 O.2   151  ASN151     -0.2867
     45  CB        78.9990   68.6310  -13.3060 C.3   151  ASN151      0.1155
     46  CG        78.6390   68.2030  -11.8970 C.2   151  ASN151      0.2627
     47  OD1       79.3460   67.4110  -11.2740 O.2   151  ASN151     -0.2716
     48  ND2       77.5270   68.7230  -11.3910 N.am  151  ASN151     -0.0877
     49  N         74.6310   69.9170  -16.1120 N.3   153  TYR153     -0.1227
     50  CA        73.7310   70.9990  -15.7290 C.3   153  TYR153      0.1736
     51  C         74.5370   72.2380  -15.3610 C.2   153  TYR153      0.2595
     52  O         74.1580   73.3620  -15.6920 O.2   153  TYR153     -0.2718
     53  CB        72.8340   70.6000  -14.5580 C.3   153  TYR153      0.0548
     54  CG        72.0960   71.7820  -13.9730 C.ar  153  TYR153     -0.0200
     55  CD1       70.9810   72.3120  -14.6080 C.ar  153  TYR153     -0.0009
     56  CD2       72.5220   72.3770  -12.7940 C.ar  153  TYR153     -0.0009
     57  CE1       70.3070   73.4000  -14.0830 C.ar  153  TYR153      0.0417
     58  CE2       71.8550   73.4640  -12.2610 C.ar  153  TYR153      0.0417
     59  CZ        70.7470   73.9710  -12.9100 C.ar  153  TYR153      0.1957
     60  OH        70.0780   75.0520  -12.3850 O.3   153  TYR153     -0.2866
     61  N         75.6470   72.0260  -14.6640 N.am  154  CYS154     -0.1970
     62  CA        76.5270   73.1210  -14.2870 C.3   154  CYS154      0.1712
     63  C         77.2560   73.6420  -15.5130 C.2   154  CYS154      0.2296
     64  O         77.4910   74.8440  -15.6470 O.2   154  CYS154     -0.2864
     65  CB        77.5280   72.6700  -13.2220 C.3   154  CYS154      0.0983
     66  SG        76.7840   72.3660  -11.6140 S.3   154  CYS154     -0.0798
     67  N         70.8600   81.9820   -8.3030 N.3   180  PRO180     -0.2102
     68  CA        70.3400   81.2790   -7.1280 C.3   180  PRO180      0.1504
     69  C         71.0540   79.9520   -6.8890 C.2   180  PRO180      0.2576
     70  O         71.5050   79.3080   -7.8380 O.2   180  PRO180     -0.2718
     71  CB        68.8630   81.0590   -7.4720 C.3   180  PRO180      0.0282
     72  CG        68.8130   81.0810   -8.9500 C.3   180  PRO180      0.0208
     73  CD        69.8690   82.0430   -9.3900 C.3   180  PRO180      0.0893
     74  N         71.1610   79.5650   -5.6220 N.am  181  VAL181     -0.1966
     75  CA        71.7310   78.2770   -5.2490 C.3   181  VAL181      0.1727
     76  C         70.6020   77.2540   -5.2410 C.2   181  VAL181      0.2616
     77  O         69.5790   77.4720   -5.8910 O.2   181  VAL181     -0.2715
     78  CB        72.4350   78.3510   -3.8810 C.3   181  VAL181      0.0290
     79  CG1       73.5460   79.3870   -3.9340 C.3   181  VAL181      0.0023
     80  CG2       71.4420   78.6860   -2.7690 C.3   181  VAL181      0.0023
     81  N         70.7700   76.1430   -4.5300 N.am  182  LEU182     -0.1977
     82  CA        69.6900   75.1680   -4.4400 C.3   182  LEU182      0.1596
     83  C         68.4820   75.8240   -3.7830 C.2   182  LEU182      0.2287
     84  O         68.4860   76.1050   -2.5860 O.2   182  LEU182     -0.2864
     85  CB        70.1210   73.9210   -3.6660 C.3   182  LEU182      0.0297
     86  CG        69.2250   72.6960   -3.8910 C.3   182  LEU182      0.0022
     87  CD1       69.9900   71.4110   -3.6390 C.3   182  LEU182      0.0001
     88  CD2       67.9770   72.7370   -3.0160 C.3   182  LEU182      0.0001
     89  N         63.1990   69.6400   -9.5030 N.3   194  ALA194     -0.1231
     90  CA        64.4800   68.9920   -9.2230 C.3   194  ALA194      0.1694
     91  C         65.0620   69.3300   -7.8470 C.2   194  ALA194      0.2592
     92  O         65.6180   68.4600   -7.1780 O.2   194  ALA194     -0.2718
     93  CB        65.4840   69.3560  -10.3070 C.3   194  ALA194      0.0304
     94  N         64.9560   70.5900   -7.4370 N.am  195  SER195     -0.1952
     95  CA        65.5470   71.0280   -6.1740 C.3   195  SER195      0.1924
     96  C         64.7680   70.4820   -4.9800 C.2   195  SER195      0.2314
     97  O         65.3520   70.0880   -3.9710 O.2   195  SER195     -0.2863
     98  CB        65.6080   72.5570   -6.1100 C.3   195  SER195      0.2116
     99  OG        64.3120   73.1300   -6.1540 O.3   195  SER195     -0.2180
    100  N         65.5570   66.9580   -3.9990 N.3   198  HIS198     -0.1241
    101  CA        66.7270   66.7650   -3.1500 C.3   198  HIS198      0.1621
    102  C         66.3450   66.8800   -1.6760 C.2   198  HIS198      0.2264
    103  O         67.0100   66.3180   -0.8040 O.2   198  HIS198     -0.2867
    104  CB        67.8210   67.7790   -3.4940 C.3   198  HIS198      0.0745
    105  CG        68.5990   67.4340   -4.7250 C.ar  198  HIS198      0.0817
    106  ND1       69.4390   66.3430   -4.7910 N.ar  198  HIS198     -0.2268
    107  CD2       68.6680   68.0350   -5.9370 C.ar  198  HIS198      0.1154
    108  CE1       69.9900   66.2860   -5.9900 C.ar  198  HIS198      0.1986
    109  NE2       69.5390   67.3010   -6.7050 N.ar  198  HIS198     -0.2212
    110  N         76.4750   72.5070    0.5640 N.3   215  GLN215     -0.1245
    111  CA        75.7910   73.2590   -0.4820 C.3   215  GLN215      0.1566
    112  C         75.0600   74.4480    0.1240 C.2   215  GLN215      0.2260
    113  O         74.7310   74.4490    1.3100 O.2   215  GLN215     -0.2867
    114  CB        74.8070   72.3710   -1.2480 C.3   215  GLN215      0.0367
    115  CG        75.0570   72.3160   -2.7530 C.3   215  GLN215      0.0905
    116  CD        74.9000   73.6670   -3.4370 C.2   215  GLN215      0.2608
    117  OE1       75.7820   74.5240   -3.3600 O.2   215  GLN215     -0.2717
    118  NE2       73.7750   73.8580   -4.1160 N.am  215  GLN215     -0.0878
@<TRIPOS>BOND
     1     1     2    1
     2    49    50    1
     3    44    43    2
     4    50    51    1
     5    50    53    1
     6    52    51    2
     7    64    63    2
     8     2     3    1
     9     2     5    1
    10     3     4    2
    11    43    42    1
    12    63    62    1
    13    51    61   am
    14    41    42    1
    15    61    62    1
    16    55    57   ar
    17    55    54   ar
    18    53    54    1
    19     7     5    1
    20    42    45    1
    21     5     6    1
    22    62    65    1
    23    57    59   ar
    24    54    56   ar
    25    45    46    1
    26    65    66    1
    27    59    60    1
    28    59    58   ar
    29    56    58   ar
    30     8     9    1
    31    25    24    2
    32    46    48   am
    33    46    47    2
    34    24    23    1
    35    12     9    1
    36    12    13    1
    37     9    10    1
    38    11    10    2
    39    36    35    2
    40    23    22    1
    41    10    14   am
    42    37    38    1
    43    37    34    1
    44    93    90    1
    45    22    16   am
    46    38    39    1
    47    35    34    1
    48    40    39    1
    49    89    90    1
    50    14    15    1
    51    73    72    1
    52    73    67    1
    53    34    33    1
    54    16    17    2
    55    16    15    1
    56    90    91    1
    57    72    71    1
    58    33    28   am
    59    15    18    1
    60    67    68    1
    61    26    27    1
    62    91    94   am
    63    91    92    2
    64    70    69    2
    65    28    27    1
    66    28    29    2
    67    71    68    1
    68    94    95    1
    69    18    20    1
    70    18    19    1
    71    68    69    1
    72    27    30    1
    73    69    74   am
    74   109   108   ar
    75   109   107   ar
    76    31    30    1
    77    19    21    1
    78    95    98    1
    79    95    96    1
    80    99    98    1
    81   108   106   ar
    82   107   105   ar
    83    30    32    1
    84    77    76    2
    85    74    75    1
    86    75    76    1
    87    75    78    1
    88    76    81   am
    89    96    97    2
    90   106   105   ar
    91   105   104    1
    92    81    82    1
    93    82    83    1
    94    82    85    1
    95   118   116   am
    96   100   101    1
    97    79    78    1
    98    86    85    1
    99    86    87    1
   100    86    88    1
   101    78    80    1
   102    83    84    2
   103   104   101    1
   104   116   117    2
   105   116   115    1
   106   101   102    1
   107   115   114    1
   108   102   103    2
   109   114   111    1
   110   111   112    1
   111   111   110    1
   112   112   113    2
