@<TRIPOS>MOLECULE
tmp/5tqsB00.pdb
 136 131 0 0 0
SMALL
GASTEIGER

@<TRIPOS>ATOM
      1  N        -11.6400    8.8480  -64.5530 N.3    17  ARG17      -0.1245
      2  CA       -11.5070    7.4850  -65.0560 C.3    17  ARG17       0.1563
      3  C        -12.0150    7.3670  -66.4880 C.2    17  ARG17       0.2260
      4  O        -11.3460    6.7910  -67.3540 O.2    17  ARG17      -0.2867
      5  CB       -12.2670    6.5340  -64.1360 C.3    17  ARG17       0.0307
      6  CG       -12.1620    5.0780  -64.4940 C.3    17  ARG17       0.0489
      7  CD       -13.1510    4.2910  -63.6630 C.3    17  ARG17       0.2205
      8  NE       -13.1750    2.8880  -64.0400 N.pl3  17  ARG17      -0.0865
      9  CZ       -12.4910    1.9320  -63.4220 C.cat  17  ARG17       0.5346
     10  NH1      -11.7030    2.2180  -62.3830 N.pl3  17  ARG17       0.1354
     11  NH2      -12.6120    0.6800  -63.8390 N.pl3  17  ARG17       0.1354
     12  N         -3.1170    9.5590  -63.1690 N.3    36  ARG36      -0.1245
     13  CA        -4.1170   10.5770  -62.8790 C.3    36  ARG36       0.1563
     14  C         -4.3560   10.6720  -61.3840 C.2    36  ARG36       0.2260
     15  O         -4.2740    9.6840  -60.6590 O.2    36  ARG36      -0.2867
     16  CB        -5.4220   10.2770  -63.6270 C.3    36  ARG36       0.0307
     17  CG        -6.1520    9.0010  -63.2140 C.3    36  ARG36       0.0489
     18  CD        -7.2360    8.6340  -64.1860 C.3    36  ARG36       0.2205
     19  NE        -7.6340    7.2210  -64.0320 N.pl3  36  ARG36      -0.0865
     20  CZ        -8.4450    6.7620  -63.0800 C.cat  36  ARG36       0.5346
     21  NH1       -8.9690    7.5910  -62.1830 N.pl3  36  ARG36       0.1354
     22  NH2       -8.7230    5.4680  -63.0090 N.pl3  36  ARG36       0.1354
     23  N         -6.6360   10.8110  -58.2650 N.3    38  ARG38      -0.1231
     24  CA        -7.9670   10.2940  -57.9910 C.3    38  ARG38       0.1694
     25  C         -8.7300   11.2460  -57.0690 C.2    38  ARG38       0.2592
     26  O         -8.1560   12.1240  -56.4160 O.2    38  ARG38      -0.2718
     27  CB        -7.9000    8.9110  -57.3630 C.3    38  ARG38       0.0321
     28  CG        -7.3670    7.8590  -58.2930 C.3    38  ARG38       0.0489
     29  CD        -7.3300    6.5200  -57.6310 C.3    38  ARG38       0.2205
     30  NE        -8.6830    6.0490  -57.3060 N.pl3  38  ARG38      -0.0865
     31  CZ        -9.0630    5.5570  -56.1260 C.cat  38  ARG38       0.5346
     32  NH1       -8.2150    5.4420  -55.1140 N.pl3  38  ARG38       0.1354
     33  NH2      -10.3150    5.1640  -55.9570 N.pl3  38  ARG38       0.1354
     34  N        -10.0480   11.0510  -57.0230 N.am   39  ASN39      -0.1974
     35  CA       -10.8780   11.8350  -56.1160 C.3    39  ASN39       0.1688
     36  C        -10.5870   11.5050  -54.6610 C.2    39  ASN39       0.2292
     37  O        -10.7710   12.3600  -53.7890 O.2    39  ASN39      -0.2864
     38  CB       -12.3460   11.6130  -56.4540 C.3    39  ASN39       0.1181
     39  CG       -12.7340   12.3000  -57.7340 C.2    39  ASN39       0.2629
     40  OD1      -12.4950   13.5000  -57.8930 O.2    39  ASN39      -0.2716
     41  ND2      -13.3010   11.5470  -58.6720 N.am   39  ASN39      -0.0877
     42  N         -4.1820    6.9470  -59.8200 N.3    45  ALA45      -0.1245
     43  CA        -4.3890    5.7560  -60.6250 C.3    45  ALA45       0.1562
     44  C         -3.4130    5.7410  -61.7940 C.2    45  ALA45       0.2260
     45  O         -3.1730    6.7700  -62.4380 O.2    45  ALA45      -0.2867
     46  CB        -5.8090    5.6620  -61.1640 C.3    45  ALA45       0.0290
     47  N         -3.7400    2.0770  -67.9100 N.3    48  PHE48      -0.1241
     48  CA        -2.8390    1.5540  -68.9150 C.3    48  PHE48       0.1605
     49  C         -3.5130    0.4810  -69.7480 C.2    48  PHE48       0.2264
     50  O         -4.5470   -0.0850  -69.3790 O.2    48  PHE48      -0.2867
     51  CB        -1.5810    1.0100  -68.2510 C.3    48  PHE48       0.0534
     52  CG        -1.8290   -0.1270  -67.2970 C.ar   48  PHE48      -0.0203
     53  CD1       -1.7830   -1.4420  -67.7350 C.ar   48  PHE48      -0.0042
     54  CD2       -2.0530    0.1130  -65.9590 C.ar   48  PHE48      -0.0042
     55  CE1       -1.9880   -2.4910  -66.8500 C.ar   48  PHE48      -0.0003
     56  CE2       -2.2570   -0.9310  -65.0730 C.ar   48  PHE48      -0.0003
     57  CZ        -2.2210   -2.2320  -65.5230 C.ar   48  PHE48      -0.0000
     58  N         -6.8130   -1.1960  -67.9720 N.3    55  LYS55      -0.1231
     59  CA        -6.7720   -1.5190  -66.5570 C.3    55  LYS55       0.1693
     60  C         -6.3960   -0.2650  -65.7850 C.2    55  LYS55       0.2592
     61  O         -5.7420    0.6450  -66.3170 O.2    55  LYS55      -0.2718
     62  CB        -5.7870   -2.6660  -66.2930 C.3    55  LYS55       0.0285
     63  CG        -6.3210   -4.0050  -66.8040 C.3    55  LYS55       0.0035
     64  CD        -5.4440   -5.1770  -66.3990 C.3    55  LYS55       0.0206
     65  CE        -6.2850   -6.4530  -66.2780 C.3    55  LYS55       0.1093
     66  NZ        -7.0580   -6.7350  -67.5240 N.3    55  LYS55      -0.1314
     67  N         -6.8670   -0.2040  -64.5420 N.am   56  HIS56      -0.1962
     68  CA        -6.5460    0.8710  -63.6180 C.3    56  HIS56       0.1787
     69  C         -5.9470    0.2820  -62.3540 C.2    56  HIS56       0.2620
     70  O         -6.4390   -0.7250  -61.8410 O.2    56  HIS56      -0.2715
     71  CB        -7.7980    1.6950  -63.2800 C.3    56  HIS56       0.0785
     72  CG        -8.5390    2.1630  -64.4940 C.ar   56  HIS56       0.0821
     73  ND1       -8.2370    3.3420  -65.1410 N.ar   56  HIS56      -0.2267
     74  CD2       -9.5490    1.5960  -65.1940 C.ar   56  HIS56       0.1154
     75  CE1       -9.0370    3.4870  -66.1830 C.ar   56  HIS56       0.1986
     76  NE2       -9.8440    2.4410  -66.2370 N.ar   56  HIS56      -0.2212
     77  N         -4.8970    0.9300  -61.8560 N.am   57  CYS57      -0.1954
     78  CA        -4.1460    0.5150  -60.6750 C.3    57  CYS57       0.1843
     79  C         -4.0310    1.6790  -59.6960 C.2    57  CYS57       0.2625
     80  O         -3.5740    2.7620  -60.0710 O.2    57  CYS57      -0.2714
     81  CB        -2.7440    0.0290  -61.1100 C.3    57  CYS57       0.0997
     82  SG        -1.7470   -0.4940  -59.7890 S.3    57  CYS57      -0.0797
     83  N         -4.4190    1.4570  -58.4370 N.am   58  ARG58      -0.1977
     84  CA        -4.3160    2.4830  -57.4000 C.3    58  ARG58       0.1597
     85  C         -2.8900    2.6040  -56.8870 C.2    58  ARG58       0.2287
     86  O         -2.2040    1.5940  -56.6700 O.2    58  ARG58      -0.2864
     87  CB        -5.2430    2.1690  -56.2160 C.3    58  ARG58       0.0334
     88  CG        -6.7100    2.4700  -56.5230 C.3    58  ARG58       0.0492
     89  CD        -7.6820    2.2590  -55.3690 C.3    58  ARG58       0.2205
     90  NE        -8.0860    0.8720  -55.3020 N.pl3  58  ARG58      -0.0865
     91  CZ        -9.3170    0.4370  -55.0630 C.cat  58  ARG58       0.5346
     92  NH1      -10.3440    1.2710  -54.8760 N.pl3  58  ARG58       0.1354
     93  NH2       -9.5100   -0.8630  -55.0300 N.pl3  58  ARG58       0.1354
     94  N          2.4530    1.0010  -54.2190 N.3    68  LEU68      -0.1231
     95  CA         1.6970    0.3040  -55.2530 C.3    68  LEU68       0.1693
     96  C          1.6220   -1.1470  -54.7830 C.2    68  LEU68       0.2592
     97  O          2.6170   -1.8720  -54.8370 O.2    68  LEU68      -0.2718
     98  CB         2.3600    0.4510  -56.6120 C.3    68  LEU68       0.0284
     99  CG         1.9040   -0.4500  -57.7620 C.3    68  LEU68       0.0019
    100  CD1        0.4710   -0.7680  -57.6830 C.3    68  LEU68       0.0001
    101  CD2        2.1730    0.2430  -59.0860 C.3    68  LEU68       0.0001
    102  N          0.4530   -1.5520  -54.3030 N.am   69  GLY69      -0.1957
    103  CA         0.3430   -2.8190  -53.6030 C.3    69  GLY69       0.1869
    104  C          1.2440   -2.7860  -52.3830 C.2    69  GLY69       0.2309
    105  O          1.1120   -1.9180  -51.5120 O.2    69  GLY69      -0.2863
    106  N          5.0340   -4.1750  -65.0960 N.3    88  LEU88      -0.1231
    107  CA         3.9960   -3.8930  -64.1190 C.3    88  LEU88       0.1693
    108  C          2.9280   -4.9750  -64.1340 C.2    88  LEU88       0.2592
    109  O          2.5060   -5.4680  -63.0850 O.2    88  LEU88      -0.2718
    110  CB         3.3600   -2.5320  -64.4250 C.3    88  LEU88       0.0284
    111  CG         2.2040   -2.1240  -63.5290 C.3    88  LEU88       0.0019
    112  CD1        2.6800   -1.8310  -62.1150 C.3    88  LEU88       0.0001
    113  CD2        1.5220   -0.9200  -64.1050 C.3    88  LEU88       0.0001
    114  N          2.4760   -5.3280  -65.3260 N.am   89  TYR89      -0.1962
    115  CA         1.3440   -6.2200  -65.5250 C.3    89  TYR89       0.1771
    116  C          1.8470   -7.3440  -66.4100 C.2    89  TYR89       0.2619
    117  O          2.1740   -7.1150  -67.5770 O.2    89  TYR89      -0.2715
    118  CB         0.1520   -5.5020  -66.1660 C.3    89  TYR89       0.0574
    119  CG        -1.0060   -6.4320  -66.4410 C.ar   89  TYR89      -0.0198
    120  CD1       -1.9760   -6.6730  -65.4850 C.ar   89  TYR89      -0.0009
    121  CD2       -1.1070   -7.0870  -67.6510 C.ar   89  TYR89      -0.0009
    122  CE1       -3.0300   -7.5520  -65.7380 C.ar   89  TYR89       0.0417
    123  CE2       -2.1390   -7.9650  -67.9200 C.ar   89  TYR89       0.0417
    124  CZ        -3.1040   -8.1980  -66.9620 C.ar   89  TYR89       0.1957
    125  OH        -4.1400   -9.0710  -67.2400 O.3    89  TYR89      -0.2866
    126  N          1.9020   -8.5520  -65.8540 N.am   90  ARG90      -0.1977
    127  CA         2.5010   -9.6870  -66.5370 C.3    90  ARG90       0.1597
    128  C          3.8530   -9.2690  -67.0920 C.2    90  ARG90       0.2287
    129  O          4.7610   -8.9700  -66.3120 O.2    90  ARG90      -0.2864
    130  CB         1.5250  -10.2240  -67.5860 C.3    90  ARG90       0.0334
    131  CG         0.1500  -10.5350  -66.9710 C.3    90  ARG90       0.0492
    132  CD        -0.6940  -11.4260  -67.8620 C.3    90  ARG90       0.2205
    133  NE        -0.1320  -12.7760  -67.9340 N.pl3  90  ARG90      -0.0865
    134  CZ        -0.1560  -13.5420  -69.0130 C.cat  90  ARG90       0.5346
    135  NH1        0.3880  -14.7480  -68.9620 N.pl3  90  ARG90       0.1354
    136  NH2       -0.7140  -13.1120  -70.1430 N.pl3  90  ARG90       0.1354
@<TRIPOS>BOND
     1   136   134    1
     2    49    50    2
     3    49    48    1
     4   134   135    1
     5   134   133    2
     6    48    51    1
     7    48    47    1
     8    51    52    1
     9    58    59    1
    10   133   132    1
    11   123   121   ar
    12   123   124   ar
    13   132   131    1
    14    53    52   ar
    15    53    55   ar
    16   121   119   ar
    17   130   131    1
    18   130   127    1
    19   117   116    2
    20    66    65    1
    21     4     3    2
    22    52    54   ar
    23   125   124    1
    24   128   127    1
    25   128   129    2
    26   124   122   ar
    27    55    57   ar
    28    63    64    1
    29    63    62    1
    30    59    62    1
    31    59    60    1
    32   127   126    1
    33     3     2    1
    34   119   118    1
    35   119   120   ar
    36   116   126   am
    37   116   115    1
    38    64    65    1
    39    61    60    2
    40    76    75   ar
    41    76    74   ar
    42    75    73   ar
    43   118   115    1
    44    54    56   ar
    45    60    67   am
    46   122   120   ar
    47   115   114    1
    48    57    56   ar
    49   114   108   am
    50    74    72   ar
    51    73    72   ar
    52   106   107    1
    53     2     1    1
    54     2     5    1
    55    67    68    1
    56     6     5    1
    57     6     7    1
    58    72    71    1
    59   110   107    1
    60   110   111    1
    61    18    19    1
    62    18    17    1
    63   108   107    1
    64   108   109    2
    65   113   111    1
    66     8     7    1
    67     8     9    2
    68    19    20    2
    69    11     9    1
    70    16    17    1
    71    16    13    1
    72    68    71    1
    73    68    69    1
    74   111   112    1
    75     9    10    1
    76    12    13    1
    77    20    22    1
    78    20    21    1
    79    13    14    1
    80    45    44    2
    81    69    77   am
    82    69    70    2
    83    77    78    1
    84    44    43    1
    85    14    15    2
    86    46    43    1
    87    81    78    1
    88    81    82    1
    89    78    79    1
    90    43    42    1
    91    80    79    2
    92    79    83   am
    93   101    99    1
    94    41    39   am
    95    83    84    1
    96    28    29    1
    97    28    27    1
    98    23    24    1
    99    24    27    1
   100    24    25    1
   101    40    39    2
   102    99   100    1
   103    99    98    1
   104    39    38    1
   105    29    30    1
   106    84    85    1
   107    84    87    1
   108    30    31    2
   109    25    34   am
   110    25    26    2
   111    34    35    1
   112    85    86    2
   113    98    95    1
   114    88    87    1
   115    88    89    1
   116    38    35    1
   117    31    33    1
   118    31    32    1
   119    35    36    1
   120    89    90    1
   121    90    91    2
   122    95    96    1
   123    95    94    1
   124    91    93    1
   125    91    92    1
   126    97    96    2
   127    96   102   am
   128    36    37    2
   129   102   103    1
   130   103   104    1
   131   104   105    2
