@<TRIPOS>MOLECULE
tmp/5tqsA00.pdb
 136 131 0 0 0
SMALL
GASTEIGER

@<TRIPOS>ATOM
      1  N        -22.0910    3.1710  -46.2360 N.3    17  ARG17      -0.1245
      2  CA       -22.4630    4.5300  -45.8540 C.3    17  ARG17       0.1563
      3  C        -23.9570    4.6350  -45.5510 C.2    17  ARG17       0.2260
      4  O        -24.3600    5.2210  -44.5440 O.2    17  ARG17      -0.2867
      5  CB       -22.0580    5.4830  -46.9690 C.3    17  ARG17       0.0307
      6  CG       -22.2950    6.9520  -46.6670 C.3    17  ARG17       0.0489
      7  CD       -21.9240    7.7850  -47.9110 C.3    17  ARG17       0.2205
      8  NE       -22.1640    9.2190  -47.7350 N.pl3  17  ARG17      -0.0865
      9  CZ       -21.2270   10.1480  -47.5430 C.cat  17  ARG17       0.5346
     10  NH1      -19.9460    9.8310  -47.4770 N.pl3  17  ARG17       0.1354
     11  NH2      -21.5820   11.4190  -47.4040 N.pl3  17  ARG17       0.1354
     12  N        -16.5460    2.2940  -39.7990 N.3    36  ARG36      -0.1245
     13  CA       -16.8140    1.2660  -40.7910 C.3    36  ARG36       0.1563
     14  C        -15.6330    1.1790  -41.7410 C.2    36  ARG36       0.2260
     15  O        -15.0070    2.1870  -42.0620 O.2    36  ARG36      -0.2867
     16  CB       -18.1040    1.5610  -41.5590 C.3    36  ARG36       0.0307
     17  CG       -18.1030    2.8950  -42.2880 C.3    36  ARG36       0.0489
     18  CD       -19.4660    3.2310  -42.8630 C.3    36  ARG36       0.2205
     19  NE       -19.5280    4.6260  -43.2590 N.pl3  36  ARG36      -0.0865
     20  CZ       -19.0920    5.0920  -44.4280 C.cat  36  ARG36       0.5346
     21  NH1      -18.5760    4.2660  -45.3330 N.pl3  36  ARG36       0.1354
     22  NH2      -19.1680    6.3850  -44.6890 N.pl3  36  ARG36       0.1354
     23  N        -14.1070    1.0240  -45.2960 N.3    38  ARG38      -0.1231
     24  CA       -14.5650    1.5210  -46.5900 C.3    38  ARG38       0.1694
     25  C        -14.1750    0.5490  -47.7020 C.2    38  ARG38       0.2592
     26  O        -13.2810   -0.2820  -47.5490 O.2    38  ARG38      -0.2718
     27  CB       -13.9800    2.9100  -46.8870 C.3    38  ARG38       0.0321
     28  CG       -14.5100    4.0140  -45.9910 C.3    38  ARG38       0.0489
     29  CD       -13.8650    5.3680  -46.3000 C.3    38  ARG38       0.2205
     30  NE       -14.2230    5.8500  -47.6330 N.pl3  38  ARG38      -0.0865
     31  CZ       -13.3590    6.2420  -48.5750 C.cat  38  ARG38       0.5346
     32  NH1      -12.0520    6.2340  -48.3730 N.pl3  38  ARG38       0.1354
     33  NH2      -13.8190    6.6640  -49.7390 N.pl3  38  ARG38       0.1354
     34  N        -14.8840    0.6490  -48.8300 N.am   39  ASN39      -0.1974
     35  CA       -14.5340   -0.1700  -49.9830 C.3    39  ASN39       0.1688
     36  C        -13.1270    0.1560  -50.4660 C.2    39  ASN39       0.2292
     37  O        -12.3780   -0.7340  -50.8810 O.2    39  ASN39      -0.2864
     38  CB       -15.5520    0.0390  -51.0990 C.3    39  ASN39       0.1181
     39  CG       -15.4490   -1.0240  -52.1780 C.2    39  ASN39       0.2629
     40  OD1      -14.9740   -2.1290  -51.9230 O.2    39  ASN39      -0.2716
     41  ND2      -15.8890   -0.6950  -53.3870 N.am   39  ASN39      -0.0877
     42  N        -14.0540    4.8540  -42.4100 N.3    45  ALA45      -0.1245
     43  CA       -14.7960    6.0870  -42.1720 C.3    45  ALA45       0.1562
     44  C        -15.3440    6.0900  -40.7510 C.2    45  ALA45       0.2260
     45  O        -15.8130    5.0580  -40.2430 O.2    45  ALA45      -0.2867
     46  CB       -15.9380    6.2820  -43.1730 C.3    45  ALA45       0.0290
     47  N        -20.6950    9.9000  -37.8880 N.3    48  PHE48      -0.1241
     48  CA       -21.1040   10.4430  -36.6100 C.3    48  PHE48       0.1605
     49  C        -22.2420   11.4340  -36.7910 C.2    48  PHE48       0.2264
     50  O        -22.4940   11.9430  -37.8800 O.2    48  PHE48      -0.2867
     51  CB       -19.9440   11.1180  -35.8610 C.3    48  PHE48       0.0534
     52  CG       -19.2920   12.2500  -36.6290 C.ar   48  PHE48      -0.0203
     53  CD1      -19.7120   13.5630  -36.4560 C.ar   48  PHE48      -0.0042
     54  CD2      -18.2500   11.9980  -37.5080 C.ar   48  PHE48      -0.0042
     55  CE1      -19.1090   14.5960  -37.1380 C.ar   48  PHE48      -0.0003
     56  CE2      -17.6380   13.0300  -38.2100 C.ar   48  PHE48      -0.0003
     57  CZ       -18.0720   14.3280  -38.0290 C.ar   48  PHE48      -0.0000
     58  N        -22.4220   12.9930  -40.5370 N.3    55  LYS55      -0.1231
     59  CA       -21.2110   13.3300  -41.2660 C.3    55  LYS55       0.1693
     60  C        -20.3080   12.1110  -41.2990 C.2    55  LYS55       0.2592
     61  O        -20.4160   11.2120  -40.4560 O.2    55  LYS55      -0.2718
     62  CB       -20.4970   14.5180  -40.6360 C.3    55  LYS55       0.0285
     63  CG       -21.2490   15.8340  -40.8340 C.3    55  LYS55       0.0035
     64  CD       -20.4600   17.0590  -40.4020 C.3    55  LYS55       0.0206
     65  CE       -21.0300   18.3500  -41.0230 C.3    55  LYS55       0.1093
     66  NZ       -22.5280   18.4420  -40.9470 N.3    55  LYS55      -0.1314
     67  N        -19.4400   12.0800  -42.3090 N.am   56  HIS56      -0.1962
     68  CA       -18.5000   10.9840  -42.5210 C.3    56  HIS56       0.1787
     69  C        -17.1000   11.5450  -42.7030 C.2    56  HIS56       0.2620
     70  O        -16.8930   12.4560  -43.5190 O.2    56  HIS56      -0.2715
     71  CB       -18.8770   10.1390  -43.7380 C.3    56  HIS56       0.0785
     72  CG       -20.3010    9.6990  -43.7410 C.ar   56  HIS56       0.0821
     73  ND1      -20.7340    8.5960  -43.0370 N.ar   56  HIS56      -0.2267
     74  CD2      -21.3990   10.2280  -44.3290 C.ar   56  HIS56       0.1154
     75  CE1      -22.0390    8.4570  -43.2010 C.ar   56  HIS56       0.1986
     76  NE2      -22.4660    9.4320  -43.9850 N.ar   56  HIS56      -0.2212
     77  N        -16.1530   10.9850  -41.9420 N.am   57  CYS57      -0.1954
     78  CA       -14.7390   11.3550  -41.9440 C.3    57  CYS57       0.1843
     79  C        -13.8860   10.1700  -42.3910 C.2    57  CYS57       0.2625
     80  O        -14.0030    9.0740  -41.8330 O.2    57  CYS57      -0.2714
     81  CB       -14.3090   11.7970  -40.5290 C.3    57  CYS57       0.0997
     82  SG       -12.6950   12.4860  -40.4920 S.3    57  CYS57      -0.0797
     83  N        -13.0010   10.3990  -43.3650 N.am   58  ARG58      -0.1977
     84  CA       -12.0660    9.3700  -43.8220 C.3    58  ARG58       0.1597
     85  C        -10.9010    9.1890  -42.8580 C.2    58  ARG58       0.2287
     86  O        -10.3750   10.1560  -42.2950 O.2    58  ARG58      -0.2864
     87  CB       -11.4790    9.7390  -45.1820 C.3    58  ARG58       0.0334
     88  CG       -12.3750    9.5730  -46.3590 C.3    58  ARG58       0.0492
     89  CD       -11.4950    9.8060  -47.5890 C.3    58  ARG58       0.2205
     90  NE       -12.1880    9.7450  -48.8690 N.pl3  58  ARG58      -0.0865
     91  CZ       -12.5730   10.8070  -49.5820 C.cat  58  ARG58       0.5346
     92  NH1      -12.3570   12.0480  -49.1500 N.pl3  58  ARG58       0.1354
     93  NH2      -13.1810   10.6210  -50.7450 N.pl3  58  ARG58       0.1354
     94  N         -5.9450   10.7570  -39.7410 N.3    68  LEU68      -0.1231
     95  CA        -7.1800   11.4980  -39.9680 C.3    68  LEU68       0.1693
     96  C         -6.7720   12.9480  -40.1770 C.2    68  LEU68       0.2592
     97  O         -6.3230   13.6000  -39.2310 O.2    68  LEU68      -0.2718
     98  CB        -8.1430   11.3750  -38.7910 C.3    68  LEU68       0.0284
     99  CG        -9.5640   11.9310  -38.9650 C.3    68  LEU68       0.0019
    100  CD1      -10.3960   11.4270  -37.8080 C.3    68  LEU68       0.0001
    101  CD2       -9.6360   13.4560  -39.0100 C.3    68  LEU68       0.0001
    102  N         -6.9400   13.4410  -41.3970 N.am   69  GLY69      -0.1957
    103  CA        -6.4420   14.7650  -41.7320 C.3    69  GLY69       0.1869
    104  C         -4.9360   14.7790  -41.5740 C.2    69  GLY69       0.2309
    105  O         -4.2160   14.0460  -42.2590 O.2    69  GLY69      -0.2863
    106  N        -13.7900   16.0000  -31.9930 N.3    88  LEU88      -0.1231
    107  CA       -13.4920   15.7430  -33.3930 C.3    88  LEU88       0.1693
    108  C        -14.1110   16.7810  -34.3100 C.2    88  LEU88       0.2592
    109  O        -13.4660   17.2290  -35.2570 O.2    88  LEU88      -0.2718
    110  CB       -14.0020   14.3470  -33.7930 C.3    88  LEU88       0.0284
    111  CG       -13.9860   14.0080  -35.2920 C.3    88  LEU88       0.0019
    112  CD1      -12.5520   13.9910  -35.8200 C.3    88  LEU88       0.0001
    113  CD2      -14.6740   12.6770  -35.5470 C.3    88  LEU88       0.0001
    114  N        -15.3600   17.1500  -34.0460 N.am   89  TYR89      -0.1962
    115  CA       -16.1320   18.0670  -34.8790 C.3    89  TYR89       0.1771
    116  C        -16.6210   19.1930  -33.9710 C.2    89  TYR89       0.2619
    117  O        -17.4120   18.9540  -33.0610 O.2    89  TYR89      -0.2715
    118  CB       -17.3050   17.3430  -35.5440 C.3    89  TYR89       0.0574
    119  CG       -18.2090   18.2630  -36.3240 C.ar   89  TYR89      -0.0198
    120  CD1      -17.9390   18.5780  -37.6340 C.ar   89  TYR89      -0.0009
    121  CD2      -19.3300   18.8310  -35.7310 C.ar   89  TYR89      -0.0009
    122  CE1      -18.7670   19.4470  -38.3540 C.ar   89  TYR89       0.0417
    123  CE2      -20.1600   19.7040  -36.4330 C.ar   89  TYR89       0.0417
    124  CZ       -19.8690   20.0070  -37.7420 C.ar   89  TYR89       0.1957
    125  OH       -20.6930   20.8630  -38.4420 O.3    89  TYR89      -0.2866
    126  N        -16.1500   20.4170  -34.2070 N.am   90  ARG90      -0.1977
    127  CA       -16.4360   21.5260  -33.2960 C.3    90  ARG90       0.1597
    128  C        -16.2170   21.0950  -31.8480 C.2    90  ARG90       0.2287
    129  O        -15.0910   20.7670  -31.4690 O.2    90  ARG90      -0.2864
    130  CB       -17.8550   22.0420  -33.5470 C.3    90  ARG90       0.0334
    131  CG       -18.0930   22.3300  -35.0290 C.3    90  ARG90       0.0492
    132  CD       -19.3360   23.1920  -35.3070 C.3    90  ARG90       0.2205
    133  NE       -19.1280   24.5620  -34.8190 N.pl3  90  ARG90      -0.0865
    134  CZ       -20.0660   25.3390  -34.2920 C.cat  90  ARG90       0.5346
    135  NH1      -19.7410   26.5530  -33.8630 N.pl3  90  ARG90       0.1354
    136  NH2      -21.3190   24.9050  -34.1650 N.pl3  90  ARG90       0.1354
@<TRIPOS>BOND
     1    41    39   am
     2    39    40    2
     3    39    38    1
     4    38    35    1
     5    37    36    2
     6    93    91    1
     7    36    35    1
     8    35    34    1
     9    33    31    1
    10    91    92    1
    11    91    90    2
    12    90    89    1
    13    34    25   am
    14    31    32    1
    15    31    30    2
    16     7     8    1
    17     7     6    1
    18     8     9    2
    19    25    26    2
    20    25    24    1
    21    30    29    1
    22    89    88    1
    23     9    10    1
    24     9    11    1
    25     5     6    1
    26     5     2    1
    27    27    24    1
    28    27    28    1
    29    24    23    1
    30    88    87    1
    31    29    28    1
    32     1     2    1
    33     2     3    1
    34     3     4    2
    35    21    20    1
    36    87    84    1
    37    22    20    1
    38    20    19    2
    39    74    76   ar
    40    74    72   ar
    41    76    75   ar
    42    84    83    1
    43    84    85    1
    44    72    71    1
    45    72    73   ar
    46    71    68    1
    47    70    69    2
    48    83    79   am
    49    19    18    1
    50    75    73   ar
    51    46    43    1
    52    18    17    1
    53    85    86    2
    54    69    68    1
    55    69    77   am
    56    68    67    1
    57    42    43    1
    58    79    78    1
    59    79    80    2
    60    67    60   am
    61    17    16    1
    62   105   104    2
    63    43    44    1
    64    15    14    2
    65    78    77    1
    66    78    81    1
    67    14    13    1
    68   103   104    1
    69   103   102    1
    70    16    13    1
    71   102    96   am
    72    60    59    1
    73    60    61    2
    74    59    62    1
    75    59    58    1
    76    65    66    1
    77    65    64    1
    78    63    62    1
    79    63    64    1
    80    13    12    1
    81    44    45    2
    82    81    82    1
    83    96    95    1
    84    96    97    2
    85    95    94    1
    86    95    98    1
    87   101    99    1
    88    99    98    1
    89    99   100    1
    90   125   124    1
    91   122   124   ar
    92   122   120   ar
    93    56    57   ar
    94    56    54   ar
    95    57    55   ar
    96    47    48    1
    97    50    49    2
    98   124   123   ar
    99   120   119   ar
   100    54    52   ar
   101    55    53   ar
   102    49    48    1
   103    52    53   ar
   104    52    51    1
   105    48    51    1
   106   123   121   ar
   107   119   121   ar
   108   119   118    1
   109   112   111    1
   110   113   111    1
   111   118   115    1
   112   132   131    1
   113   132   133    1
   114   111   110    1
   115   109   108    2
   116   131   130    1
   117   115   114    1
   118   115   116    1
   119   133   134    2
   120   108   114   am
   121   108   107    1
   122   134   136    1
   123   134   135    1
   124   126   116   am
   125   126   127    1
   126   116   117    2
   127   110   107    1
   128   130   127    1
   129   107   106    1
   130   127   128    1
   131   128   129    2
