@<TRIPOS>MOLECULE
tmp/5tqsC00.pdb
 144 139 0 0 0
SMALL
GASTEIGER

@<TRIPOS>ATOM
      1  N          3.5270   18.9480   -3.9420 N.3    14  ARG14      -0.1245
      2  CA         4.4250   20.0660   -4.2000 C.3    14  ARG14       0.1563
      3  C          5.7750   19.8510   -3.5300 C.2    14  ARG14       0.2260
      4  O          6.8250   20.0550   -4.1450 O.2    14  ARG14      -0.2867
      5  CB         3.7740   21.3570   -3.7130 C.3    14  ARG14       0.0307
      6  CG         4.5620   22.6150   -3.9910 C.3    14  ARG14       0.0489
      7  CD         3.9040   23.7840   -3.2880 C.3    14  ARG14       0.2205
      8  NE         4.5920   25.0510   -3.5120 N.pl3  14  ARG14      -0.0865
      9  CZ         4.2180   25.9780   -4.3920 C.cat  14  ARG14       0.5346
     10  NH1        3.1510   25.8020   -5.1620 N.pl3  14  ARG14       0.1354
     11  NH2        4.9160   27.0990   -4.5010 N.pl3  14  ARG14       0.1354
     12  N          2.5810   17.2060  -12.3150 N.3    33  ARG33      -0.1245
     13  CA         1.9250   16.4670  -11.2520 C.3    33  ARG33       0.1563
     14  C          0.4420   16.8030  -11.2540 C.2    33  ARG33       0.2260
     15  O          0.0570   17.9530  -11.4770 O.2    33  ARG33      -0.2867
     16  CB         2.5550   16.7990   -9.8930 C.3    33  ARG33       0.0307
     17  CG         2.5240   18.2790   -9.5460 C.3    33  ARG33       0.0489
     18  CD         3.4130   18.5880   -8.3310 C.3    33  ARG33       0.2205
     19  NE         3.5960   20.0280   -8.1270 N.pl3  33  ARG33      -0.0865
     20  CZ         2.8040   20.7940   -7.3780 C.cat  33  ARG33       0.5346
     21  NH1        1.7610   20.2690   -6.7490 N.pl3  33  ARG33       0.1354
     22  NH2        3.0570   22.0900   -7.2530 N.pl3  33  ARG33       0.1354
     23  N         -2.8620   17.7060   -9.4180 N.3    35  ARG35      -0.1231
     24  CA        -3.1510   18.4210   -8.1840 C.3    35  ARG35       0.1694
     25  C         -4.3750   17.8370   -7.4840 C.2    35  ARG35       0.2592
     26  O         -5.1800   17.1130   -8.0770 O.2    35  ARG35      -0.2718
     27  CB        -3.3710   19.9050   -8.4630 C.3    35  ARG35       0.0321
     28  CG        -2.1170   20.5830   -8.9600 C.3    35  ARG35       0.0489
     29  CD        -2.3600   22.0200   -9.3350 C.3    35  ARG35       0.2205
     30  NE        -2.5950   22.8780   -8.1730 N.pl3  35  ARG35      -0.0865
     31  CZ        -3.7660   23.4140   -7.8350 C.cat  35  ARG35       0.5346
     32  NH1       -4.8630   23.1970   -8.5590 N.pl3  35  ARG35       0.1354
     33  NH2       -3.8370   24.1820   -6.7540 N.pl3  35  ARG35       0.1354
     34  N         -4.4940   18.1580   -6.1940 N.am   36  ASN36      -0.1974
     35  CA        -5.6520   17.7210   -5.4200 C.3    36  ASN36       0.1688
     36  C         -6.9470   18.2200   -6.0480 C.2    36  ASN36       0.2292
     37  O         -7.8950   17.4490   -6.2400 O.2    36  ASN36      -0.2864
     38  CB        -5.5320   18.2150   -3.9790 C.3    36  ASN36       0.1181
     39  CG        -4.3030   17.6800   -3.2860 C.2    36  ASN36       0.2629
     40  OD1       -3.4290   18.4390   -2.8720 O.2    36  ASN36      -0.2716
     41  ND2       -4.2260   16.3620   -3.1590 N.am   36  ASN36      -0.0877
     42  N         -0.0470   20.7770  -12.0560 N.3    42  ALA42      -0.1245
     43  CA         1.0320   21.7370  -11.8720 C.3    42  ALA42       0.1562
     44  C          2.2530   21.2960  -12.6630 C.2    42  ALA42       0.2260
     45  O          2.5840   20.1070  -12.6990 O.2    42  ALA42      -0.2867
     46  CB         1.4210   21.8830  -10.4050 C.3    42  ALA42       0.0290
     47  N          9.2090   23.2280  -12.1140 N.3    45  PHE45      -0.1241
     48  CA        10.4120   23.3340  -12.9200 C.3    45  PHE45       0.1605
     49  C         11.4610   24.1940  -12.2240 C.2    45  PHE45       0.2264
     50  O         11.1670   24.9520  -11.2960 O.2    45  PHE45      -0.2867
     51  CB        10.0970   23.9130  -14.3040 C.3    45  PHE45       0.0534
     52  CG         9.5200   25.3010  -14.2780 C.ar   45  PHE45      -0.0203
     53  CD1       10.3310   26.4140  -14.4240 C.ar   45  PHE45      -0.0042
     54  CD2        8.1630   25.4930  -14.1260 C.ar   45  PHE45      -0.0042
     55  CE1        9.7920   27.6860  -14.4110 C.ar   45  PHE45      -0.0003
     56  CE2        7.6210   26.7590  -14.1070 C.ar   45  PHE45      -0.0003
     57  CZ         8.4310   27.8560  -14.2560 C.ar   45  PHE45      -0.0000
     58  N          9.9650   26.7220   -9.4560 N.3    52  LYS52      -0.1231
     59  CA         8.7160   27.4220   -9.7190 C.3    52  LYS52       0.1693
     60  C          7.6330   26.4030  -10.0510 C.2    52  LYS52       0.2592
     61  O          7.9240   25.2940  -10.5060 O.2    52  LYS52      -0.2718
     62  CB         8.8510   28.4210  -10.8680 C.3    52  LYS52       0.0285
     63  CG         9.9070   29.5140  -10.6570 C.3    52  LYS52       0.0035
     64  CD         9.5340   30.4680   -9.5330 C.3    52  LYS52       0.0206
     65  CE        10.5690   31.5670   -9.3620 C.3    52  LYS52       0.1093
     66  NZ        10.6340   32.4450  -10.5520 N.3    52  LYS52      -0.1314
     67  N          6.3790   26.7910   -9.8100 N.am   53  HIS53      -0.1962
     68  CA         5.2200   25.9420  -10.0500 C.3    53  HIS53       0.1787
     69  C          4.1780   26.7450  -10.8140 C.2    53  HIS53       0.2620
     70  O          3.9090   27.8980  -10.4670 O.2    53  HIS53      -0.2715
     71  CB         4.6170   25.4220   -8.7270 C.3    53  HIS53       0.0785
     72  CG         5.6130   24.7610   -7.8250 C.ar   53  HIS53       0.0821
     73  ND1        5.7930   23.3950   -7.7800 N.ar   53  HIS53      -0.2267
     74  CD2        6.4790   25.2830   -6.9250 C.ar   53  HIS53       0.1154
     75  CE1        6.7300   23.1050   -6.8950 C.ar   53  HIS53       0.1986
     76  NE2        7.1630   24.2340   -6.3630 N.ar   53  HIS53      -0.2212
     77  N          3.5870   26.1320  -11.8450 N.am   54  CYS54      -0.1954
     78  CA         2.5820   26.7750  -12.6910 C.3    54  CYS54       0.1843
     79  C          1.3350   25.9080  -12.7320 C.2    54  CYS54       0.2625
     80  O          1.4360   24.6950  -12.9400 O.2    54  CYS54      -0.2714
     81  CB         3.0990   26.9930  -14.1300 C.3    54  CYS54       0.0997
     82  SG         4.4160   28.1760  -14.2430 S.3    54  CYS54      -0.0797
     83  N          0.1610   26.5250  -12.5690 N.am   55  ARG55      -0.1977
     84  CA        -1.0960   25.7860  -12.5870 C.3    55  ARG55       0.1597
     85  C         -1.5960   25.6070  -14.0140 C.2    55  ARG55       0.2287
     86  O         -1.5270   26.5280  -14.8300 O.2    55  ARG55      -0.2864
     87  CB        -2.1640   26.5020  -11.7560 C.3    55  ARG55       0.0334
     88  CG        -2.3910   25.8930  -10.3810 C.3    55  ARG55       0.0492
     89  CD        -3.5190   26.5860   -9.6260 C.3    55  ARG55       0.2205
     90  NE        -3.1520   27.9480   -9.2580 N.pl3  55  ARG55      -0.0865
     91  CZ        -3.8320   28.7080   -8.4030 C.cat  55  ARG55       0.5346
     92  NH1       -4.9260   28.2420   -7.8120 N.pl3  55  ARG55       0.1354
     93  NH2       -3.4090   29.9370   -8.1370 N.pl3  55  ARG55       0.1354
     94  N         -3.0490   27.2370  -19.6740 N.3    65  LEU65      -0.1231
     95  CA        -1.9620   27.7680  -18.8570 C.3    65  LEU65       0.1693
     96  C         -2.0050   29.2800  -19.0080 C.2    65  LEU65       0.2593
     97  O         -1.6860   29.8110  -20.0790 O.2    65  LEU65      -0.2718
     98  CB        -0.6130   27.2080  -19.2960 C.3    65  LEU65       0.0284
     99  CG         0.6300   27.8230  -18.6470 C.3    65  LEU65       0.0019
    100  CD1        0.7150   27.4460  -17.1880 C.3    65  LEU65       0.0001
    101  CD2        1.8860   27.3830  -19.3850 C.3    65  LEU65       0.0001
    102  N         -2.4230   29.9710  -17.9620 N.am   66  GLY66      -0.1942
    103  CA        -2.7080   31.3840  -18.1290 C.3    66  GLY66       0.2014
    104  C         -3.7260   31.5590  -19.2440 C.2    66  GLY66       0.2638
    105  O         -4.8260   30.9950  -19.2100 O.2    66  GLY66      -0.2714
    106  N         -3.3530   32.3130  -20.2740 N.am   67  ASN67      -0.1972
    107  CA        -4.2170   32.5430  -21.4250 C.3    67  ASN67       0.1688
    108  C         -3.8630   31.6700  -22.6240 C.2    67  ASN67       0.2292
    109  O         -4.4450   31.8460  -23.6990 O.2    67  ASN67      -0.2864
    110  CB        -4.1630   34.0170  -21.8260 C.3    67  ASN67       0.1181
    111  CG        -4.9040   34.9040  -20.8510 C.2    67  ASN67       0.2629
    112  OD1       -4.3230   35.8050  -20.2470 O.2    67  ASN67      -0.2716
    113  ND2       -6.1940   34.6450  -20.6840 N.am   67  ASN67      -0.0877
    114  N          8.9890   28.7440  -21.7720 N.3    85  LEU85      -0.1231
    115  CA         7.9020   28.8400  -20.8130 C.3    85  LEU85       0.1693
    116  C          8.1290   29.9730  -19.8310 C.2    85  LEU85       0.2592
    117  O          7.1840   30.6700  -19.4590 O.2    85  LEU85      -0.2718
    118  CB         7.7690   27.5380  -20.0300 C.3    85  LEU85       0.0284
    119  CG         6.7520   27.5860  -18.8850 C.3    85  LEU85       0.0019
    120  CD1        5.3800   27.8610  -19.4180 C.3    85  LEU85       0.0001
    121  CD2        6.7640   26.2940  -18.1060 C.3    85  LEU85       0.0001
    122  N          9.3740   30.1500  -19.4050 N.am   86  TYR86      -0.1962
    123  CA         9.7260   31.0850  -18.3420 C.3    86  TYR86       0.1771
    124  C         11.0110   31.7720  -18.7690 C.2    86  TYR86       0.2619
    125  O         12.0630   31.1310  -18.8140 O.2    86  TYR86      -0.2715
    126  CB         9.9040   30.3600  -17.0110 C.3    86  TYR86       0.0574
    127  CG        10.4080   31.2400  -15.8920 C.ar   86  TYR86      -0.0198
    128  CD1        9.5260   31.9400  -15.0830 C.ar   86  TYR86      -0.0009
    129  CD2       11.7670   31.3700  -15.6450 C.ar   86  TYR86      -0.0009
    130  CE1        9.9830   32.7470  -14.0540 C.ar   86  TYR86       0.0417
    131  CE2       12.2350   32.1750  -14.6180 C.ar   86  TYR86       0.0417
    132  CZ        11.3370   32.8600  -13.8270 C.ar   86  TYR86       0.1957
    133  OH        11.7950   33.6610  -12.8050 O.3    86  TYR86      -0.2866
    134  N         10.9160   33.0590  -19.1100 N.am   87  ARG87      -0.1977
    135  CA        12.0470   33.8050  -19.6480 C.3    87  ARG87       0.1597
    136  C         12.5770   33.1070  -20.8980 C.2    87  ARG87       0.2287
    137  O         11.9420   33.1680  -21.9540 O.2    87  ARG87      -0.2864
    138  CB        13.1480   33.9740  -18.5900 C.3    87  ARG87       0.0334
    139  CG        12.7570   34.8840  -17.4140 C.3    87  ARG87       0.0492
    140  CD        13.9830   35.4550  -16.6990 C.3    87  ARG87       0.2205
    141  NE        13.6270   36.3790  -15.6170 N.pl3  87  ARG87      -0.0865
    142  CZ        13.5660   36.0600  -14.3230 C.cat  87  ARG87       0.5346
    143  NH1       13.8400   34.8300  -13.9090 N.pl3  87  ARG87       0.1354
    144  NH2       13.2290   36.9800  -13.4300 N.pl3  87  ARG87       0.1354
@<TRIPOS>BOND
     1   109   108    2
     2   108   107    1
     3   137   136    2
     4   110   107    1
     5   110   111    1
     6   114   115    1
     7   107   106    1
     8   136   135    1
     9   111   113   am
    10   111   112    2
    11   115   118    1
    12   115   116    1
    13   106   104   am
    14    97    96    2
    15   118   119    1
    16   116   117    2
    17   116   122   am
    18    94    95    1
    19   135   134    1
    20   135   138    1
    21   120   119    1
    22   122   123    1
    23   101    99    1
    24    98    95    1
    25    98    99    1
    26   104   105    2
    27   104   103    1
    28   134   124   am
    29    96    95    1
    30    96   102   am
    31   119   121    1
    32   125   124    2
    33   124   123    1
    34    99   100    1
    35   138   139    1
    36   123   126    1
    37   103   102    1
    38   139   140    1
    39   126   127    1
    40   140   141    1
    41   127   129   ar
    42   127   128   ar
    43   129   131   ar
    44   141   142    2
    45   128   130   ar
    46    86    85    2
    47   131   132   ar
    48    53    55   ar
    49    53    52   ar
    50    55    57   ar
    51   142   143    1
    52   142   144    1
    53    51    52    1
    54    51    48    1
    55    52    54   ar
    56    57    56   ar
    57    82    81    1
    58    81    78    1
    59    54    56   ar
    60   130   132   ar
    61    85    84    1
    62   132   133    1
    63    80    79    2
    64    48    49    1
    65    48    47    1
    66    79    78    1
    67    79    83   am
    68    45    44    2
    69    78    77    1
    70    44    43    1
    71    84    83    1
    72    84    87    1
    73    12    13    1
    74    49    50    2
    75    42    43    1
    76    43    46    1
    77    77    69   am
    78    87    88    1
    79    15    14    2
    80    14    13    1
    81    13    16    1
    82    62    63    1
    83    62    59    1
    84    69    70    2
    85    69    68    1
    86    63    64    1
    87    66    65    1
    88    61    60    2
    89    88    89    1
    90    60    67   am
    91    60    59    1
    92    68    67    1
    93    68    71    1
    94    16    17    1
    95    59    58    1
    96    89    90    1
    97    17    18    1
    98    64    65    1
    99    23    24    1
   100    29    28    1
   101    29    30    1
   102    90    91    2
   103    28    27    1
   104    71    72    1
   105    32    31    1
   106    27    24    1
   107    91    93    1
   108    91    92    1
   109    18    19    1
   110    24    25    1
   111    30    31    2
   112    19    20    2
   113    26    25    2
   114    31    33    1
   115    72    73   ar
   116    72    74   ar
   117    73    75   ar
   118    25    34   am
   119    20    22    1
   120    20    21    1
   121    74    76   ar
   122    75    76   ar
   123    37    36    2
   124    34    35    1
   125    36    35    1
   126    35    38    1
   127    10     9    1
   128    11     9    1
   129     9     8    2
   130     2     1    1
   131     2     5    1
   132     2     3    1
   133     4     3    2
   134     6     5    1
   135     6     7    1
   136    38    39    1
   137     8     7    1
   138    39    41   am
   139    39    40    2
