@<TRIPOS>MOLECULE
tmp/5tquB00.pdb
 201 201 0 0 0
SMALL
GASTEIGER

@<TRIPOS>ATOM
      1  N        -33.1610   11.5710    5.1500 N.3    16  PRO16      -0.2102
      2  CA       -34.2330   12.1060    5.9720 C.3    16  PRO16       0.1504
      3  C        -34.0110   11.6460    7.3870 C.2    16  PRO16       0.2576
      4  O        -33.2400   10.7010    7.5960 O.2    16  PRO16      -0.2718
      5  CB       -35.4960   11.4400    5.3950 C.3    16  PRO16       0.0282
      6  CG       -35.0560   10.6830    4.1830 C.3    16  PRO16       0.0208
      7  CD       -33.6130   10.3750    4.4210 C.3    16  PRO16       0.0893
      8  N        -34.6790   12.2930    8.3370 N.am   17  ILE17      -0.1966
      9  CA       -34.7090   11.8120    9.7250 C.3    17  ILE17       0.1727
     10  C        -35.9720   10.9670    9.8830 C.2    17  ILE17       0.2616
     11  O        -37.0610   11.3870    9.4970 O.2    17  ILE17      -0.2715
     12  CB       -34.6110   12.9460   10.7710 C.3    17  ILE17       0.0290
     13  CG1      -35.7130   14.0080   10.5990 C.3    17  ILE17       0.0022
     14  CG2      -33.2280   13.5880   10.6950 C.3    17  ILE17       0.0023
     15  CD1      -35.7970   15.0040   11.7390 C.3    17  ILE17       0.0001
     16  N        -35.8210    9.7780   10.4620 N.am   18  TYR18      -0.1960
     17  CA       -36.8620    8.7520   10.4150 C.3    18  TYR18       0.1771
     18  C        -37.7320    8.7620   11.6800 C.2    18  TYR18       0.2619
     19  O        -37.2540    9.0940   12.7750 O.2    18  TYR18      -0.2715
     20  CB       -36.2050    7.3890   10.2220 C.3    18  TYR18       0.0574
     21  CG       -35.1940    7.3740    9.0940 C.ar   18  TYR18      -0.0198
     22  CD1      -35.6030    7.5120    7.7710 C.ar   18  TYR18      -0.0009
     23  CD2      -33.8230    7.2630    9.3550 C.ar   18  TYR18      -0.0009
     24  CE1      -34.6880    7.5160    6.7320 C.ar   18  TYR18       0.0417
     25  CE2      -32.8960    7.2630    8.3260 C.ar   18  TYR18       0.0417
     26  CZ       -33.3310    7.3820    7.0150 C.ar   18  TYR18       0.1957
     27  OH       -32.4210    7.3910    5.9720 O.3    18  TYR18      -0.2866
     28  N        -39.0040    8.3930   11.5260 N.am   19  TYR19      -0.1974
     29  CA       -39.9770    8.3970   12.6220 C.3    19  TYR19       0.1639
     30  C        -39.6610    7.2180   13.5730 C.2    19  TYR19       0.2290
     31  O        -39.3800    6.1030   13.1110 O.2    19  TYR19      -0.2864
     32  CB       -41.3960    8.2190   12.0060 C.3    19  TYR19       0.0560
     33  CG       -42.5710    8.6630   12.8100 C.ar   19  TYR19      -0.0198
     34  CD1      -42.5040    9.7590   13.6530 C.ar   19  TYR19      -0.0009
     35  CD2      -43.7960    8.0110   12.6720 C.ar   19  TYR19      -0.0009
     36  CE1      -43.6060   10.1630   14.3770 C.ar   19  TYR19       0.0417
     37  CE2      -44.9040    8.4080   13.3860 C.ar   19  TYR19       0.0417
     38  CZ       -44.8000    9.4820   14.2390 C.ar   19  TYR19       0.1957
     39  OH       -45.8930    9.8970   14.9420 O.3    19  TYR19      -0.2866
     40  N        -36.8270   11.4860   13.8270 N.3    56  ASP56      -0.1239
     41  CA       -37.9210   12.4190   14.0150 C.3    56  ASP56       0.1674
     42  C        -38.6660   11.9000   15.2280 C.2    56  ASP56       0.2266
     43  O        -39.3960   10.9550   15.1430 O.2    56  ASP56      -0.2867
     44  CB       -38.8010   12.3710   12.7860 C.3    56  ASP56       0.1410
     45  CG       -39.9910   13.2470   12.8810 C.2    56  ASP56       0.3668
     46  OD1      -39.9650   14.2330   13.6100 O.co2  56  ASP56      -0.2456
     47  OD2      -40.9600   12.9580   12.1940 O.co2  56  ASP56      -0.2456
     48  N        -40.5660   13.9270   17.9470 N.3    58  HIS58      -0.1226
     49  CA       -41.7260   14.5860   18.5650 C.3    58  HIS58       0.1752
     50  C        -43.0700   14.1430   17.9770 C.2    58  HIS58       0.2597
     51  O        -43.1220   13.2890   17.0850 O.2    58  HIS58      -0.2718
     52  CB       -41.5390   16.0940   18.5160 C.3    58  HIS58       0.0759
     53  CG       -40.3680   16.5710   19.3190 C.ar   58  HIS58       0.0818
     54  ND1      -39.5650   17.6260   18.9330 N.ar   58  HIS58      -0.2268
     55  CD2      -39.8640   16.1350   20.4920 C.ar   58  HIS58       0.1154
     56  CE1      -38.6260   17.8230   19.8410 C.ar   58  HIS58       0.1986
     57  NE2      -38.7880   16.9330   20.8000 N.ar   58  HIS58      -0.2212
     58  N        -44.1480   14.6650   18.5550 N.am   59  GLY59      -0.1942
     59  CA       -45.4950   14.5220   18.0080 C.3    59  GLY59       0.2014
     60  C        -46.4620   13.6240   18.7710 C.2    59  GLY59       0.2638
     61  O        -46.0730   12.8430   19.6400 O.2    59  GLY59      -0.2714
     62  N        -47.7240   13.6990   18.3600 N.am   60  GLN60      -0.1977
     63  CA       -48.8160   12.9760   18.9910 C.3    60  GLN60       0.1601
     64  C        -48.6560   11.4490   18.9820 C.2    60  GLN60       0.2287
     65  O        -48.7560   10.8050   20.0200 O.2    60  GLN60      -0.2864
     66  CB       -50.1340   13.3480   18.3040 C.3    60  GLN60       0.0394
     67  CG       -51.3810   12.8620   19.0310 C.3    60  GLN60       0.0908
     68  CD       -52.6620   13.3370   18.3840 C.2    60  GLN60       0.2608
     69  OE1      -52.7450   14.4580   17.8580 O.2    60  GLN60      -0.2717
     70  NE2      -53.6850   12.5010   18.4390 N.am   60  GLN60      -0.0878
     71  N        -50.8940   17.5310   21.2240 N.3   195  LEU195     -0.1245
     72  CA       -49.6100   16.7900   21.0940 C.3   195  LEU195      0.1561
     73  C        -49.0780   16.0620   22.3600 C.2   195  LEU195      0.2260
     74  O        -47.9550   15.5290   22.3500 O.2   195  LEU195     -0.2867
     75  CB       -48.5240   17.7570   20.5870 C.3   195  LEU195      0.0270
     76  CG       -48.7560   18.4380   19.2280 C.3   195  LEU195      0.0019
     77  CD1      -47.5500   19.2760   18.8400 C.3   195  LEU195      0.0001
     78  CD2      -49.0520   17.4030   18.1570 C.3   195  LEU195      0.0001
     79  N        -43.3970   18.0420   22.1220 N.3   199  ALA199     -0.1245
     80  CA       -43.0570   18.8820   20.9830 C.3   199  ALA199      0.1562
     81  C        -42.3040   20.1140   21.4980 C.2   199  ALA199      0.2260
     82  O        -42.1190   20.2770   22.7040 O.2   199  ALA199     -0.2867
     83  CB       -44.3170   19.2970   20.2300 C.3   199  ALA199      0.0290
     84  N        -44.6010   23.7780   18.1460 N.3   210  VAL210     -0.1231
     85  CA       -44.1520   23.8290   16.7620 C.3   210  VAL210      0.1692
     86  C        -44.4960   22.4970   16.0860 C.2   210  VAL210      0.2592
     87  O        -44.1480   21.4030   16.5790 O.2   210  VAL210     -0.2718
     88  CB       -42.6410   24.0670   16.6630 C.3   210  VAL210      0.0266
     89  CG1      -42.1970   24.0810   15.2030 C.3   210  VAL210      0.0020
     90  CG2      -42.2830   25.3740   17.3430 C.3   210  VAL210      0.0020
     91  N        -45.1960   22.5710   14.9590 N.am  211  TYR211     -0.1962
     92  CA       -45.6180   21.3380   14.3040 C.3   211  TYR211      0.1771
     93  C        -44.4280   20.6240   13.5320 C.2   211  TYR211      0.2619
     94  O        -43.2490   21.0620   13.5820 O.2   211  TYR211     -0.2715
     95  CB       -46.9070   21.5940   13.4860 C.3   211  TYR211      0.0574
     96  CG       -47.6800   20.3280   13.0530 C.ar  211  TYR211     -0.0198
     97  CD1      -47.9020   19.2510   13.9360 C.ar  211  TYR211     -0.0009
     98  CD2      -48.1530   20.1950   11.7450 C.ar  211  TYR211     -0.0009
     99  CE1      -48.5550   18.0900   13.5240 C.ar  211  TYR211      0.0417
    100  CE2      -48.8180   19.0420   11.3200 C.ar  211  TYR211      0.0417
    101  CZ       -49.0240   17.9950   12.2090 C.ar  211  TYR211      0.1957
    102  OH       -49.6970   16.8620   11.7780 O.3   211  TYR211     -0.2866
    103  N        -44.7200   19.5200   12.8510 N.am  212  VAL212     -0.1963
    104  CA       -43.6970   18.7060   12.1970 C.3   212  VAL212      0.1727
    105  C        -42.8780   19.4460   11.1320 C.2   212  VAL212      0.2616
    106  O        -41.6830   19.1700   10.9430 O.2   212  VAL212     -0.2715
    107  CB       -44.3120   17.4080   11.5790 C.3   212  VAL212      0.0290
    108  CG1      -45.1910   17.7070   10.3650 C.3   212  VAL212      0.0023
    109  CG2      -43.2120   16.4070   11.2210 C.3   212  VAL212      0.0023
    110  N        -43.5030   20.3840   10.4420 N.am  213  TRP213     -0.1974
    111  CA       -42.8700   20.9040    9.2710 C.3   213  TRP213      0.1640
    112  C        -41.6000   21.6340    9.7400 C.2   213  TRP213      0.2290
    113  O        -40.4810   21.2260    9.4010 O.2   213  TRP213     -0.2864
    114  CB       -43.8390   21.8050    8.5120 C.3   213  TRP213      0.0576
    115  CG       -45.2050   21.1790    8.3000 C.ar  213  TRP213      0.0006
    116  CD1      -46.4130   21.6630    8.7260 C.ar  213  TRP213      0.0946
    117  CD2      -45.4840   19.9430    7.6340 C.ar  213  TRP213      0.0152
    118  NE1      -47.4250   20.8110    8.3470 N.ar  213  TRP213     -0.2442
    119  CE2      -46.8840   19.7460    7.6790 C.ar  213  TRP213      0.0810
    120  CE3      -44.6830   18.9830    6.9900 C.ar  213  TRP213      0.0012
    121  CZ2      -47.5020   18.6190    7.1080 C.ar  213  TRP213      0.0191
    122  CZ3      -45.2930   17.8630    6.4250 C.ar  213  TRP213      0.0001
    123  CH2      -46.6860   17.6880    6.4930 C.ar  213  TRP213      0.0015
    124  N        -40.1170   21.7090   12.7300 N.3   215  ASP215     -0.1225
    125  CA       -39.2240   20.9280   13.5820 C.3   215  ASP215      0.1805
    126  C        -38.3060   19.9840   12.7860 C.2   215  ASP215      0.2598
    127  O        -37.0680   20.0900   12.8650 O.2   215  ASP215     -0.2718
    128  CB       -40.0440   20.1750   14.6530 C.3   215  ASP215      0.1424
    129  CG       -39.1880   19.2980   15.5850 C.2   215  ASP215      0.3668
    130  OD1      -37.9320   19.4340   15.6290 O.co2 215  ASP215     -0.2456
    131  OD2      -39.7990   18.4820   16.3130 O.co2 215  ASP215     -0.2456
    132  N        -38.9000   19.1200   11.9740 N.am  216  ALA216     -0.1966
    133  CA       -38.1420   18.0300   11.3530 C.3   216  ALA216      0.1728
    134  C        -37.2150   18.5040   10.2220 C.2   216  ALA216      0.2616
    135  O        -36.0310   18.1240   10.1960 O.2   216  ALA216     -0.2715
    136  CB       -39.0760   16.9290   10.8650 C.3   216  ALA216      0.0334
    137  N        -37.7420   19.3330    9.3150 N.am  217  LEU217     -0.1977
    138  CA       -36.9360   19.9040    8.2280 C.3   217  LEU217      0.1596
    139  C        -35.7430   20.7020    8.7400 C.2   217  LEU217      0.2287
    140  O        -34.6630   20.6660    8.1560 O.2   217  LEU217     -0.2864
    141  CB       -37.7760   20.7970    7.3430 C.3   217  LEU217      0.0297
    142  CG       -38.7950   20.0780    6.4640 C.3   217  LEU217      0.0022
    143  CD1      -39.8020   21.0810    5.9060 C.3   217  LEU217      0.0001
    144  CD2      -38.1160   19.3060    5.3320 C.3   217  LEU217      0.0001
    145  N        -33.7260   20.0790   10.9710 N.3   219  ASN219     -0.1225
    146  CA       -32.5910   19.2560   11.3870 C.3   219  ASN219      0.1785
    147  C        -31.3800   19.4690   10.4980 C.2   219  ASN219      0.2597
    148  O        -30.2420   19.3760   10.9770 O.2   219  ASN219     -0.2718
    149  CB       -32.9390   17.7580   11.4340 C.3   219  ASN219      0.1169
    150  CG       -32.6800   17.0520   10.1140 C.2   219  ASN219      0.2627
    151  OD1      -31.6020   16.4690    9.9100 O.2   219  ASN219     -0.2716
    152  ND2      -33.6380   17.1310    9.2020 N.am  219  ASN219     -0.0877
    153  N        -31.6350   19.7300    9.2110 N.am  220  TYR220     -0.1976
    154  CA       -30.5700   19.9300    8.2340 C.3   220  TYR220      0.1639
    155  C        -29.7800   21.1920    8.5650 C.2   220  TYR220      0.2290
    156  O        -28.5430   21.2140    8.4540 O.2   220  TYR220     -0.2864
    157  CB       -31.1380   20.0120    6.8210 C.3   220  TYR220      0.0560
    158  CG       -31.9420   18.8070    6.3800 C.ar  220  TYR220     -0.0198
    159  CD1      -31.4750   17.5080    6.5560 C.ar  220  TYR220     -0.0009
    160  CD2      -33.1660   18.9720    5.7430 C.ar  220  TYR220     -0.0009
    161  CE1      -32.2220   16.4060    6.1340 C.ar  220  TYR220      0.0417
    162  CE2      -33.9100   17.8800    5.3070 C.ar  220  TYR220      0.0417
    163  CZ       -33.4370   16.6030    5.5090 C.ar  220  TYR220      0.1957
    164  OH       -34.2100   15.5460    5.0860 O.3   220  TYR220     -0.2866
    165  N        -42.3410    9.6770   -0.9150 N.3   257  ASP257     -0.1225
    166  CA       -43.3640   10.0300    0.0820 C.3   257  ASP257      0.1805
    167  C        -43.2550   11.4460    0.6870 C.2   257  ASP257      0.2597
    168  O        -44.2800   12.0360    1.0100 O.2   257  ASP257     -0.2718
    169  CB       -43.4490    8.9580    1.2060 C.3   257  ASP257      0.1424
    170  CG       -42.1300    8.7890    2.0110 C.2   257  ASP257      0.3668
    171  OD1      -41.0460    8.6520    1.4070 O.co2 257  ASP257     -0.2456
    172  OD2      -42.1940    8.7470    3.2630 O.co2 257  ASP257     -0.2456
    173  N        -42.0420   11.9920    0.8030 N.am  258  ILE258     -0.1980
    174  CA       -41.8360   13.2950    1.4700 C.3   258  ILE258      0.1595
    175  C        -41.2930   14.3940    0.5420 C.2   258  ILE258      0.2287
    176  O        -40.7060   15.3770    1.0040 O.2   258  ILE258     -0.2864
    177  CB       -40.9520   13.1630    2.7380 C.3   258  ILE258      0.0276
    178  CG1      -39.5220   12.7210    2.3850 C.3   258  ILE258      0.0022
    179  CG2      -41.5870   12.1640    3.6790 C.3   258  ILE258      0.0022
    180  CD1      -38.6370   12.4790    3.5850 C.3   258  ILE258      0.0001
    181  N        -42.6100   18.1790    0.9670 N.3   261  PHE261     -0.1227
    182  CA       -42.0700   18.8910    2.1340 C.3   261  PHE261      0.1736
    183  C        -40.6840   19.4420    1.8750 C.2   261  PHE261      0.2595
    184  O        -40.3410   20.5240    2.3640 O.2   261  PHE261     -0.2718
    185  CB       -42.0540   17.9650    3.3490 C.3   261  PHE261      0.0547
    186  CG       -43.3310   17.1580    3.4920 C.ar  261  PHE261     -0.0202
    187  CD1      -44.5710   17.6950    3.1210 C.ar  261  PHE261     -0.0042
    188  CD2      -43.2950   15.8610    3.9600 C.ar  261  PHE261     -0.0042
    189  CE1      -45.7440   16.9610    3.2390 C.ar  261  PHE261     -0.0003
    190  CE2      -44.4700   15.1210    4.0830 C.ar  261  PHE261     -0.0003
    191  CZ       -45.6960   15.6730    3.7280 C.ar  261  PHE261     -0.0000
    192  N        -39.8900   18.6850    1.1270 N.am  262  HIS262     -0.1975
    193  CA       -38.5180   19.0820    0.8120 C.3   262  HIS262      0.1656
    194  C        -38.4030   20.0670   -0.3560 C.2   262  HIS262      0.2291
    195  O        -37.4880   20.8910   -0.3710 O.2   262  HIS262     -0.2864
    196  CB       -37.6510   17.8430    0.5630 C.3   262  HIS262      0.0771
    197  CG       -37.3090   17.0980    1.8130 C.ar  262  HIS262      0.0820
    198  ND1      -38.1910   16.2370    2.4270 N.ar  262  HIS262     -0.2267
    199  CD2      -36.1920   17.1080    2.5790 C.ar  262  HIS262      0.1154
    200  CE1      -37.6310   15.7480    3.5190 C.ar  262  HIS262      0.1986
    201  NE2      -36.4170   16.2580    3.6310 N.ar  262  HIS262     -0.2212
@<TRIPOS>BOND
     1   165   166    1
     2   195   194    2
     3   194   193    1
     4   166   167    1
     5   166   169    1
     6   175   176    2
     7   175   174    1
     8   196   193    1
     9   196   197    1
    10   167   173   am
    11   167   168    2
    12   173   174    1
    13   193   192    1
    14   181   182    1
    15   192   183   am
    16   169   170    1
    17   171   170   ar
    18   174   177    1
    19   197   198   ar
    20   197   199   ar
    21   183   182    1
    22   183   184    2
    23   170   172   ar
    24   182   185    1
    25   178   177    1
    26   178   180    1
    27   198   200   ar
    28   199   201   ar
    29   177   179    1
    30   187   189   ar
    31   187   186   ar
    32   189   191   ar
    33   185   186    1
    34   186   188   ar
    35   200   201   ar
    36   191   190   ar
    37   188   190   ar
    38     6     7    1
    39     6     5    1
    40     7     1    1
    41   164   163    1
    42     1     2    1
    43   162   163   ar
    44   162   160   ar
    45   144   142    1
    46     5     2    1
    47   163   161   ar
    48   160   158   ar
    49   143   142    1
    50     2     3    1
    51    27    26    1
    52   161   159   ar
    53   158   159   ar
    54   158   157    1
    55   122   123   ar
    56   122   120   ar
    57   142   141    1
    58   123   121   ar
    59    24    26   ar
    60    24    22   ar
    61   157   154    1
    62   120   117   ar
    63    26    25   ar
    64   121   119   ar
    65   141   138    1
    66     3     4    2
    67     3     8   am
    68   117   119   ar
    69   117   115   ar
    70   119   118   ar
    71    22    21   ar
    72   140   139    2
    73   138   139    1
    74   138   137    1
    75   154   155    1
    76   154   153    1
    77   115   114    1
    78   115   116   ar
    79    25    23   ar
    80     8     9    1
    81   118   116   ar
    82   156   155    2
    83   114   111    1
    84    21    23   ar
    85    21    20    1
    86   152   150   am
    87   153   147   am
    88   111   112    1
    89   111   110    1
    90   137   134   am
    91   113   112    2
    92    11    10    2
    93     9    10    1
    94     9    12    1
    95    10    16   am
    96   151   150    2
    97   150   149    1
    98   135   134    2
    99   134   133    1
   100    20    17    1
   101   108   107    1
   102    17    16    1
   103    17    18    1
   104   110   105   am
   105   147   148    2
   106   147   146    1
   107    13    12    1
   108    13    15    1
   109    14    12    1
   110   136   133    1
   111   106   105    2
   112   145   146    1
   113   105   104    1
   114   109   107    1
   115   100    98   ar
   116   100   101   ar
   117   133   132    1
   118   146   149    1
   119    28    18   am
   120    28    29    1
   121   107   104    1
   122    18    19    2
   123    98    96   ar
   124   102   101    1
   125   132   126   am
   126    32    29    1
   127    32    33    1
   128    47    45   ar
   129   104   103    1
   130   101    99   ar
   131    29    30    1
   132    35    33   ar
   133    35    37   ar
   134   124   125    1
   135    44    45    1
   136    44    41    1
   137   126   127    2
   138   126   125    1
   139    33    34   ar
   140   103    93   am
   141    45    46   ar
   142    96    95    1
   143    96    97   ar
   144    31    30    2
   145    37    38   ar
   146    95    92    1
   147    99    97   ar
   148    93    94    2
   149    93    92    1
   150   125   128    1
   151    34    36   ar
   152    40    41    1
   153    41    42    1
   154    38    36   ar
   155    38    39    1
   156    92    91    1
   157   128   129    1
   158    91    86   am
   159    43    42    2
   160    89    88    1
   161   129   130   ar
   162   129   131   ar
   163    86    87    2
   164    86    85    1
   165    88    85    1
   166    88    90    1
   167    85    84    1
   168    51    50    2
   169    69    68    2
   170    48    49    1
   171    50    58   am
   172    50    49    1
   173    59    58    1
   174    59    60    1
   175    78    76    1
   176    66    63    1
   177    66    67    1
   178    62    60   am
   179    62    63    1
   180    68    70   am
   181    68    67    1
   182    52    49    1
   183    52    53    1
   184    60    61    2
   185    77    76    1
   186    54    53   ar
   187    54    56   ar
   188    64    63    1
   189    64    65    2
   190    76    75    1
   191    53    55   ar
   192    56    57   ar
   193    83    80    1
   194    55    57   ar
   195    75    72    1
   196    80    81    1
   197    80    79    1
   198    72    71    1
   199    72    73    1
   200    81    82    2
   201    74    73    2
