@<TRIPOS>MOLECULE
tmp/5tqzB00.pdb
 78 72 0 0 0
SMALL
GASTEIGER

@<TRIPOS>ATOM
      1  N         -0.2300  -15.4990    1.9570 N.3    15  GLY15      -0.1210
      2  CA        -0.2270  -16.9640    1.6990 C.3    15  GLY15       0.1956
      3  C         -1.3490  -17.6830    2.4200 C.2    15  GLY15       0.2612
      4  O         -2.2360  -17.0590    3.0720 O.2    15  GLY15      -0.2717
      5  N         -1.3650  -19.0510    2.2790 N.am   16  GLY16      -0.1942
      6  CA        -2.4280  -19.8370    2.9580 C.3    16  GLY16       0.2014
      7  C         -3.8290  -19.6660    2.2570 C.2    16  GLY16       0.2638
      8  O         -3.8870  -19.1720    1.1240 O.2    16  GLY16      -0.2714
      9  N         -4.8500  -20.2350    2.8250 N.am   17  ASN17      -0.1972
     10  CA        -6.2160  -20.1040    2.2340 C.3    17  ASN17       0.1688
     11  C         -7.0580  -19.2990    3.2650 C.2    17  ASN17       0.2292
     12  O         -6.9380  -19.3720    4.5030 O.2    17  ASN17      -0.2864
     13  CB        -6.7670  -21.4620    2.0590 C.3    17  ASN17       0.1181
     14  CG        -5.9220  -22.2770    1.1400 C.2    17  ASN17       0.2629
     15  OD1       -5.7710  -21.9340    0.0140 O.2    17  ASN17      -0.2716
     16  ND2       -5.2670  -23.3140    1.7060 N.am   17  ASN17      -0.0877
     17  N         10.1950  -21.6430    5.7380 N.3    90  LEU90      -0.1231
     18  CA         8.8690  -21.3730    5.0180 C.3    90  LEU90       0.1693
     19  C          9.3030  -21.7270    3.6360 C.2    90  LEU90       0.2592
     20  O         10.2240  -21.1020    3.1330 O.2    90  LEU90      -0.2718
     21  CB         8.3880  -19.8490    4.9140 C.3    90  LEU90       0.0284
     22  CG         6.9970  -19.1550    5.1450 C.3    90  LEU90       0.0019
     23  CD1        6.2890  -19.8730    6.2720 C.3    90  LEU90       0.0001
     24  CD2        7.1060  -17.6300    5.4390 C.3    90  LEU90       0.0001
     25  N          8.6280  -22.7230    3.0420 N.am   91  ALA91      -0.1966
     26  CA         8.7450  -23.0730    1.6100 C.3    91  ALA91       0.1728
     27  C          8.3070  -21.9350    0.7050 C.2    91  ALA91       0.2613
     28  O          8.6240  -21.9960   -0.4700 O.2    91  ALA91      -0.2715
     29  CB         7.9460  -24.3370    1.2760 C.3    91  ALA91       0.0334
     30  N          7.5680  -20.9260    1.1910 N.am   92  THR92      -0.2004
     31  CA         7.3080  -19.7920    0.2840 C.3    92  THR92       0.1584
     32  C          8.0920  -18.5060    0.5770 C.3    92  THR92       0.2062
     33  O          9.0870  -18.3730   -0.1340 O.3    92  THR92      -0.2184
     34  CB         5.8640  -19.6640   -0.2830 C.3    92  THR92       0.1745
     35  OG1        5.9070  -20.0200   -1.6820 O.3    92  THR92      -0.2212
     36  CG2        5.3390  -18.3030   -0.1830 C.3    92  THR92       0.0374
     37  N          6.6060  -15.1220    2.3180 N.3    94  THR94      -0.1218
     38  CA         5.7340  -14.0260    2.7150 C.3    94  THR94       0.1862
     39  C          5.4980  -14.0700    4.2680 C.2    94  THR94       0.2287
     40  O          5.8380  -14.9880    4.8910 O.2    94  THR94      -0.2866
     41  CB         4.3280  -14.1780    2.1030 C.3    94  THR94       0.1770
     42  OG1        3.8540  -15.5530    2.2700 O.3    94  THR94      -0.2211
     43  CG2        4.3120  -13.8950    0.7070 C.3    94  THR94       0.0375
     44  N          3.8860  -14.4170    7.9910 N.3    96  VAL96      -0.1245
     45  CA         2.9250  -15.1340    8.7630 C.3    96  VAL96       0.1561
     46  C          2.7570  -14.4730   10.1190 C.2    96  VAL96       0.2260
     47  O          3.5780  -13.5910   10.5320 O.2    96  VAL96      -0.2867
     48  CB         3.2990  -16.6650    8.8820 C.3    96  VAL96       0.0252
     49  CG1        3.5090  -17.1740    7.4180 C.3    96  VAL96       0.0019
     50  CG2        4.4930  -16.8610    9.7940 C.3    96  VAL96       0.0019
     51  N         -2.4250  -21.7750    6.0590 N.3   138  GLY138     -0.1210
     52  CA        -1.8130  -22.9280    5.2890 C.3   138  GLY138      0.1956
     53  C         -1.2640  -23.9830    6.2020 C.2   138  GLY138      0.2612
     54  O         -2.0840  -24.7200    6.7230 O.2   138  GLY138     -0.2717
     55  N          0.0960  -24.1500    6.3870 N.am  139  ASP139     -0.1959
     56  CA         0.5390  -24.9470    7.5060 C.3   139  ASP139      0.1840
     57  C          0.7030  -24.0890    8.6820 C.2   139  ASP139      0.2621
     58  O          0.9130  -24.5360    9.8240 O.2   139  ASP139     -0.2715
     59  CB         1.8600  -25.6770    7.2200 C.3   139  ASP139      0.1450
     60  CG         1.7860  -26.5130    5.9860 C.2   139  ASP139      0.3671
     61  OD1        0.8210  -27.3230    5.9170 O.co2 139  ASP139     -0.2456
     62  OD2        2.5870  -26.2660    5.0900 O.co2 139  ASP139     -0.2456
     63  N          0.6020  -22.7990    8.4750 N.am  140  LEU140     -0.1977
     64  CA         0.6340  -21.8960    9.6380 C.3   140  LEU140      0.1596
     65  C         -0.4760  -20.8450    9.5350 C.2   140  LEU140      0.2287
     66  O         -1.1660  -20.7710    8.4930 O.2   140  LEU140     -0.2864
     67  CB         1.9940  -21.0810    9.7130 C.3   140  LEU140      0.0297
     68  CG         3.2340  -21.9130    9.7130 C.3   140  LEU140      0.0022
     69  CD1        4.3420  -20.9650    9.5910 C.3   140  LEU140      0.0001
     70  CD2        3.3660  -22.6100   11.0480 C.3   140  LEU140      0.0001
     71  N         -1.1570  -17.6140    8.4290 N.3   142  ASP142     -0.1295
     72  CA        -0.5850  -16.5050    7.6270 C.3   142  ASP142      0.1359
     73  C         -1.1380  -15.1000    8.0460 C.3   142  ASP142      0.2015
     74  O         -0.3680  -14.0620    7.9610 O.3   142  ASP142     -0.2188
     75  CB        -0.8870  -16.7230    6.1810 C.3   142  ASP142      0.1357
     76  CG        -0.1990  -17.9260    5.6360 C.2   142  ASP142      0.3664
     77  OD1       -0.7550  -19.0570    5.8490 O.co2 142  ASP142     -0.2456
     78  OD2        0.8660  -17.7570    4.8940 O.co2 142  ASP142     -0.2456
@<TRIPOS>BOND
     1    35    34    1
     2    28    27    2
     3    34    36    1
     4    34    31    1
     5    33    32    1
     6    15    14    2
     7    31    32    1
     8    31    30    1
     9    27    30   am
    10    27    26    1
    11    43    41    1
    12     8     7    2
    13    14    16   am
    14    14    13    1
    15    29    26    1
    16    26    25    1
    17     2     1    1
    18     2     3    1
    19    13    10    1
    20    41    42    1
    21    41    38    1
    22    10     9    1
    23    10    11    1
    24     7     9   am
    25     7     6    1
    26     5     3   am
    27     5     6    1
    28    37    38    1
    29     3     4    2
    30    38    39    1
    31    25    19   am
    32    20    19    2
    33    11    12    2
    34    19    18    1
    35    39    40    2
    36    78    76   ar
    37    21    18    1
    38    21    22    1
    39    18    17    1
    40    62    60   ar
    41    22    24    1
    42    22    23    1
    43    52    51    1
    44    52    53    1
    45    76    77   ar
    46    76    75    1
    47    61    60   ar
    48    60    59    1
    49    75    72    1
    50    53    55   am
    51    53    54    2
    52    55    56    1
    53    59    56    1
    54    49    48    1
    55    56    57    1
    56    72    73    1
    57    72    71    1
    58    74    73    1
    59    44    45    1
    60    63    57   am
    61    63    64    1
    62    66    65    2
    63    57    58    2
    64    45    48    1
    65    45    46    1
    66    48    50    1
    67    65    64    1
    68    69    68    1
    69    64    67    1
    70    67    68    1
    71    68    70    1
    72    46    47    2
