@<TRIPOS>MOLECULE
tmp/5tr1D01.pdb
 93 90 0 0 0
SMALL
GASTEIGER

@<TRIPOS>ATOM
      1  N        163.1680  134.6970  128.1530 N.3    11  VAL11      -0.1231
      2  CA       162.6520  135.7330  129.0410 C.3    11  VAL11       0.1692
      3  C        163.4720  135.7820  130.3400 C.2    11  VAL11       0.2592
      4  O        163.9120  136.8430  130.8160 O.2    11  VAL11      -0.2718
      5  CB       161.1500  135.4540  129.3530 C.3    11  VAL11       0.0266
      6  CG1      160.6310  136.3360  130.4790 C.3    11  VAL11       0.0020
      7  CG2      160.2920  135.6210  128.0980 C.3    11  VAL11       0.0020
      8  N        163.6430  134.5870  130.8820 N.am   12  GLY12      -0.1957
      9  CA       164.3890  134.3740  132.1330 C.3    12  GLY12       0.1869
     10  C        165.8050  134.8910  131.9840 C.2    12  GLY12       0.2309
     11  O        166.3110  135.6010  132.8740 O.2    12  GLY12      -0.2863
     12  N        166.9260  137.0720  129.8620 N.3    14  ASP14      -0.1225
     13  CA       166.8480  138.5310  129.7250 C.3    14  ASP14       0.1805
     14  C        166.7960  139.1790  131.1150 C.2    14  ASP14       0.2597
     15  O        167.5290  140.1500  131.3910 O.2    14  ASP14      -0.2718
     16  CB       165.6050  138.9470  128.9260 C.3    14  ASP14       0.1424
     17  CG       165.5830  140.4380  128.6210 C.2    14  ASP14       0.3668
     18  OD1      166.6500  141.1480  128.6630 O.co2  14  ASP14      -0.2456
     19  OD2      164.5230  140.9160  128.1920 O.co2  14  ASP14      -0.2456
     20  N        165.9330  138.6080  131.9520 N.am   15  TRP15      -0.1976
     21  CA       165.7240  139.1070  133.3040 C.3    15  TRP15       0.1640
     22  C        167.0690  139.0400  134.0980 C.2    15  TRP15       0.2290
     23  O        167.4670  139.9940  134.7790 O.2    15  TRP15      -0.2864
     24  CB       164.4830  138.5360  133.9960 C.3    15  TRP15       0.0576
     25  CG       163.2700  139.1360  133.3410 C.ar   15  TRP15       0.0006
     26  CD1      162.4280  138.5210  132.4840 C.ar   15  TRP15       0.0946
     27  CD2      162.8350  140.5030  133.4130 C.ar   15  TRP15       0.0152
     28  NE1      161.4710  139.3900  132.0420 N.ar   15  TRP15      -0.2442
     29  CE2      161.6940  140.6190  132.5960 C.ar   15  TRP15       0.0810
     30  CE3      163.2860  141.6320  134.1060 C.ar   15  TRP15       0.0012
     31  CZ2      160.9890  141.8190  132.4500 C.ar   15  TRP15       0.0191
     32  CZ3      162.5830  142.8300  133.9620 C.ar   15  TRP15       0.0001
     33  CH2      161.4470  142.9100  133.1390 C.ar   15  TRP15       0.0015
     34  N        166.0820  146.5720  120.7650 N.3   154  LYS154     -0.1245
     35  CA       166.3200  145.7870  121.9830 C.3   154  LYS154      0.1561
     36  C        167.5300  146.3380  122.7310 C.2   154  LYS154      0.2260
     37  O        167.4900  146.5320  123.9580 O.2   154  LYS154     -0.2867
     38  CB       166.5520  144.3030  121.6500 C.3   154  LYS154      0.0271
     39  CG       165.3620  143.5650  121.0420 C.3   154  LYS154      0.0035
     40  CD       164.2210  143.3850  122.0320 C.3   154  LYS154      0.0206
     41  CE       163.0770  142.5940  121.4190 C.3   154  LYS154      0.1093
     42  NZ       161.8450  142.6600  122.2540 N.3   154  LYS154     -0.1314
     43  N        166.8260  149.6090  124.3510 N.3   157  GLU157     -0.1245
     44  CA       166.0120  149.3540  125.5450 C.3   157  GLU157      0.1567
     45  C        166.9100  148.9650  126.7170 C.2   157  GLU157      0.2260
     46  O        166.7630  149.4830  127.8370 O.2   157  GLU157     -0.2867
     47  CB       164.9620  148.2610  125.2880 C.3   157  GLU157      0.0388
     48  CG       163.7390  148.7340  124.5070 C.3   157  GLU157      0.1160
     49  CD       162.6870  147.6500  124.2930 C.2   157  GLU157      0.3649
     50  OE1      162.9520  146.4670  124.5990 O.co2 157  GLU157     -0.2457
     51  OE2      161.5800  147.9860  123.8180 O.co2 157  GLU157     -0.2457
     52  N        158.7920  153.0330  126.2460 N.3   190  SER190     -0.1217
     53  CA       157.7440  152.0600  126.5710 C.3   190  SER190      0.1889
     54  C        157.7210  151.7860  128.0720 C.2   190  SER190      0.2288
     55  O        158.7060  152.0220  128.7830 O.2   190  SER190     -0.2866
     56  CB       157.9690  150.7450  125.8170 C.3   190  SER190      0.2089
     57  OG       156.9230  149.8170  126.0670 O.3   190  SER190     -0.2183
     58  N        157.5750  148.8200  129.3720 N.3   192  TRP192     -0.1241
     59  CA       158.3710  147.6800  129.7500 C.3   192  TRP192      0.1605
     60  C        159.7850  148.0570  130.0950 C.2   192  TRP192      0.2264
     61  O        160.3020  147.5030  131.0720 O.2   192  TRP192     -0.2867
     62  CB       158.2210  146.5240  128.7630 C.3   192  TRP192      0.0550
     63  CG       156.9470  145.7900  129.0730 C.ar  192  TRP192      0.0003
     64  CD1      155.7640  145.8700  128.4010 C.ar  192  TRP192      0.0946
     65  CD2      156.7150  144.9290  130.1940 C.ar  192  TRP192      0.0152
     66  NE1      154.8170  145.0790  129.0100 N.ar  192  TRP192     -0.2442
     67  CE2      155.3740  144.4940  130.1170 C.ar  192  TRP192      0.0810
     68  CE3      157.5180  144.4700  131.2500 C.ar  192  TRP192      0.0012
     69  CZ2      154.8160  143.6140  131.0540 C.ar  192  TRP192      0.0191
     70  CZ3      156.9640  143.5940  132.1830 C.ar  192  TRP192      0.0001
     71  CH2      155.6240  143.1770  132.0770 C.ar  192  TRP192      0.0015
     72  N        161.6150  147.3730  133.6660 N.3   196  ARG196     -0.1245
     73  CA       162.9490  146.7630  133.7130 C.3   196  ARG196      0.1563
     74  C        163.8610  147.5760  134.6370 C.2   196  ARG196      0.2260
     75  O        164.5670  147.0210  135.5080 O.2   196  ARG196     -0.2867
     76  CB       163.6050  146.7400  132.3230 C.3   196  ARG196      0.0307
     77  CG       163.0200  145.7740  131.3050 C.3   196  ARG196      0.0489
     78  CD       163.8930  145.7500  130.0580 C.3   196  ARG196      0.2205
     79  NE       163.2320  145.1420  128.9020 N.pl3 196  ARG196     -0.0865
     80  CZ       162.7510  145.7940  127.8400 C.cat 196  ARG196      0.5346
     81  NH1      162.8250  147.1170  127.7340 N.pl3 196  ARG196      0.1354
     82  NH2      162.1800  145.1070  126.8590 N.pl3 196  ARG196      0.1354
     83  N        162.9480  147.2280  138.2270 N.3   199  PHE199     -0.1241
     84  CA       163.4120  145.9110  138.6850 C.3   199  PHE199      0.1605
     85  C        164.8940  145.9940  139.0770 C.2   199  PHE199      0.2264
     86  O        165.3010  145.5100  140.1550 O.2   199  PHE199     -0.2867
     87  CB       163.1890  144.8720  137.5810 C.3   199  PHE199      0.0534
     88  CG       163.4920  143.4650  137.9940 C.ar  199  PHE199     -0.0203
     89  CD1      162.7400  142.8420  138.9820 C.ar  199  PHE199     -0.0042
     90  CD2      164.5150  142.7540  137.3840 C.ar  199  PHE199     -0.0042
     91  CE1      163.0110  141.5370  139.3650 C.ar  199  PHE199     -0.0003
     92  CE2      164.7890  141.4500  137.7600 C.ar  199  PHE199     -0.0003
     93  CZ       164.0380  140.8380  138.7510 C.ar  199  PHE199     -0.0000
@<TRIPOS>BOND
     1    34    35    1
     2    39    38    1
     3    39    40    1
     4    41    40    1
     5    41    42    1
     6    38    35    1
     7    35    36    1
     8    36    37    2
     9    51    49   ar
    10    49    48    1
    11    49    50   ar
    12    43    44    1
    13    48    47    1
    14    47    44    1
    15    44    45    1
    16    56    57    1
    17    56    53    1
    18    52    53    1
    19    53    54    1
    20    45    46    2
    21    82    80    1
    22    81    80    1
    23    80    79    2
    24    54    55    2
    25     7     5    1
    26     1     2    1
    27    19    17   ar
    28    64    66   ar
    29    64    63   ar
    30    17    18   ar
    31    17    16    1
    32    62    63    1
    33    62    59    1
    34    79    78    1
    35    16    13    1
    36    66    67   ar
    37     2     5    1
    38     2     3    1
    39    63    65   ar
    40     5     6    1
    41    58    59    1
    42    13    12    1
    43    13    14    1
    44    59    60    1
    45    78    77    1
    46    60    61    2
    47    67    65   ar
    48    67    69   ar
    49    65    68   ar
    50     3     4    2
    51     3     8   am
    52     8     9    1
    53    69    71   ar
    54    14    15    2
    55    14    20   am
    56    68    70   ar
    57    77    76    1
    58    20    21    1
    59    10     9    1
    60    10    11    2
    61    28    26   ar
    62    28    29   ar
    63    71    70   ar
    64    76    73    1
    65    31    29   ar
    66    31    33   ar
    67    26    25   ar
    68    29    27   ar
    69    33    32   ar
    70    21    24    1
    71    21    22    1
    72    25    27   ar
    73    25    24    1
    74    27    30   ar
    75    72    73    1
    76    73    74    1
    77    32    30   ar
    78    22    23    2
    79    74    75    2
    80    90    92   ar
    81    90    88   ar
    82    87    88    1
    83    87    84    1
    84    92    93   ar
    85    88    89   ar
    86    83    84    1
    87    84    85    1
    88    93    91   ar
    89    89    91   ar
    90    85    86    2
