@<TRIPOS>MOLECULE
tmp/5tr4A00.pdb
 203 195 0 0 0
SMALL
GASTEIGER

@<TRIPOS>ATOM
      1  N         61.3220   21.9030   51.3180 N.3   427  VAL427     -0.1231
      2  CA        62.2350   22.9880   51.0290 C.3   427  VAL427      0.1692
      3  C         61.5000   24.0170   50.1620 C.2   427  VAL427      0.2593
      4  O         61.3650   23.8460   48.9460 O.2   427  VAL427     -0.2718
      5  CB        63.5310   22.4770   50.3470 C.3   427  VAL427      0.0266
      6  CG1       64.6310   23.5160   50.4160 C.3   427  VAL427      0.0020
      7  CG2       64.0210   21.1780   50.9850 C.3   427  VAL427      0.0020
      8  N         61.0240   25.0820   50.8020 N.am  428  GLY428     -0.1942
      9  CA        60.3160   26.1530   50.1040 C.3   428  GLY428      0.2014
     10  C         58.8900   26.2730   50.5920 C.2   428  GLY428      0.2640
     11  O         58.2010   25.2700   50.8000 O.2   428  GLY428     -0.2714
     12  N         58.4510   27.5110   50.7770 N.am  429  SER429     -0.1935
     13  CA        57.1260   27.7890   51.3270 C.3   429  SER429      0.2055
     14  C         56.3640   28.8320   50.4780 C.2   429  SER429      0.2644
     15  O         55.5730   29.6250   51.0070 O.2   429  SER429     -0.2714
     16  CB        57.2670   28.2390   52.7900 C.3   429  SER429      0.2130
     17  OG        55.9970   28.3090   53.4050 O.3   429  SER429     -0.2179
     18  N         56.6280   28.8180   49.1660 N.am  430  GLY430     -0.1939
     19  CA        56.0450   29.7500   48.2020 C.3   430  GLY430      0.2014
     20  C         54.8250   29.1330   47.5420 C.2   430  GLY430      0.2639
     21  O         53.9690   28.5790   48.2310 O.2   430  GLY430     -0.2714
     22  N         54.7420   29.2220   46.2140 N.am  431  ALA431     -0.1963
     23  CA        53.5650   28.7190   45.4940 C.3   431  ALA431      0.1728
     24  C         53.3910   27.2120   45.6960 C.2   431  ALA431      0.2616
     25  O         52.3600   26.7750   46.2150 O.2   431  ALA431     -0.2715
     26  CB        53.6120   29.0830   44.0250 C.3   431  ALA431      0.0334
     27  N         54.4040   26.4310   45.3270 N.am  432  ILE432     -0.1977
     28  CA        54.3420   24.9670   45.4750 C.3   432  ILE432      0.1596
     29  C         54.2250   24.5800   46.9560 C.2   432  ILE432      0.2287
     30  O         53.4100   23.7260   47.2990 O.2   432  ILE432     -0.2864
     31  CB        55.4910   24.2290   44.7010 C.3   432  ILE432      0.0276
     32  CG1       55.2340   24.3460   43.1830 C.3   432  ILE432      0.0022
     33  CG2       55.5840   22.7390   45.0900 C.3   432  ILE432      0.0022
     34  CD1       56.3370   23.7940   42.2970 C.3   432  ILE432      0.0001
     35  N         61.0310   24.8590   55.5150 N.3   456  THR456     -0.1203
     36  CA        61.9680   25.9520   55.5900 C.3   456  THR456      0.1994
     37  C         61.9280   26.8580   54.3590 C.2   456  THR456      0.2618
     38  O         61.7660   26.3970   53.2280 O.2   456  THR456     -0.2717
     39  CB        63.4070   25.4670   55.9240 C.3   456  THR456      0.1784
     40  OG1       64.1430   26.5560   56.4940 O.3   456  THR456     -0.2211
     41  CG2       64.1460   24.9140   54.6860 C.3   456  THR456      0.0376
     42  N         62.0570   28.1540   54.6220 N.am  457  ASP457     -0.1959
     43  CA        62.1270   29.2000   53.6060 C.3   457  ASP457      0.1840
     44  C         62.7180   30.4110   54.3230 C.2   457  ASP457      0.2622
     45  O         62.2980   30.7340   55.4480 O.2   457  ASP457     -0.2715
     46  CB        60.7260   29.5250   53.0570 C.3   457  ASP457      0.1450
     47  CG        60.7580   30.1550   51.6570 C.2   457  ASP457      0.3671
     48  OD1       61.6380   30.9910   51.3830 O.co2 457  ASP457     -0.2456
     49  OD2       59.8730   29.8280   50.8240 O.co2 457  ASP457     -0.2456
     50  N         63.6970   31.0510   53.6830 N.am  458  MET458     -0.1963
     51  CA        64.3630   32.2370   54.2290 C.3   458  MET458      0.1736
     52  C         63.6370   33.5440   53.8920 C.2   458  MET458      0.2616
     53  O         64.0220   34.6150   54.3820 O.2   458  MET458     -0.2715
     54  CB        65.8310   32.3080   53.7610 C.3   458  MET458      0.0427
     55  CG        66.0320   32.6310   52.2840 C.3   458  MET458      0.0599
     56  SD        65.8020   31.2170   51.1730 S.3   458  MET458     -0.1393
     57  CE        65.8700   32.0490   49.5840 C.3   458  MET458      0.0692
     58  N         62.5980   33.4540   53.0620 N.am  459  ASP459     -0.1971
     59  CA        62.0310   34.6370   52.4170 C.3   459  ASP459      0.1709
     60  C         60.7970   35.1620   53.1440 C.2   459  ASP459      0.2293
     61  O         60.1030   34.4080   53.8310 O.2   459  ASP459     -0.2864
     62  CB        61.7100   34.3300   50.9470 C.3   459  ASP459      0.1436
     63  CG        61.6030   35.5850   50.0730 C.2   459  ASP459      0.3671
     64  OD1       62.1550   36.6480   50.4430 O.co2 459  ASP459     -0.2456
     65  OD2       60.9690   35.4980   48.9930 O.co2 459  ASP459     -0.2456
     66  N         49.1550   33.7640   44.0230 N.3   468  ARG468     -0.1231
     67  CA        49.3350   32.3240   43.8430 C.3   468  ARG468      0.1694
     68  C         49.7440   31.5810   45.1240 C.2   468  ARG468      0.2591
     69  O         49.8580   30.3620   45.1130 O.2   468  ARG468     -0.2718
     70  CB        50.3350   32.0570   42.7110 C.3   468  ARG468      0.0321
     71  CG        51.7720   32.4210   43.0490 C.3   468  ARG468      0.0489
     72  CD        52.6930   32.2960   41.8400 C.3   468  ARG468      0.2205
     73  NE        54.1090   32.4970   42.1920 N.pl3 468  ARG468     -0.0865
     74  CZ        54.6950   33.6820   42.3680 C.cat 468  ARG468      0.5346
     75  NH1       53.9990   34.8180   42.2210 N.pl3 468  ARG468      0.1354
     76  NH2       55.9850   33.7280   42.6950 N.pl3 468  ARG468      0.1354
     77  N         49.9840   32.3130   46.2140 N.am  469  GLN469     -0.1979
     78  CA        50.4060   31.6790   47.4640 C.3   469  GLN469      0.1601
     79  C         49.2890   31.9120   48.4550 C.2   469  GLN469      0.2287
     80  O         49.3430   32.8450   49.2750 O.2   469  GLN469     -0.2864
     81  CB        51.7620   32.2260   47.9220 C.3   469  GLN469      0.0394
     82  CG        52.8480   32.0000   46.8790 C.3   469  GLN469      0.0908
     83  CD        54.1700   32.6900   47.1520 C.2   469  GLN469      0.2608
     84  OE1       54.5620   32.9080   48.2930 O.2   469  GLN469     -0.2717
     85  NE2       54.8840   33.0120   46.0860 N.am  469  GLN469     -0.0878
     86  N         57.3320   33.5330   55.2940 N.3   481  LYS481     -0.1245
     87  CA        56.4920   32.5910   54.5300 C.3   481  LYS481      0.1561
     88  C         56.2060   31.3140   55.2910 C.2   481  LYS481      0.2260
     89  O         55.0390   30.9450   55.4610 O.2   481  LYS481     -0.2867
     90  CB        57.1220   32.2610   53.1730 C.3   481  LYS481      0.0271
     91  CG        57.0530   33.3840   52.1480 C.3   481  LYS481      0.0035
     92  CD        57.4770   32.8570   50.7890 C.3   481  LYS481      0.0206
     93  CE        57.5430   33.9490   49.7530 C.3   481  LYS481      0.1093
     94  NZ        57.9270   33.3810   48.4350 N.3   481  LYS481     -0.1314
     95  N         65.5270   29.0900   57.5640 N.3   505  ASP505     -0.1225
     96  CA        66.8810   28.8880   57.0300 C.3   505  ASP505      0.1805
     97  C         66.9160   28.5570   55.5470 C.2   505  ASP505      0.2598
     98  O         66.0400   27.8510   55.0310 O.2   505  ASP505     -0.2718
     99  CB        67.6030   27.8240   57.8370 C.3   505  ASP505      0.1424
    100  CG        67.6500   28.1680   59.3040 C.2   505  ASP505      0.3668
    101  OD1       68.4960   29.0010   59.6940 O.co2 505  ASP505     -0.2456
    102  OD2       66.8140   27.6310   60.0530 O.co2 505  ASP505     -0.2456
    103  N         67.9350   29.0930   54.8830 N.am  506  ARG506     -0.1966
    104  CA        68.1960   28.8700   53.4750 C.3   506  ARG506      0.1729
    105  C         69.0640   27.6250   53.3290 C.2   506  ARG506      0.2616
    106  O         70.2000   27.5970   53.8110 O.2   506  ARG506     -0.2715
    107  CB        68.9100   30.0950   52.9000 C.3   506  ARG506      0.0348
    108  CG        69.3270   30.0220   51.4370 C.3   506  ARG506      0.0492
    109  CD        70.0230   31.3290   51.1000 C.3   506  ARG506      0.2205
    110  NE        70.4330   31.4440   49.7020 N.pl3 506  ARG506     -0.0865
    111  CZ        71.5610   30.9530   49.1810 C.cat 506  ARG506      0.5346
    112  NH1       72.4260   30.2590   49.9210 N.pl3 506  ARG506      0.1354
    113  NH2       71.8210   31.1490   47.8960 N.pl3 506  ARG506      0.1354
    114  N         68.5170   26.6060   52.6670 N.am  507  VAL507     -0.1963
    115  CA        69.2180   25.3480   52.4120 C.3   507  VAL507      0.1727
    116  C         70.3650   25.6030   51.4260 C.2   507  VAL507      0.2617
    117  O         70.1820   26.2280   50.3860 O.2   507  VAL507     -0.2715
    118  CB        68.2370   24.2430   51.9430 C.3   507  VAL507      0.0290
    119  CG1       68.9620   23.0060   51.4620 C.3   507  VAL507      0.0023
    120  CG2       67.3180   23.8340   53.0780 C.3   507  VAL507      0.0023
    121  N         71.5560   25.1480   51.7940 N.am  508  GLY508     -0.1941
    122  CA        72.7630   25.3570   51.0010 C.3   508  GLY508      0.1998
    123  C         73.9970   24.9350   51.7840 C.2   508  GLY508      0.2480
    124  O         73.8780   24.4500   52.9150 O.2   508  GLY508     -0.2729
    125  N         75.1970   25.1230   51.1980 N.am  509  PRO509     -0.2726
    126  CA        76.4400   24.6810   51.8610 C.3   509  PRO509      0.1402
    127  C         76.7050   25.3890   53.1950 C.2   509  PRO509      0.2269
    128  O         77.3710   24.8240   54.0570 O.2   509  PRO509     -0.2865
    129  CB        77.5260   25.0240   50.8400 C.3   509  PRO509      0.0296
    130  CG        76.9270   26.0910   49.9780 C.3   509  PRO509      0.0237
    131  CD        75.4650   25.7630   49.8970 C.3   509  PRO509      0.0939
    132  N         60.2060   22.5240   46.7410 N.3   529  ALA529     -0.1231
    133  CA        59.2180   23.5610   46.4240 C.3   529  ALA529      0.1694
    134  C         60.0120   24.8300   46.1020 C.2   529  ALA529      0.2592
    135  O         59.8010   25.8980   46.6970 O.2   529  ALA529     -0.2718
    136  CB        58.2790   23.7790   47.6070 C.3   529  ALA529      0.0304
    137  N         60.9330   24.6820   45.1550 N.am  530  LEU530     -0.1966
    138  CA        61.9410   25.6910   44.8480 C.3   530  LEU530      0.1728
    139  C         61.7120   26.4300   43.5300 C.2   530  LEU530      0.2616
    140  O         60.8930   26.0150   42.6990 O.2   530  LEU530     -0.2715
    141  CB        63.3260   25.0360   44.8510 C.3   530  LEU530      0.0311
    142  CG        63.7840   24.4640   46.1950 C.3   530  LEU530      0.0022
    143  CD1       64.9050   23.4440   46.0100 C.3   530  LEU530      0.0001
    144  CD2       64.1870   25.5750   47.1630 C.3   530  LEU530      0.0001
    145  N         62.4650   27.5100   43.3360 N.am  531  ASP531     -0.1957
    146  CA        62.3670   28.3320   42.1250 C.3   531  ASP531      0.1840
    147  C         63.7240   28.4900   41.4190 C.2   531  ASP531      0.2622
    148  O         63.8770   29.3260   40.5220 O.2   531  ASP531     -0.2715
    149  CB        61.6960   29.6900   42.4290 C.3   531  ASP531      0.1450
    150  CG        62.5420   30.6110   43.3360 C.2   531  ASP531      0.3671
    151  OD1       63.5340   30.1600   43.9590 O.co2 531  ASP531     -0.2456
    152  OD2       62.1970   31.8120   43.4330 O.co2 531  ASP531     -0.2456
    153  N         64.6960   27.6680   41.8160 N.am  532  ASN532     -0.1972
    154  CA        66.0640   27.7880   41.3200 C.3   532  ASN532      0.1688
    155  C         66.6640   26.3960   41.0490 C.2   532  ASN532      0.2292
    156  O         66.5370   25.4860   41.8650 O.2   532  ASN532     -0.2864
    157  CB        66.8950   28.5920   42.3340 C.3   532  ASN532      0.1181
    158  CG        68.3500   28.7400   41.9310 C.2   532  ASN532      0.2629
    159  OD1       69.1430   27.8030   42.0550 O.2   532  ASN532     -0.2716
    160  ND2       68.7170   29.9320   41.4840 N.am  532  ASN532     -0.0877
    161  N         69.9430   25.4810   40.8310 N.3   534  ASP534     -0.1225
    162  CA        71.0540   25.1840   41.7440 C.3   534  ASP534      0.1805
    163  C         70.5690   24.7070   43.1080 C.2   534  ASP534      0.2597
    164  O         71.1290   23.7680   43.6660 O.2   534  ASP534     -0.2718
    165  CB        71.9630   26.4050   41.9230 C.3   534  ASP534      0.1424
    166  CG        72.7030   26.7830   40.6550 C.2   534  ASP534      0.3668
    167  OD1       72.9200   25.9130   39.7740 O.co2 534  ASP534     -0.2456
    168  OD2       73.0660   27.9670   40.5470 O.co2 534  ASP534     -0.2456
    169  N         69.5420   25.3660   43.6400 N.am  535  ALA535     -0.1979
    170  CA        68.8890   24.9390   44.8690 C.3   535  ALA535      0.1597
    171  C         68.4060   23.4810   44.7440 C.2   535  ALA535      0.2287
    172  O         68.6350   22.6620   45.6480 O.2   535  ALA535     -0.2864
    173  CB        67.7340   25.8740   45.2040 C.3   535  ALA535      0.0319
    174  N         71.4130   21.1070   44.7020 N.3   538  TYR538     -0.1241
    175  CA        71.9280   20.9980   46.0610 C.3   538  TYR538      0.1605
    176  C         71.1390   19.9600   46.8760 C.2   538  TYR538      0.2264
    177  O         71.7230   19.0370   47.4360 O.2   538  TYR538     -0.2867
    178  CB        71.9880   22.3670   46.7820 C.3   538  TYR538      0.0534
    179  CG        72.5290   22.2120   48.1830 C.ar  538  TYR538     -0.0201
    180  CD1       73.9140   22.2130   48.4380 C.ar  538  TYR538     -0.0009
    181  CD2       71.6620   21.9650   49.2500 C.ar  538  TYR538     -0.0009
    182  CE1       74.4030   22.0000   49.7260 C.ar  538  TYR538      0.0417
    183  CE2       72.1390   21.7560   50.5280 C.ar  538  TYR538      0.0417
    184  CZ        73.4980   21.7710   50.7620 C.ar  538  TYR538      0.1957
    185  OH        73.9090   21.5640   52.0480 O.3   538  TYR538     -0.2866
    186  N         71.6090   16.3420   45.6340 N.3   541  ARG541     -0.1245
    187  CA        72.8880   15.8170   46.1190 C.3   541  ARG541      0.1563
    188  C         72.8240   15.3920   47.5900 C.2   541  ARG541      0.2260
    189  O         73.4540   14.4160   47.9740 O.2   541  ARG541     -0.2867
    190  CB        74.0240   16.8230   45.8850 C.3   541  ARG541      0.0307
    191  CG        74.3250   16.9450   44.3760 C.3   541  ARG541      0.0489
    192  CD        75.4260   17.9230   44.1210 C.3   541  ARG541      0.2205
    193  NE        75.2970   19.0840   44.9700 N.pl3 541  ARG541     -0.0865
    194  CZ        76.3360   19.6820   45.5530 C.cat 541  ARG541      0.5346
    195  NH1       77.5730   19.2500   45.3160 N.pl3 541  ARG541      0.1354
    196  NH2       76.1150   20.6750   46.4140 N.pl3 541  ARG541      0.1354
    197  N         57.1230   24.7110   37.8200 N.3   555  THR555     -0.1218
    198  CA        56.1650   25.3020   36.8780 C.3   555  THR555      0.1862
    199  C         56.8290   26.4330   36.1120 C.2   555  THR555      0.2287
    200  O         57.8480   26.9700   36.5510 O.2   555  THR555     -0.2866
    201  CB        54.8920   25.8660   37.5740 C.3   555  THR555      0.1770
    202  OG1       55.2450   27.0240   38.3350 O.3   555  THR555     -0.2211
    203  CG2       54.1930   24.8160   38.4980 C.3   555  THR555      0.0375
@<TRIPOS>BOND
     1   199   200    2
     2   199   198    1
     3   198   201    1
     4   198   197    1
     5   201   202    1
     6   201   203    1
     7   167   166   ar
     8   148   147    2
     9   168   166   ar
    10   166   165    1
    11   161   162    1
    12   155   154    1
    13   155   156    2
    14   154   153    1
    15   154   157    1
    16   147   153   am
    17   147   146    1
    18   160   158   am
    19   162   165    1
    20   162   163    1
    21    72    73    1
    22    72    71    1
    23   158   159    2
    24   158   157    1
    25   146   149    1
    26   146   145    1
    27    73    74    2
    28    75    74    1
    29    34    32    1
    30    74    76    1
    31   149   150    1
    32   140   139    2
    33    70    71    1
    34    70    67    1
    35   163   169   am
    36   163   164    2
    37    32    31    1
    38   145   139   am
    39   150   152   ar
    40   150   151   ar
    41   139   138    1
    42   169   170    1
    43    67    66    1
    44    67    68    1
    45    26    23    1
    46   192   191    1
    47   192   193    1
    48   191   190    1
    49    31    33    1
    50    31    28    1
    51   174   175    1
    52   171   170    1
    53   171   172    2
    54   138   141    1
    55   138   137    1
    56   141   142    1
    57   170   173    1
    58   193   194    2
    59    69    68    2
    60    68    77   am
    61   137   134   am
    62   195   194    1
    63    27    28    1
    64    27    24   am
    65    28    29    1
    66    23    24    1
    67    23    22    1
    68   194   196    1
    69   186   187    1
    70    24    25    2
    71   190   187    1
    72   143   142    1
    73   175   178    1
    74   175   176    1
    75    85    83   am
    76   134   133    1
    77   134   135    2
    78   187   188    1
    79   142   144    1
    80    77    78    1
    81    22    20   am
    82   133   132    1
    83   133   136    1
    84   178   179    1
    85   176   177    2
    86    82    83    1
    87    82    81    1
    88    29    30    2
    89    83    84    2
    90    78    81    1
    91    78    79    1
    92    20    19    1
    93    20    21    2
    94   188   189    2
    95   113   111    1
    96   179   180   ar
    97   179   181   ar
    98    19    18    1
    99    94    93    1
   100   180   182   ar
   101    79    80    2
   102     4     3    2
   103    65    63   ar
   104    18    14   am
   105   111   110    2
   106   111   112    1
   107   181   183   ar
   108    57    56    1
   109   110   109    1
   110   182   184   ar
   111    93    92    1
   112   131   130    1
   113   131   125    1
   114   130   129    1
   115    63    64   ar
   116    63    62    1
   117     9    10    1
   118     9     8    1
   119     3     8   am
   120     3     2    1
   121     5     6    1
   122     5     7    1
   123     5     2    1
   124   117   116    2
   125    14    15    2
   126    14    13    1
   127   183   184   ar
   128    10    12   am
   129    10    11    2
   130   184   185    1
   131    12    13    1
   132    92    91    1
   133    49    47   ar
   134   129   126    1
   135    62    59    1
   136   122   123    1
   137   122   121    1
   138     2     1    1
   139   109   108    1
   140    56    55    1
   141   125   123   am
   142   125   126    1
   143    13    16    1
   144    48    47   ar
   145   116   121   am
   146   116   115    1
   147   108   107    1
   148   119   118    1
   149    47    46    1
   150   123   124    2
   151   126   127    1
   152   118   115    1
   153   118   120    1
   154    91    90    1
   155    55    54    1
   156   115   114    1
   157    59    58    1
   158    59    60    1
   159   114   105   am
   160    16    17    1
   161   107   104    1
   162    46    43    1
   163    58    52   am
   164    60    61    2
   165    90    87    1
   166   127   128    2
   167    38    37    2
   168   105   104    1
   169   105   106    2
   170   104   103    1
   171    43    44    1
   172    43    42    1
   173    50    51    1
   174    50    44   am
   175    54    51    1
   176    52    51    1
   177    52    53    2
   178    44    45    2
   179    37    42   am
   180    37    36    1
   181    87    88    1
   182    87    86    1
   183    41    39    1
   184   103    97   am
   185    98    97    2
   186    88    89    2
   187    35    36    1
   188    97    96    1
   189    36    39    1
   190    39    40    1
   191    96    95    1
   192    96    99    1
   193    99   100    1
   194   100   101   ar
   195   100   102   ar
