@<TRIPOS>MOLECULE
tmp/5tr6A00.pdb
 156 148 0 0 0
SMALL
GASTEIGER

@<TRIPOS>ATOM
      1  N          1.0640    2.7670    8.8230 N.3    16  LEU16      -0.1231
      2  CA         1.3690    2.1980   10.1380 C.3    16  LEU16       0.1693
      3  C          1.7560    0.7270   10.0240 C.2    16  LEU16       0.2593
      4  O          2.6320    0.2610   10.7500 O.2    16  LEU16      -0.2718
      5  CB         0.1610    2.3010   11.0710 C.3    16  LEU16       0.0284
      6  CG        -0.4010    3.6870   11.3800 C.3    16  LEU16       0.0019
      7  CD1       -1.6980    3.5420   12.1630 C.3    16  LEU16       0.0001
      8  CD2        0.6080    4.5290   12.1450 C.3    16  LEU16       0.0001
      9  N          1.0660    0.0010    9.1450 N.am   17  GLY17      -0.1942
     10  CA         1.3400   -1.4140    8.8960 C.3    17  GLY17       0.2014
     11  C          0.8940   -1.8400    7.5110 C.2    17  GLY17       0.2639
     12  O          0.3600   -1.0290    6.7420 O.2    17  GLY17      -0.2714
     13  N          1.1210   -3.1120    7.1890 N.am   18  SER18      -0.1949
     14  CA         0.7340   -3.6620    5.8870 C.3    18  SER18       0.1924
     15  C          0.6230   -5.1850    5.9010 C.2    18  SER18       0.2314
     16  O          0.9570   -5.8390    6.8920 O.2    18  SER18      -0.2863
     17  CB         1.7250   -3.2210    4.8040 C.3    18  SER18       0.2116
     18  OG         2.9860   -3.8400    4.9880 O.3    18  SER18      -0.2180
     19  N         -3.9830   -8.1720    2.9740 N.3    21  PHE21      -0.1241
     20  CA        -5.1710   -7.3000    2.9600 C.3    21  PHE21       0.1605
     21  C         -4.9290   -5.9380    2.2900 C.2    21  PHE21       0.2264
     22  O         -5.7050   -5.5180    1.4240 O.2    21  PHE21      -0.2867
     23  CB        -5.7530   -7.1250    4.3850 C.3    21  PHE21       0.0534
     24  CG        -4.8390   -6.4140    5.3590 C.ar   21  PHE21      -0.0203
     25  CD1       -3.9090   -7.1220    6.1230 C.ar   21  PHE21      -0.0042
     26  CD2       -4.9270   -5.0320    5.5340 C.ar   21  PHE21      -0.0042
     27  CE1       -3.0750   -6.4670    7.0210 C.ar   21  PHE21      -0.0003
     28  CE2       -4.0920   -4.3730    6.4300 C.ar   21  PHE21      -0.0003
     29  CZ        -3.1670   -5.0900    7.1750 C.ar   21  PHE21      -0.0000
     30  N         -2.6050   -0.3650    6.9720 N.3    24  VAL24      -0.1245
     31  CA        -3.2070    0.3150    8.1140 C.3    24  VAL24       0.1561
     32  C         -2.6120    1.7170    8.1310 C.2    24  VAL24       0.2260
     33  O         -1.3880    1.8670    8.1250 O.2    24  VAL24      -0.2867
     34  CB        -2.9010   -0.4020    9.4450 C.3    24  VAL24       0.0252
     35  CG1       -3.5100    0.3540   10.6270 C.3    24  VAL24       0.0019
     36  CG2       -3.4130   -1.8330    9.4060 C.3    24  VAL24       0.0019
     37  N         -7.2920    4.4640   13.5040 N.3    39  ALA39      -0.1245
     38  CA        -6.4730    3.5860   12.6830 C.3    39  ALA39       0.1562
     39  C         -7.4070    2.9640   11.6580 C.2    39  ALA39       0.2260
     40  O         -8.4670    2.4570   12.0180 O.2    39  ALA39      -0.2867
     41  CB        -5.8370    2.5100   13.5350 C.3    39  ALA39       0.0290
     42  N         -7.8980    0.3730    8.4030 N.3    41  LYS41      -0.1245
     43  CA        -7.4630   -0.7180    7.5350 C.3    41  LYS41       0.1561
     44  C         -8.0450   -0.5050    6.1500 C.2    41  LYS41       0.2260
     45  O         -9.2590   -0.3960    6.0000 O.2    41  LYS41      -0.2867
     46  CB        -7.9080   -2.0740    8.0920 C.3    41  LYS41       0.0271
     47  CG        -6.8950   -2.7180    8.9990 C.3    41  LYS41       0.0035
     48  CD        -7.2270   -4.1710    9.2590 C.3    41  LYS41       0.0206
     49  CE        -6.3790   -4.6850   10.4020 C.3    41  LYS41       0.1093
     50  NZ        -6.5830   -6.1380   10.6630 N.3    41  LYS41      -0.1314
     51  N         -9.7230   -3.6820   20.9830 N.3    66  VAL66      -0.1245
     52  CA        -9.8200   -2.5290   20.0810 C.3    66  VAL66       0.1561
     53  C        -11.2770   -2.4120   19.5940 C.2    66  VAL66       0.2260
     54  O        -11.8650   -3.3940   19.1430 O.2    66  VAL66      -0.2867
     55  CB        -8.8700   -2.6660   18.8650 C.3    66  VAL66       0.0252
     56  CG1       -9.1160   -1.5680   17.8340 C.3    66  VAL66       0.0019
     57  CG2       -7.4040   -2.6470   19.3060 C.3    66  VAL66       0.0019
     58  N        -11.0350    1.9940   13.1070 N.3    81  MET81      -0.1230
     59  CA       -10.8910    1.5060   14.4880 C.3    81  MET81       0.1702
     60  C        -10.2520    2.5740   15.3930 C.2    81  MET81       0.2592
     61  O         -9.6740    3.5420   14.9050 O.2    81  MET81      -0.2718
     62  CB        -9.9970    0.2650   14.5010 C.3    81  MET81       0.0401
     63  CG       -10.4960   -0.9030   13.6630 C.3    81  MET81       0.0596
     64  SD        -9.1930   -2.1130   13.3590 S.3    81  MET81      -0.1393
     65  CE        -8.2460   -1.2840   12.0840 C.3    81  MET81       0.0692
     66  N        -10.3510    2.3710   16.7090 N.am   82  GLU82      -0.1966
     67  CA        -9.6080    3.1690   17.6920 C.3    82  GLU82       0.1733
     68  C         -8.1140    3.1100   17.3830 C.2    82  GLU82       0.2616
     69  O         -7.6100    2.0750   16.9290 O.2    82  GLU82      -0.2715
     70  CB        -9.7740    2.6180   19.1130 C.3    82  GLU82       0.0429
     71  CG       -11.1360    2.7770   19.7580 C.3    82  GLU82       0.1163
     72  CD       -11.1750    2.1590   21.1580 C.2    82  GLU82       0.3649
     73  OE1      -10.5980    1.0570   21.3630 O.co2  82  GLU82      -0.2457
     74  OE2      -11.7940    2.7720   22.0560 O.co2  82  GLU82      -0.2457
     75  N         -7.4270    4.2140   17.6570 N.am   83  MET83      -0.1963
     76  CA        -5.9730    4.3190   17.5020 C.3    83  MET83       0.1736
     77  C         -5.2660    3.8850   18.7960 C.2    83  MET83       0.2616
     78  O         -5.6300    4.3290   19.8790 O.2    83  MET83      -0.2715
     79  CB        -5.5940    5.7720   17.1530 C.3    83  MET83       0.0427
     80  CG        -4.1010    6.0840   17.0390 C.3    83  MET83       0.0599
     81  SD        -3.2740    5.1090   15.7700 S.3    83  MET83      -0.1393
     82  CE        -1.6990    5.9350   15.5890 C.3    83  MET83       0.0692
     83  N         -4.2540    3.0290   18.6700 N.am   84  ALA84      -0.1963
     84  CA        -3.3630    2.6820   19.7750 C.3    84  ALA84       0.1728
     85  C         -1.9900    3.2330   19.4040 C.2    84  ALA84       0.2616
     86  O         -1.2420    2.6060   18.6580 O.2    84  ALA84      -0.2715
     87  CB        -3.3190    1.1790   19.9840 C.3    84  ALA84       0.0334
     88  N         -1.6850    4.4110   19.9340 N.am   85  GLU85      -0.1963
     89  CA        -0.5650    5.2410   19.4720 C.3    85  GLU85       0.1733
     90  C          0.8250    4.6180   19.6150 C.2    85  GLU85       0.2616
     91  O          1.7000    4.8910   18.7940 O.2    85  GLU85      -0.2715
     92  CB        -0.5760    6.6070   20.1810 C.3    85  GLU85       0.0429
     93  CG        -1.7600    7.4950   19.8080 C.3    85  GLU85       0.1163
     94  CD        -1.6320    8.1470   18.4400 C.2    85  GLU85       0.3649
     95  OE1       -2.5440    8.9100   18.0610 O.co2  85  GLU85      -0.2457
     96  OE2       -0.6280    7.9060   17.7410 O.co2  85  GLU85      -0.2457
     97  N          1.0350    3.8080   20.6480 N.am   86  LEU86      -0.1963
     98  CA         2.3510    3.1970   20.8600 C.3    86  LEU86       0.1728
     99  C          2.5650    1.9460   20.0190 C.2    86  LEU86       0.2617
    100  O          3.6860    1.4570   19.9400 O.2    86  LEU86      -0.2715
    101  CB         2.5860    2.8780   22.3350 C.3    86  LEU86       0.0311
    102  CG         2.3750    3.9850   23.3770 C.3    86  LEU86       0.0022
    103  CD1        3.1820    3.6590   24.6250 C.3    86  LEU86       0.0001
    104  CD2        2.7100    5.3780   22.8730 C.3    86  LEU86       0.0001
    105  N          1.4990    1.4130   19.4220 N.am   87  GLY87      -0.1941
    106  CA         1.6250    0.3870   18.4030 C.3    87  GLY87       0.1998
    107  C          1.8060   -1.0270   18.9340 C.2    87  GLY87       0.2480
    108  O          1.5780   -1.2870   20.1230 O.2    87  GLY87      -0.2729
    109  N          2.2210   -1.9550   18.0470 N.am   88  PRO88      -0.2726
    110  CA         2.3400   -3.3700   18.4040 C.3    88  PRO88       0.1402
    111  C          3.3030   -3.6230   19.5590 C.2    88  PRO88       0.2269
    112  O          4.3710   -3.0070   19.6250 O.2    88  PRO88      -0.2865
    113  CB         2.8460   -4.0190   17.1170 C.3    88  PRO88       0.0296
    114  CG         2.3920   -3.1070   16.0310 C.3    88  PRO88       0.0237
    115  CD         2.5060   -1.7370   16.6160 C.3    88  PRO88       0.0939
    116  N          2.3880   -9.1460   17.9690 N.3   131  ARG131     -0.1231
    117  CA         2.1030   -8.1990   16.8840 C.3   131  ARG131      0.1694
    118  C          0.6430   -7.6910   16.8600 C.2   131  ARG131      0.2592
    119  O          0.3550   -6.6690   16.2230 O.2   131  ARG131     -0.2718
    120  CB         2.4840   -8.7940   15.5070 C.3   131  ARG131      0.0321
    121  CG         1.6490   -9.9920   15.0670 C.3   131  ARG131      0.0489
    122  CD         2.0070  -10.5110   13.6800 C.3   131  ARG131      0.2205
    123  NE         1.2810  -11.7610   13.4360 N.pl3 131  ARG131     -0.0865
    124  CZ         1.6300  -12.9650   13.9040 C.cat 131  ARG131      0.5346
    125  NH1        2.7380  -13.1380   14.6160 N.pl3 131  ARG131      0.1354
    126  NH2        0.8750  -14.0250   13.6380 N.pl3 131  ARG131      0.1354
    127  N         -0.2640   -8.4170   17.5160 N.am  132  ASN132     -0.1974
    128  CA        -1.6930   -8.0780   17.5750 C.3   132  ASN132      0.1688
    129  C         -2.1850   -7.6420   18.9560 C.2   132  ASN132      0.2292
    130  O         -3.3940   -7.6020   19.2180 O.2   132  ASN132     -0.2864
    131  CB        -2.5000   -9.2660   17.0440 C.3   132  ASN132      0.1181
    132  CG        -2.1740   -9.5880   15.5990 C.2   132  ASN132      0.2629
    133  OD1       -1.8050   -8.7100   14.8260 O.2   132  ASN132     -0.2716
    134  ND2       -2.2960  -10.8520   15.2310 N.am  132  ASN132     -0.0877
    135  N         -1.8830   -4.2020   20.9090 N.3   134  LEU134     -0.1245
    136  CA        -1.5130   -2.8150   20.6810 C.3   134  LEU134      0.1561
    137  C         -1.5110   -2.0390   21.9880 C.2   134  LEU134      0.2260
    138  O         -2.3370   -2.2900   22.8700 O.2   134  LEU134     -0.2867
    139  CB        -2.4850   -2.1810   19.7160 C.3   134  LEU134      0.0270
    140  CG        -2.6660   -2.8950   18.3880 C.3   134  LEU134      0.0019
    141  CD1       -3.8280   -2.2390   17.6950 C.3   134  LEU134      0.0001
    142  CD2       -1.4250   -2.8150   17.5250 C.3   134  LEU134      0.0001
    143  N         -6.0810   -6.7640   19.1360 N.3   144  SER144     -0.1202
    144  CA        -6.3950   -6.2460   17.8170 C.3   144  SER144      0.2020
    145  C         -6.4080   -7.3600   16.7680 C.2   144  SER144      0.2618
    146  O         -6.1490   -8.5280   17.0780 O.2   144  SER144     -0.2717
    147  CB        -5.3250   -5.2210   17.4490 C.3   144  SER144      0.2103
    148  OG        -5.6440   -4.5380   16.2540 O.3   144  SER144     -0.2182
    149  N         -6.6940   -6.9760   15.5240 N.am  145  ASP145     -0.1973
    150  CA        -6.5350   -7.8350   14.3340 C.3   145  ASP145      0.1709
    151  C         -7.3660   -9.1220   14.3700 C.2   145  ASP145      0.2293
    152  O         -6.8400  -10.2310   14.5260 O.2   145  ASP145     -0.2864
    153  CB        -5.0460   -8.1090   14.0740 C.3   145  ASP145      0.1436
    154  CG        -4.2610   -6.8230   13.8430 C.2   145  ASP145      0.3671
    155  OD1       -4.1810   -6.3780   12.6810 O.co2 145  ASP145     -0.2456
    156  OD2       -3.7610   -6.2250   14.8240 O.co2 145  ASP145     -0.2456
@<TRIPOS>BOND
     1    22    21    2
     2    21    20    1
     3    20    19    1
     4    20    23    1
     5    23    24    1
     6    17    18    1
     7    17    14    1
     8    24    26   ar
     9    24    25   ar
    10    26    28   ar
    11    14    15    1
    12    14    13    1
    13    15    16    2
    14    45    44    2
    15    25    27   ar
    16    44    43    1
    17    28    29   ar
    18    12    11    2
    19    30    31    1
    20    27    29   ar
    21    13    11   am
    22    11    10    1
    23    43    46    1
    24    43    42    1
    25    46    47    1
    26    31    32    1
    27    31    34    1
    28    33    32    2
    29     1     2    1
    30    10     9    1
    31    47    48    1
    32     9     3   am
    33    48    49    1
    34    36    34    1
    35    34    35    1
    36     3     2    1
    37     3     4    2
    38     2     5    1
    39    49    50    1
    40     5     6    1
    41     6     8    1
    42     6     7    1
    43    39    40    2
    44    39    38    1
    45    65    64    1
    46   155   154   ar
    47    38    37    1
    48    38    41    1
    49    58    59    1
    50    64    63    1
    51   123   122    1
    52   123   124    2
    53   126   124    1
    54    63    62    1
    55   122   121    1
    56   154   153    1
    57   154   156   ar
    58   124   125    1
    59   153   150    1
    60   150   151    1
    61   150   149    1
    62   151   152    2
    63    59    62    1
    64    59    60    1
    65   133   132    2
    66    61    60    2
    67   121   120    1
    68   134   132   am
    69    60    66   am
    70   120   117    1
    71   149   145   am
    72    82    81    1
    73   132   131    1
    74    81    80    1
    75   114   115    1
    76   114   113    1
    77   119   118    2
    78   148   147    1
    79   115   109    1
    80    66    67    1
    81   145   146    2
    82   145   144    1
    83   118   117    1
    84   118   127   am
    85   117   116    1
    86    69    68    2
    87    80    79    1
    88   131   128    1
    89   113   110    1
    90    79    76    1
    91    68    75   am
    92    68    67    1
    93   147   144    1
    94    76    75    1
    95    76    77    1
    96   127   128    1
    97   142   140    1
    98   128   129    1
    99    67    70    1
   100   141   140    1
   101    96    94   ar
   102   144   143    1
   103    56    55    1
   104   109   110    1
   105   109   107   am
   106    95    94   ar
   107   140   139    1
   108   106   107    1
   109   106   105    1
   110   110   111    1
   111    94    93    1
   112    86    85    2
   113    83    77   am
   114    83    84    1
   115    91    90    2
   116    77    78    2
   117    55    57    1
   118    55    52    1
   119   107   108    2
   120   129   130    2
   121    70    71    1
   122    54    53    2
   123    85    84    1
   124    85    88   am
   125   105    99   am
   126    89    90    1
   127    89    88    1
   128    89    92    1
   129   111   112    2
   130    53    52    1
   131    90    97   am
   132   139   136    1
   133    71    72    1
   134    84    87    1
   135    93    92    1
   136   100    99    2
   137    99    98    1
   138    52    51    1
   139    97    98    1
   140   136   135    1
   141   136   137    1
   142    98   101    1
   143    72    73   ar
   144    72    74   ar
   145   137   138    2
   146   101   102    1
   147   104   102    1
   148   102   103    1
