@<TRIPOS>MOLECULE
tmp/5trdA00.pdb
 163 160 0 0 0
SMALL
GASTEIGER

@<TRIPOS>ATOM
      1  N        -15.1780   -3.5840   45.5730 N.3    96  THR96      -0.1203
      2  CA       -14.6180   -4.0430   46.8380 C.3    96  THR96       0.1994
      3  C        -14.5760   -2.8990   47.8460 C.2    96  THR96       0.2619
      4  O        -14.5560   -1.7210   47.4840 O.2    96  THR96      -0.2717
      5  CB       -13.1910   -4.6080   46.6800 C.3    96  THR96       0.1784
      6  OG1      -12.2880   -3.5300   46.4050 O.3    96  THR96      -0.2211
      7  CG2      -13.1120   -5.6030   45.5420 C.3    96  THR96       0.0376
      8  N        -14.5510   -3.2790   49.1240 N.am   97  SER97      -0.1937
      9  CA       -14.2420   -2.4010   50.2470 C.3    97  SER97       0.2055
     10  C        -12.7830   -2.5850   50.6490 C.2    97  SER97       0.2644
     11  O        -12.1790   -3.6330   50.4060 O.2    97  SER97      -0.2714
     12  CB       -15.1370   -2.7000   51.4550 C.3    97  SER97       0.2130
     13  OG       -16.4710   -2.2960   51.2290 O.3    97  SER97      -0.2179
     14  N        -12.2250   -1.5610   51.2910 N.am   98  GLY98      -0.1939
     15  CA       -10.8310   -1.5790   51.6730 C.3    98  GLY98       0.2014
     16  C        -10.6490   -1.2440   53.1390 C.2    98  GLY98       0.2639
     17  O        -11.5260   -1.4850   53.9770 O.2    98  GLY98      -0.2714
     18  N         -9.4810   -0.6800   53.4410 N.am   99  MET99      -0.1963
     19  CA        -9.1470   -0.2620   54.7950 C.3    99  MET99       0.1736
     20  C         -9.5500    1.1750   55.0690 C.2    99  MET99       0.2617
     21  O         -9.2340    1.7020   56.1420 O.2    99  MET99      -0.2715
     22  CB        -7.6500   -0.4430   55.0550 C.3    99  MET99       0.0427
     23  CG        -7.2230   -1.8930   55.1440 C.3    99  MET99       0.0599
     24  SD        -5.4370   -2.1050   55.0330 S.3    99  MET99      -0.1393
     25  CE        -5.3350   -3.8860   54.8430 C.3    99  MET99       0.0692
     26  N        -10.2390    1.8110   54.1250 N.am  100  GLY100     -0.1940
     27  CA       -10.7080    3.1670   54.3110 C.3   100  GLY100      0.2014
     28  C         -9.6360    4.2220   54.1810 C.2   100  GLY100      0.2639
     29  O         -9.7750    5.3060   54.7540 O.2   100  GLY100     -0.2714
     30  N         -8.5720    3.9450   53.4280 N.am  101  GLU101     -0.1963
     31  CA        -7.4850    4.9050   53.3040 C.3   101  GLU101      0.1733
     32  C         -7.6380    5.8490   52.1190 C.2   101  GLU101      0.2617
     33  O         -7.0520    6.9400   52.1470 O.2   101  GLU101     -0.2715
     34  CB        -6.1490    4.1690   53.2160 C.3   101  GLU101      0.0429
     35  CG        -5.8830    3.2940   54.4330 C.3   101  GLU101      0.1163
     36  CD        -4.5260    2.6230   54.3890 C.2   101  GLU101      0.3649
     37  OE1       -4.4540    1.4630   53.9320 O.co2 101  GLU101     -0.2457
     38  OE2       -3.5340    3.2560   54.8130 O.co2 101  GLU101     -0.2457
     39  N         -8.4130    5.4790   51.0900 N.am  102  GLY102     -0.1940
     40  CA        -8.5880    6.3830   49.9610 C.3   102  GLY102      0.2014
     41  C         -9.1260    7.7370   50.3860 C.2   102  GLY102      0.2638
     42  O         -8.7690    8.7710   49.8150 O.2   102  GLY102     -0.2714
     43  N         -9.9810    7.7460   51.4110 N.am  103  ARG103     -0.1977
     44  CA       -10.5320    8.9890   51.9400 C.3   103  ARG103      0.1597
     45  C         -9.4390    9.9410   52.4030 C.2   103  ARG103      0.2287
     46  O         -9.5320   11.1510   52.1840 O.2   103  ARG103     -0.2864
     47  CB       -11.4750    8.6860   53.0980 C.3   103  ARG103      0.0334
     48  CG       -11.9250    9.9330   53.8220 C.3   103  ARG103      0.0492
     49  CD       -13.0400    9.5950   54.7860 C.3   103  ARG103      0.2205
     50  NE       -14.2150    9.0990   54.0810 N.pl3 103  ARG103     -0.0865
     51  CZ       -15.0600    8.2130   54.5980 C.cat 103  ARG103      0.5346
     52  NH1      -14.8270    7.7120   55.8090 N.pl3 103  ARG103      0.1354
     53  NH2      -16.1230    7.8170   53.9050 N.pl3 103  ARG103      0.1354
     54  N        -16.0080   13.4560   46.0700 N.3   124  TYR124     -0.1241
     55  CA       -16.3440   12.8000   47.3240 C.3   124  TYR124      0.1605
     56  C        -15.0520   12.2720   47.9360 C.2   124  TYR124      0.2264
     57  O        -14.1670   11.8120   47.2170 O.2   124  TYR124     -0.2867
     58  CB       -17.3370   11.6530   47.0870 C.3   124  TYR124      0.0534
     59  CG       -17.6050   10.8590   48.3440 C.ar  124  TYR124     -0.0201
     60  CD1      -18.5800   11.2640   49.2480 C.ar  124  TYR124     -0.0009
     61  CD2      -16.8530    9.7360   48.6500 C.ar  124  TYR124     -0.0009
     62  CE1      -18.8070   10.5580   50.4040 C.ar  124  TYR124      0.0417
     63  CE2      -17.0740    9.0190   49.8060 C.ar  124  TYR124      0.0417
     64  CZ       -18.0520    9.4320   50.6840 C.ar  124  TYR124      0.1957
     65  OH       -18.2670    8.7150   51.8450 O.3   124  TYR124     -0.2866
     66  N        -12.9370    9.8220   49.0610 N.3   126  GLY126     -0.1210
     67  CA       -12.7450    8.3810   49.0500 C.3   126  GLY126      0.1956
     68  C        -12.5240    7.9240   47.6260 C.2   126  GLY126      0.2613
     69  O        -12.6390    8.6980   46.6880 O.2   126  GLY126     -0.2717
     70  N        -12.1870    6.6430   47.4740 N.am  127  THR127     -0.1938
     71  CA       -12.0520    6.0420   46.1510 C.3   127  THR127      0.2028
     72  C        -12.9030    4.7830   46.0810 C.2   127  THR127      0.2642
     73  O        -12.9040    3.9700   47.0130 O.2   127  THR127     -0.2714
     74  CB       -10.5840    5.7150   45.8140 C.3   127  THR127      0.1808
     75  OG1      -10.0300    4.8530   46.8110 O.3   127  THR127     -0.2208
     76  CG2       -9.7480    6.9780   45.7610 C.3   127  THR127      0.0379
     77  N        -13.6390    4.6270   44.9860 N.am  128  LEU128     -0.1963
     78  CA       -14.3810    3.4010   44.7500 C.3   128  LEU128      0.1728
     79  C        -13.4250    2.3670   44.1730 C.2   128  LEU128      0.2616
     80  O        -12.8960    2.5660   43.0690 O.2   128  LEU128     -0.2715
     81  CB       -15.5400    3.6470   43.7880 C.3   128  LEU128      0.0311
     82  CG       -16.3450    2.3810   43.4710 C.3   128  LEU128      0.0022
     83  CD1      -17.1760    1.9670   44.6990 C.3   128  LEU128      0.0001
     84  CD2      -17.2330    2.6350   42.2750 C.3   128  LEU128      0.0001
     85  N        -13.1880    1.2820   44.9180 N.am  129  ASN129     -0.1972
     86  CA       -12.2740    0.2420   44.4520 C.3   129  ASN129      0.1688
     87  C        -13.0030   -0.7290   43.5400 C.2   129  ASN129      0.2292
     88  O        -14.0580   -1.2730   43.9010 O.2   129  ASN129     -0.2864
     89  CB       -11.6730   -0.5820   45.5910 C.3   129  ASN129      0.1181
     90  CG       -11.1660    0.2370   46.7450 C.2   129  ASN129      0.2629
     91  OD1      -10.8930    1.4310   46.6370 O.2   129  ASN129     -0.2716
     92  ND2      -11.0390   -0.4240   47.8870 N.am  129  ASN129     -0.0877
     93  N         -9.0430    2.5130   41.0020 N.3   191  GLU191     -0.1231
     94  CA        -9.6250    3.4340   41.9630 C.3   191  GLU191      0.1699
     95  C        -10.3420    4.5270   41.2090 C.2   191  GLU191      0.2592
     96  O         -9.7400    5.1840   40.3590 O.2   191  GLU191     -0.2718
     97  CB        -8.5470    4.0650   42.8580 C.3   191  GLU191      0.0402
     98  CG        -7.6240    3.0600   43.4910 C.3   191  GLU191      0.1161
     99  CD        -8.3490    2.2090   44.4950 C.2   191  GLU191      0.3649
    100  OE1       -7.8220    1.1430   44.8850 O.co2 191  GLU191     -0.2457
    101  OE2       -9.4560    2.6190   44.8960 O.co2 191  GLU191     -0.2457
    102  N        -11.6150    4.7430   41.5400 N.am  192  ILE192     -0.1966
    103  CA       -12.4440    5.7390   40.8710 C.3   192  ILE192      0.1727
    104  C        -12.7290    6.8700   41.8440 C.2   192  ILE192      0.2616
    105  O        -13.0250    6.6200   43.0190 O.2   192  ILE192     -0.2715
    106  CB       -13.7490    5.1090   40.3510 C.3   192  ILE192      0.0290
    107  CG1      -13.4270    4.1650   39.1870 C.3   192  ILE192      0.0022
    108  CG2      -14.7630    6.1920   39.9410 C.3   192  ILE192      0.0023
    109  CD1      -14.6190    3.3280   38.7410 C.3   192  ILE192      0.0001
    110  N        -12.6060    8.1170   41.3630 N.am  193  ILE193     -0.1963
    111  CA       -13.1000    9.2740   42.0990 C.3   193  ILE193      0.1727
    112  C        -14.2290    9.9170   41.3100 C.2   193  ILE193      0.2616
    113  O        -14.2900    9.8370   40.0770 O.2   193  ILE193     -0.2715
    114  CB       -12.0060   10.3230   42.4080 C.3   193  ILE193      0.0290
    115  CG1      -11.3720   10.8760   41.1230 C.3   193  ILE193      0.0022
    116  CG2      -10.9470    9.7320   43.3270 C.3   193  ILE193      0.0023
    117  CD1      -10.4740   12.0790   41.3850 C.3   193  ILE193      0.0001
    118  N        -15.1190   10.5800   42.0410 N.am  194  SER194     -0.1950
    119  CA       -16.2500   11.2840   41.4630 C.3   194  SER194      0.1924
    120  C        -16.7080   12.3360   42.4580 C.2   194  SER194      0.2314
    121  O        -16.4240   12.2480   43.6560 O.2   194  SER194     -0.2863
    122  CB       -17.4000   10.3220   41.1440 C.3   194  SER194      0.2116
    123  OG       -18.5370   11.0490   40.7070 O.3   194  SER194     -0.2180
    124  N        -19.8000   12.4220   42.9950 N.3   196  LYS196     -0.1231
    125  CA       -20.9320   11.6990   43.5640 C.3   196  LYS196      0.1693
    126  C        -20.4400   10.5950   44.4920 C.2   196  LYS196      0.2592
    127  O        -19.3970    9.9850   44.2510 O.2   196  LYS196     -0.2718
    128  CB       -21.7970   11.0760   42.4630 C.3   196  LYS196      0.0285
    129  CG       -22.3020   12.0560   41.4010 C.3   196  LYS196      0.0035
    130  CD       -23.1860   13.1270   42.0120 C.3   196  LYS196      0.0206
    131  CE       -23.5560   14.1860   40.9830 C.3   196  LYS196      0.1093
    132  NZ       -24.2290   13.6020   39.7900 N.3   196  LYS196     -0.1314
    133  N        -21.2140   10.3340   45.5520 N.am  197  TYR197     -0.1962
    134  CA       -21.0260    9.1470   46.3890 C.3   197  TYR197      0.1771
    135  C        -21.6310    7.9710   45.6340 C.2   197  TYR197      0.2619
    136  O        -22.8560    7.8020   45.6130 O.2   197  TYR197     -0.2715
    137  CB       -21.6880    9.3340   47.7540 C.3   197  TYR197      0.0574
    138  CG       -21.4730    8.1820   48.7130 C.ar  197  TYR197     -0.0198
    139  CD1      -20.2270    7.5920   48.8570 C.ar  197  TYR197     -0.0009
    140  CD2      -22.5200    7.6980   49.4950 C.ar  197  TYR197     -0.0009
    141  CE1      -20.0260    6.5450   49.7430 C.ar  197  TYR197      0.0417
    142  CE2      -22.3280    6.6490   50.3800 C.ar  197  TYR197      0.0417
    143  CZ       -21.0840    6.0740   50.4980 C.ar  197  TYR197      0.1957
    144  OH       -20.8810    5.0240   51.3760 O.3   197  TYR197     -0.2866
    145  N        -20.7710    7.1540   45.0070 N.am  198  LEU198     -0.1963
    146  CA       -21.2500    6.1780   44.0310 C.3   198  LEU198      0.1728
    147  C        -22.0170    5.0330   44.6830 C.2   198  LEU198      0.2616
    148  O        -22.9370    4.4930   44.0650 O.2   198  LEU198     -0.2715
    149  CB       -20.0830    5.6460   43.1870 C.3   198  LEU198      0.0311
    150  CG       -19.3690    6.7060   42.3080 C.3   198  LEU198      0.0022
    151  CD1      -18.0770    6.1760   41.7110 C.3   198  LEU198      0.0001
    152  CD2      -20.2700    7.2520   41.1880 C.3   198  LEU198      0.0001
    153  N        -21.6750    4.6530   45.9220 N.am  199  ARG199     -0.1977
    154  CA       -22.4630    3.6350   46.6150 C.3   199  ARG199      0.1597
    155  C        -23.9460    3.9690   46.5910 C.2   199  ARG199      0.2287
    156  O        -24.7880    3.0820   46.4260 O.2   199  ARG199     -0.2864
    157  CB       -22.0080    3.4830   48.0680 C.3   199  ARG199      0.0334
    158  CG       -20.5860    3.0140   48.2470 C.3   199  ARG199      0.0492
    159  CD       -20.3990    1.6050   47.7970 C.3   199  ARG199      0.2205
    160  NE       -19.0830    1.0870   48.1690 N.pl3 199  ARG199     -0.0865
    161  CZ       -18.8190   -0.2090   48.2720 C.cat 199  ARG199      0.5346
    162  NH1      -19.7860   -1.0910   48.0360 N.pl3 199  ARG199      0.1354
    163  NH2      -17.6030   -0.6220   48.6060 N.pl3 199  ARG199      0.1354
@<TRIPOS>BOND
     1   109   107    1
     2   107   106    1
     3   132   131    1
     4   108   106    1
     5   113   112    2
     6   106   103    1
     7    96    95    2
     8   123   122    1
     9   103   102    1
    10   103   104    1
    11   131   130    1
    12    93    94    1
    13   115   117    1
    14   115   114    1
    15   122   119    1
    16   152   150    1
    17    95   102   am
    18    95    94    1
    19   112   118   am
    20   112   111    1
    21   110   104   am
    22   110   111    1
    23   129   130    1
    24   129   128    1
    25   119   118    1
    26   119   120    1
    27   151   150    1
    28   104   105    2
    29    94    97    1
    30   111   114    1
    31    84    82    1
    32   150   149    1
    33   114   116    1
    34   120   121    2
    35   128   125    1
    36    97    98    1
    37   124   125    1
    38    80    79    2
    39   149   146    1
    40    82    81    1
    41    82    83    1
    42    98    99    1
    43    87    88    2
    44    87    86    1
    45   125   126    1
    46    81    78    1
    47   146   147    1
    48   146   145    1
    49   148   147    2
    50    79    78    1
    51    79    85   am
    52   127   126    2
    53    86    85    1
    54    86    89    1
    55   126   133   am
    56    99   100   ar
    57    99   101   ar
    58   147   153   am
    59    78    77    1
    60    77    72   am
    61   145   135   am
    62     7     5    1
    63   133   134    1
    64     1     2    1
    65    89    90    1
    66   136   135    2
    67   135   134    1
    68    76    74    1
    69    74    71    1
    70    74    75    1
    71   153   154    1
    72    54    55    1
    73    72    71    1
    74    72    73    2
    75    71    70    1
    76   134   137    1
    77     6     5    1
    78   156   155    2
    79   155   154    1
    80   154   157    1
    81    91    90    2
    82     5     2    1
    83    69    68    2
    84    90    92   am
    85     2     3    1
    86    58    55    1
    87    58    59    1
    88    57    56    2
    89    55    56    1
    90    70    68   am
    91     4     3    2
    92    68    67    1
    93   137   138    1
    94   159   160    1
    95   159   158    1
    96     3     8   am
    97   162   161    1
    98   157   158    1
    99   160   161    2
   100   161   163    1
   101    59    61   ar
   102    59    60   ar
   103    61    63   ar
   104   138   139   ar
   105   138   140   ar
   106   139   141   ar
   107    67    66    1
   108     8     9    1
   109    60    62   ar
   110   140   142   ar
   111   141   143   ar
   112    63    64   ar
   113    42    41    2
   114    40    41    1
   115    40    39    1
   116     9    10    1
   117     9    12    1
   118   142   143   ar
   119    41    43   am
   120    62    64   ar
   121    11    10    2
   122   143   144    1
   123    10    14   am
   124    64    65    1
   125    39    32   am
   126    13    12    1
   127    14    15    1
   128    43    44    1
   129    15    16    1
   130    44    45    1
   131    44    47    1
   132    32    33    2
   133    32    31    1
   134    46    45    2
   135    47    48    1
   136    16    18   am
   137    16    17    2
   138    34    31    1
   139    34    35    1
   140    31    30    1
   141    30    28   am
   142    18    19    1
   143    48    49    1
   144    53    51    1
   145    37    36   ar
   146    50    51    2
   147    50    49    1
   148    26    27    1
   149    26    20   am
   150    28    27    1
   151    28    29    2
   152    36    35    1
   153    36    38   ar
   154    51    52    1
   155    19    22    1
   156    19    20    1
   157    25    24    1
   158    24    23    1
   159    22    23    1
   160    20    21    2
