@<TRIPOS>MOLECULE
tmp/5trfE00.pdb
 189 179 0 0 0
SMALL
GASTEIGER

@<TRIPOS>ATOM
      1  N        -15.3390   18.7840   60.0120 N.3     5  VAL5       -0.1231
      2  CA       -14.1250   19.4410   60.5330 C.3     5  VAL5        0.1692
      3  C        -14.1230   20.8880   60.0100 C.2     5  VAL5        0.2593
      4  O        -14.3910   21.1280   58.8330 O.2     5  VAL5       -0.2718
      5  CB       -12.7880   18.6880   60.2340 C.3     5  VAL5        0.0266
      6  CG1      -11.5960   19.4280   60.8350 C.3     5  VAL5        0.0020
      7  CG2      -12.8040   17.2520   60.7860 C.3     5  VAL5        0.0020
      8  N        -13.8330   21.8450   60.8900 N.am    6  THR6       -0.1939
      9  CA       -13.7890   23.2660   60.5400 C.3     6  THR6        0.2028
     10  C        -12.3920   23.8340   60.7970 C.2     6  THR6        0.2642
     11  O        -11.6030   23.2380   61.5200 O.2     6  THR6       -0.2714
     12  CB       -14.8700   24.0650   61.2990 C.3     6  THR6        0.1808
     13  OG1      -14.7250   23.8240   62.6900 O.3     6  THR6       -0.2208
     14  CG2      -16.2850   23.7240   60.8490 C.3     6  THR6        0.0379
     15  N        -12.1050   24.9940   60.2050 N.am    7  THR7       -0.1950
     16  CA       -10.8230   25.6790   60.3260 C.3     7  THR7        0.1897
     17  C        -11.0410   27.1690   60.5630 C.2     7  THR7        0.2313
     18  O        -12.0570   27.7130   60.1290 O.2     7  THR7       -0.2863
     19  CB        -9.9690   25.4350   59.0460 C.3     7  THR7        0.1794
     20  OG1       -8.7950   26.2610   59.0680 O.3     7  THR7       -0.2208
     21  CG2      -10.7400   25.6970   57.7510 C.3     7  THR7        0.0378
     22  N        -10.6230   29.7990   57.1070 N.3    10  ILE10      -0.1245
     23  CA       -11.6790   30.0550   56.1290 C.3    10  ILE10       0.1561
     24  C        -12.9010   30.6500   56.8330 C.2    10  ILE10       0.2260
     25  O        -13.1960   30.2210   57.9490 O.2    10  ILE10      -0.2867
     26  CB       -11.9850   28.7020   55.3930 C.3    10  ILE10       0.0252
     27  CG1      -10.7370   28.2290   54.6000 C.3    10  ILE10       0.0019
     28  CG2      -13.2070   28.7750   54.4640 C.3    10  ILE10       0.0019
     29  CD1      -10.6960   26.8510   54.3220 C.3    10  ILE10       0.0001
     30  N        -17.6530   27.1930   54.8740 N.3    15  GLN15      -0.1245
     31  CA       -17.5430   25.8410   55.4250 C.3    15  GLN15       0.1566
     32  C        -18.9110   25.1980   55.5960 C.2    15  GLN15       0.2260
     33  O        -19.0090   23.9710   55.6690 O.2    15  GLN15      -0.2867
     34  CB       -16.7860   25.8880   56.7630 C.3    15  GLN15       0.0367
     35  CG       -15.4300   26.5720   56.6140 C.3    15  GLN15       0.0905
     36  CD       -14.5840   26.4740   57.8430 C.2    15  GLN15       0.2608
     37  OE1      -14.1250   25.3960   58.2080 O.2    15  GLN15      -0.2717
     38  NE2      -14.2740   27.6120   58.4470 N.am   15  GLN15      -0.0878
     39  N        -14.6370   17.6920   54.0720 N.3    45  LEU45      -0.1245
     40  CA       -13.2800   17.7470   54.6610 C.3    45  LEU45       0.1561
     41  C        -13.1060   16.6570   55.6990 C.2    45  LEU45       0.2260
     42  O        -12.0170   16.0950   55.7890 O.2    45  LEU45      -0.2867
     43  CB       -12.9850   19.1240   55.2910 C.3    45  LEU45       0.0270
     44  CG       -12.4210   20.2110   54.3420 C.3    45  LEU45       0.0019
     45  CD1      -11.0050   19.8360   53.8020 C.3    45  LEU45       0.0001
     46  CD2      -13.3960   20.5490   53.2120 C.3    45  LEU45       0.0001
     47  N        -12.8160   13.3540   53.6050 N.3    48  LEU48      -0.1231
     48  CA       -11.5330   13.3470   52.9000 C.3    48  LEU48       0.1693
     49  C        -10.3560   13.1200   53.8790 C.2    48  LEU48       0.2592
     50  O         -9.3940   12.4590   53.5030 O.2    48  LEU48      -0.2718
     51  CB       -11.3280   14.6150   52.0590 C.3    48  LEU48       0.0284
     52  CG       -12.1480   14.6680   50.7510 C.3    48  LEU48       0.0019
     53  CD1      -11.9080   15.9770   50.0210 C.3    48  LEU48       0.0001
     54  CD2      -11.8070   13.4720   49.8060 C.3    48  LEU48       0.0001
     55  N        -10.4710   13.6280   55.1130 N.am   49  GLY49      -0.1957
     56  CA        -9.4820   13.4200   56.1720 C.3    49  GLY49       0.1869
     57  C         -9.3910   11.9330   56.5090 C.2    49  GLY49       0.2309
     58  O         -8.3050   11.3480   56.5050 O.2    49  GLY49      -0.2863
     59  N         -7.7150   10.1270   53.5210 N.3    52  ILE52      -0.1231
     60  CA        -6.2640   10.3360   53.5470 C.3    52  ILE52       0.1692
     61  C         -5.6130    9.3450   54.5530 C.2    52  ILE52       0.2591
     62  O         -4.6330    8.6820   54.1900 O.2    52  ILE52      -0.2718
     63  CB        -5.9350   11.8280   53.8660 C.3    52  ILE52       0.0266
     64  CG1       -6.1710   12.7160   52.6200 C.3    52  ILE52       0.0019
     65  CG2       -4.5100   12.0050   54.4010 C.3    52  ILE52       0.0020
     66  CD1       -6.3480   14.1700   52.9210 C.3    52  ILE52       0.0001
     67  N         -6.1830    9.2320   55.7800 N.am   53  MET53      -0.1979
     68  CA        -5.6560    8.3280   56.8090 C.3    53  MET53       0.1605
     69  C         -5.7610    6.8570   56.3890 C.2    53  MET53       0.2287
     70  O         -4.7820    6.1300   56.5460 O.2    53  MET53      -0.2864
     71  CB        -6.3410    8.5490   58.1690 C.3    53  MET53       0.0413
     72  CG        -5.8800    9.8120   58.8840 C.3    53  MET53       0.0598
     73  SD        -4.0760   10.0400   58.9830 S.3    53  MET53      -0.1393
     74  CE        -3.6750    8.9190   60.3580 C.3    53  MET53       0.0692
     75  N         -0.7080   10.6070   54.3240 N.3    58  TYR58      -0.1241
     76  CA        -0.2010   11.7250   55.1120 C.3    58  TYR58       0.1605
     77  C          1.0960   11.4000   55.8560 C.2    58  TYR58       0.2264
     78  O          1.1730   10.4090   56.5870 O.2    58  TYR58      -0.2867
     79  CB        -1.2800   12.2080   56.1010 C.3    58  TYR58       0.0534
     80  CG        -0.8670   13.3250   57.0410 C.ar   58  TYR58      -0.0201
     81  CD1       -0.4240   14.5510   56.5470 C.ar   58  TYR58      -0.0009
     82  CD2       -1.0300   13.2000   58.4190 C.ar   58  TYR58      -0.0009
     83  CE1       -0.0920   15.5990   57.4020 C.ar   58  TYR58       0.0417
     84  CE2       -0.7140   14.2490   59.2850 C.ar   58  TYR58       0.0417
     85  CZ        -0.2340   15.4440   58.7700 C.ar   58  TYR58       0.1957
     86  OH         0.0750   16.4940   59.6030 O.3    58  TYR58      -0.2866
     87  N          3.3290   13.4070   58.4850 N.3    60  GLU60      -0.1245
     88  CA         3.4550   14.5420   59.4050 C.3    60  GLU60       0.1567
     89  C          4.9130   15.0190   59.4540 C.2    60  GLU60       0.2260
     90  O          5.1720   16.2240   59.3370 O.2    60  GLU60      -0.2867
     91  CB         2.9580   14.1700   60.8170 C.3    60  GLU60       0.0388
     92  CG         3.1340   15.2890   61.7920 C.3    60  GLU60       0.1160
     93  CD         2.7260   14.9380   63.1990 C.2    60  GLU60       0.3649
     94  OE1        2.6370   13.7540   63.6050 O.co2  60  GLU60      -0.2457
     95  OE2        2.4100   15.8180   63.9930 O.co2  60  GLU60      -0.2457
     96  N          4.2760   18.2630   57.1470 N.3    64  HIS64      -0.1241
     97  CA         2.8170   18.0900   57.0880 C.3    64  HIS64       0.1621
     98  C          2.3050   18.0880   55.6250 C.2    64  HIS64       0.2264
     99  O          1.5430   18.9600   55.2000 O.2    64  HIS64      -0.2867
    100  CB         2.1250   19.1600   57.9550 C.3    64  HIS64       0.0745
    101  CG         2.6500   19.1810   59.3640 C.ar   64  HIS64       0.0817
    102  ND1        2.2010   18.2780   60.3170 N.ar   64  HIS64      -0.2268
    103  CD2        3.6270   19.9410   59.9120 C.ar   64  HIS64       0.1154
    104  CE1        2.8890   18.5440   61.4170 C.ar   64  HIS64       0.1986
    105  NE2        3.7620   19.5330   61.2190 N.ar   64  HIS64      -0.2212
    106  N         -6.8800   10.4090   44.8090 N.3    73  LEU73      -0.1245
    107  CA        -6.9090   11.7730   45.3530 C.3    73  LEU73       0.1561
    108  C         -6.0930   12.7230   44.4450 C.2    73  LEU73       0.2260
    109  O         -6.5110   13.8580   44.2150 O.2    73  LEU73      -0.2867
    110  CB        -6.4000   11.8230   46.8130 C.3    73  LEU73       0.0270
    111  CG        -6.5400   13.1900   47.5400 C.3    73  LEU73       0.0019
    112  CD1       -8.0200   13.6960   47.5830 C.3    73  LEU73       0.0001
    113  CD2       -5.9690   13.1270   48.9340 C.3    73  LEU73       0.0001
    114  N         -7.5050   16.0220   42.5550 N.3    77  PHE77      -0.1241
    115  CA        -6.9540   17.3660   42.7700 C.3    77  PHE77       0.1605
    116  C         -6.0480   17.8510   41.6370 C.2    77  PHE77       0.2264
    117  O         -5.8400   19.0530   41.5030 O.2    77  PHE77      -0.2867
    118  CB        -6.2060   17.4300   44.1140 C.3    77  PHE77       0.0534
    119  CG        -7.0660   17.4270   45.3630 C.ar   77  PHE77      -0.0203
    120  CD1       -8.4570   17.4370   45.2760 C.ar   77  PHE77      -0.0042
    121  CD2       -6.4830   17.4400   46.6260 C.ar   77  PHE77      -0.0042
    122  CE1       -9.2450   17.4350   46.4310 C.ar   77  PHE77      -0.0003
    123  CE2       -7.2720   17.4620   47.7790 C.ar   77  PHE77      -0.0003
    124  CZ        -8.6500   17.4610   47.6710 C.ar   77  PHE77      -0.0000
    125  N          0.3630   18.0290   48.3240 N.3    82  PHE82      -0.1241
    126  CA        -0.1080   19.3150   48.8500 C.3    82  PHE82       0.1605
    127  C          0.1670   19.4050   50.3710 C.2    82  PHE82       0.2264
    128  O          0.2090   18.3790   51.0600 O.2    82  PHE82      -0.2867
    129  CB        -1.6070   19.5800   48.5300 C.3    82  PHE82       0.0534
    130  CG        -2.5810   18.5940   49.1410 C.ar   82  PHE82      -0.0203
    131  CD1       -3.1100   18.8100   50.4120 C.ar   82  PHE82      -0.0042
    132  CD2       -2.9930   17.4680   48.4340 C.ar   82  PHE82      -0.0042
    133  CE1       -3.9960   17.8890   50.9860 C.ar   82  PHE82      -0.0003
    134  CE2       -3.8730   16.5460   49.0040 C.ar   82  PHE82      -0.0003
    135  CZ        -4.3760   16.7630   50.2750 C.ar   82  PHE82      -0.0000
    136  N         -1.0290   20.1240   54.0750 N.3    84  VAL84      -0.1231
    137  CA        -2.3290   20.0280   54.7690 C.3    84  VAL84       0.1692
    138  C         -2.6980   21.3580   55.4420 C.2    84  VAL84       0.2591
    139  O         -3.8440   21.5250   55.8380 O.2    84  VAL84      -0.2718
    140  CB        -2.4390   18.8490   55.7800 C.3    84  VAL84       0.0266
    141  CG1       -2.2000   17.5100   55.0960 C.3    84  VAL84       0.0020
    142  CG2       -1.4990   19.0300   56.9640 C.3    84  VAL84       0.0020
    143  N         -1.7400   22.2880   55.5450 N.am   85  LYS85      -0.1980
    144  CA        -1.9250   23.5850   56.1850 C.3    85  LYS85       0.1596
    145  C         -2.4460   24.6630   55.2190 C.2    85  LYS85       0.2287
    146  O         -2.7670   25.7580   55.6810 O.2    85  LYS85      -0.2864
    147  CB        -0.5910   24.0460   56.8090 C.3    85  LYS85       0.0298
    148  CG         0.0570   23.1690   57.8760 C.3    85  LYS85       0.0038
    149  CD        -0.8870   23.1750   59.0220 C.3    85  LYS85       0.0206
    150  CE        -0.2240   22.0990   59.9180 C.3    85  LYS85       0.1093
    151  NZ        -1.3050   21.3910   60.6200 N.3    85  LYS85      -0.1314
    152  N         -5.2360   25.6200   53.6360 N.3    87  HIS87      -0.1241
    153  CA        -6.6740   25.3680   53.6660 C.3    87  HIS87       0.1621
    154  C         -7.4560   26.0370   52.5280 C.2    87  HIS87       0.2264
    155  O         -8.4190   25.4280   52.0450 O.2    87  HIS87      -0.2867
    156  CB        -7.2500   25.7280   55.0480 C.3    87  HIS87       0.0745
    157  CG        -6.7550   24.8180   56.1340 C.ar   87  HIS87       0.0817
    158  ND1       -7.1670   24.9700   57.4440 N.ar   87  HIS87      -0.2268
    159  CD2       -5.8980   23.7650   56.0680 C.ar   87  HIS87       0.1154
    160  CE1       -6.5570   24.0140   58.1360 C.ar   87  HIS87       0.1986
    161  NE2       -5.7810   23.2610   57.3510 N.ar   87  HIS87      -0.2212
    162  N         -6.8230   23.8940   49.4400 N.3    90  ILE90      -0.1231
    163  CA        -7.5400   22.6230   49.6130 C.3    90  ILE90       0.1692
    164  C         -9.0340   22.8260   49.2730 C.2    90  ILE90       0.2592
    165  O         -9.6010   22.0150   48.5400 O.2    90  ILE90      -0.2718
    166  CB        -7.3170   22.0450   51.0400 C.3    90  ILE90       0.0266
    167  CG1       -5.8480   21.5400   51.1990 C.3    90  ILE90       0.0019
    168  CG2       -8.3120   20.9150   51.3490 C.3    90  ILE90       0.0020
    169  CD1       -5.3690   21.3890   52.6920 C.3    90  ILE90       0.0001
    170  N         -9.6550   23.9110   49.7870 N.am   91  TYR91      -0.1976
    171  CA       -11.0520   24.2450   49.5010 C.3    91  TYR91       0.1639
    172  C        -11.2360   24.4290   48.0050 C.2    91  TYR91       0.2290
    173  O        -12.1740   23.8790   47.4500 O.2    91  TYR91      -0.2864
    174  CB       -11.5180   25.5180   50.2760 C.3    91  TYR91       0.0560
    175  CG       -12.4050   25.1670   51.4530 C.ar   91  TYR91      -0.0198
    176  CD1      -13.7310   25.5930   51.5050 C.ar   91  TYR91      -0.0009
    177  CD2      -11.9550   24.3150   52.4580 C.ar   91  TYR91      -0.0009
    178  CE1      -14.5760   25.2080   52.5470 C.ar   91  TYR91       0.0417
    179  CE2      -12.7890   23.9340   53.5170 C.ar   91  TYR91       0.0417
    180  CZ       -14.0990   24.3830   53.5540 C.ar   91  TYR91       0.1957
    181  OH       -14.9310   23.9650   54.5660 O.3    91  TYR91      -0.2866
    182  N        -11.1570   21.0990   46.1130 N.3    94  ILE94      -0.1245
    183  CA       -12.3980   20.3630   46.3540 C.3    94  ILE94       0.1561
    184  C        -13.5380   20.9930   45.5540 C.2    94  ILE94       0.2260
    185  O        -14.2840   20.2560   44.9050 O.2    94  ILE94      -0.2867
    186  CB       -12.7240   20.2860   47.8730 C.3    94  ILE94       0.0252
    187  CG1      -11.6420   19.4460   48.5880 C.3    94  ILE94       0.0019
    188  CG2      -14.1240   19.6440   48.0990 C.3    94  ILE94       0.0019
    189  CD1      -11.6420   19.5920   50.1350 C.3    94  ILE94       0.0001
@<TRIPOS>BOND
     1   117   116    2
     2   116   115    1
     3   114   115    1
     4   115   118    1
     5   118   119    1
     6   109   108    2
     7   108   107    1
     8   106   107    1
     9   185   184    2
    10   120   119   ar
    11   120   122   ar
    12   107   110    1
    13   119   121   ar
    14   184   183    1
    15   182   183    1
    16   183   186    1
    17   122   124   ar
    18   121   123   ar
    19   110   111    1
    20   173   172    2
    21   111   112    1
    22   111   113    1
    23   124   123   ar
    24   186   188    1
    25   186   187    1
    26   172   171    1
    27   125   126    1
    28   132   134   ar
    29   132   130   ar
    30   129   126    1
    31   129   130    1
    32   165   164    2
    33   187   189    1
    34   126   127    1
    35   134   135   ar
    36   130   131   ar
    37   164   163    1
    38   164   170   am
    39   162   163    1
    40   171   170    1
    41   171   174    1
    42   163   166    1
    43    54    52    1
    44    53    52    1
    45   135   133   ar
    46   174   175    1
    47   127   128    2
    48   131   133   ar
    49    52    51    1
    50   166   167    1
    51   166   168    1
    52   167   169    1
    53   175   176   ar
    54   175   177   ar
    55   176   178   ar
    56   155   154    2
    57    51    48    1
    58   177   179   ar
    59   154   153    1
    60   178   180   ar
    61    64    66    1
    62    64    63    1
    63    48    47    1
    64    48    49    1
    65    46    44    1
    66    50    49    2
    67   179   180   ar
    68    59    60    1
    69    60    63    1
    70    60    61    1
    71   180   181    1
    72   152   153    1
    73   153   156    1
    74    45    44    1
    75    63    65    1
    76    49    55   am
    77    39    40    1
    78   136   137    1
    79    62    61    2
    80    29    27    1
    81    75    76    1
    82    44    43    1
    83    28    26    1
    84    61    67   am
    85    27    26    1
    86    40    43    1
    87    40    41    1
    88   137   138    1
    89   137   140    1
    90    30    31    1
    91   156   157    1
    92   141   140    1
    93    76    77    1
    94    76    79    1
    95    55    56    1
    96    99    98    2
    97   145   146    2
    98   145   144    1
    99    26    23    1
   100    31    32    1
   101    31    34    1
   102   138   143   am
   103   138   139    2
   104   143   144    1
   105    32    33    2
   106    98    97    1
   107    41    42    2
   108    67    68    1
   109   140   142    1
   110    77    78    2
   111   159   157   ar
   112   159   161   ar
   113    79    80    1
   114    23    24    1
   115    23    22    1
   116   157   158   ar
   117    56    57    1
   118   144   147    1
   119    69    70    2
   120    69    68    1
   121    58    57    2
   122    81    80   ar
   123    81    83   ar
   124    35    34    1
   125    35    36    1
   126   147   148    1
   127    68    71    1
   128    24    25    2
   129    80    82   ar
   130    97    96    1
   131    97   100    1
   132   161   160   ar
   133    83    85   ar
   134   158   160   ar
   135    21    19    1
   136    36    37    2
   137    36    38   am
   138   148   149    1
   139   100   101    1
   140    71    72    1
   141    82    84   ar
   142    87    88    1
   143    85    84   ar
   144    85    86    1
   145     4     3    2
   146    72    73    1
   147    73    74    1
   148   149   150    1
   149    19    20    1
   150    19    16    1
   151    90    89    2
   152   101   103   ar
   153   101   102   ar
   154    88    89    1
   155    88    91    1
   156   103   105   ar
   157   150   151    1
   158     3     2    1
   159     3     8   am
   160     1     2    1
   161    18    17    2
   162    15    16    1
   163    15    10   am
   164     5     2    1
   165     5     7    1
   166     5     6    1
   167   102   104   ar
   168    16    17    1
   169     9    10    1
   170     9     8    1
   171     9    12    1
   172    10    11    2
   173    91    92    1
   174    14    12    1
   175   105   104   ar
   176    12    13    1
   177    92    93    1
   178    93    94   ar
   179    93    95   ar
