@<TRIPOS>MOLECULE
tmp/5trgI00.pdb
 77 76 0 0 0
SMALL
GASTEIGER

@<TRIPOS>ATOM
      1  N         -3.3640  -14.9750   29.3540 N.3    91  LEU91      -0.1245
      2  CA        -2.7630  -16.2960   29.5540 C.3    91  LEU91       0.1561
      3  C         -1.2460  -16.2370   29.7320 C.2    91  LEU91       0.2260
      4  O         -0.6860  -16.9350   30.5890 O.2    91  LEU91      -0.2867
      5  CB        -3.1070  -17.2210   28.3980 C.3    91  LEU91       0.0270
      6  CG        -2.5010  -18.6150   28.6080 C.3    91  LEU91       0.0019
      7  CD1       -2.7160  -19.1780   30.0220 C.3    91  LEU91       0.0001
      8  CD2       -3.0690  -19.5740   27.6090 C.3    91  LEU91       0.0001
      9  N          0.6200  -17.7070   33.1840 N.3    95  MET95      -0.1245
     10  CA         1.6480  -18.7320   33.3310 C.3    95  MET95       0.1570
     11  C          2.8510  -18.2490   34.1400 C.2    95  MET95       0.2261
     12  O          3.6010  -19.0750   34.6480 O.2    95  MET95      -0.2867
     13  CB         2.1050  -19.2250   31.9520 C.3    95  MET95       0.0387
     14  CG         1.0260  -19.9330   31.1380 C.3    95  MET95       0.0595
     15  SD         0.5550  -21.5150   31.8500 S.3    95  MET95      -0.1393
     16  CE        -0.7490  -21.1420   33.0510 C.3    95  MET95       0.0692
     17  N        -18.6910  -20.4330   33.9930 N.3   122  SER122     -0.1202
     18  CA       -17.3440  -20.6190   34.5140 C.3   122  SER122      0.2020
     19  C        -16.3100  -20.5410   33.3910 C.2   122  SER122      0.2619
     20  O        -16.6150  -20.7160   32.2050 O.2   122  SER122     -0.2717
     21  CB       -17.2150  -21.9530   35.2450 C.3   122  SER122      0.2103
     22  OG       -17.7250  -22.9990   34.4500 O.3   122  SER122     -0.2182
     23  N        -15.0780  -20.2200   33.7910 N.am  123  PHE123     -0.1961
     24  CA       -13.9730  -20.0240   32.8720 C.3   123  PHE123      0.1771
     25  C        -12.7250  -20.7410   33.3620 C.2   123  PHE123      0.2620
     26  O        -12.5500  -20.9480   34.5540 O.2   123  PHE123     -0.2715
     27  CB       -13.6610  -18.5750   32.7030 C.3   123  PHE123      0.0574
     28  CG       -14.7410  -17.8010   32.0790 C.ar  123  PHE123     -0.0200
     29  CD1      -15.8190  -17.3620   32.8180 C.ar  123  PHE123     -0.0042
     30  CD2      -14.6790  -17.4850   30.7390 C.ar  123  PHE123     -0.0042
     31  CE1      -16.8240  -16.6120   32.2200 C.ar  123  PHE123     -0.0003
     32  CE2      -15.6740  -16.7440   30.1360 C.ar  123  PHE123     -0.0003
     33  CZ       -16.7500  -16.3130   30.8660 C.ar  123  PHE123     -0.0000
     34  N        -11.8540  -21.1130   32.4330 N.am  124  ASP124     -0.1957
     35  CA       -10.5210  -21.6070   32.7650 C.3   124  ASP124      0.1840
     36  C         -9.4760  -20.5930   32.3210 C.2   124  ASP124      0.2622
     37  O         -9.7930  -19.5850   31.6840 O.2   124  ASP124     -0.2715
     38  CB       -10.2580  -22.9880   32.1350 C.3   124  ASP124      0.1450
     39  CG       -10.1190  -22.9620   30.6110 C.2   124  ASP124      0.3671
     40  OD1       -9.7530  -21.9310   30.0060 O.co2 124  ASP124     -0.2456
     41  OD2      -10.4000  -24.0100   30.0020 O.co2 124  ASP124     -0.2456
     42  N         -8.2170  -20.8560   32.6680 N.am  125  ALA125     -0.1963
     43  CA        -7.2050  -19.8300   32.4250 C.3   125  ALA125      0.1728
     44  C         -6.9210  -19.5790   30.9540 C.2   125  ALA125      0.2616
     45  O         -6.2730  -18.5750   30.6420 O.2   125  ALA125     -0.2715
     46  CB        -5.9100  -20.1410   33.1580 C.3   125  ALA125      0.0334
     47  N         -7.3530  -20.4550   30.0520 N.am  126  ALA126     -0.1977
     48  CA        -7.1250  -20.2650   28.6240 C.3   126  ALA126      0.1597
     49  C         -8.3280  -19.6600   27.9240 C.2   126  ALA126      0.2287
     50  O         -8.3400  -19.5790   26.6960 O.2   126  ALA126     -0.2864
     51  CB        -6.7490  -21.5730   27.9470 C.3   126  ALA126      0.0319
     52  N        -11.5140  -20.9030   28.0860 N.3   128  GLY128     -0.1210
     53  CA       -12.6310  -21.8220   27.9580 C.3   128  GLY128      0.1956
     54  C        -13.7010  -21.5420   28.9980 C.2   128  GLY128      0.2612
     55  O        -13.4060  -21.2420   30.1560 O.2   128  GLY128     -0.2717
     56  N        -14.9570  -21.6280   28.5690 N.am  129  TRP129     -0.1962
     57  CA       -16.0980  -21.3240   29.4050 C.3   129  TRP129      0.1771
     58  C        -17.1340  -22.4260   29.2840 C.2   129  TRP129      0.2619
     59  O        -17.2080  -23.1320   28.2790 O.2   129  TRP129     -0.2715
     60  CB       -16.7190  -19.9830   29.0270 C.3   129  TRP129      0.0590
     61  CG       -16.9630  -19.8070   27.5690 C.ar  129  TRP129      0.0006
     62  CD1      -16.1030  -19.2990   26.6550 C.ar  129  TRP129      0.0946
     63  CD2      -18.1430  -20.1580   26.8550 C.ar  129  TRP129      0.0152
     64  NE1      -16.6680  -19.3030   25.4110 N.ar  129  TRP129     -0.2442
     65  CE2      -17.9190  -19.8350   25.4980 C.ar  129  TRP129      0.0810
     66  CE3      -19.3640  -20.7220   27.2260 C.ar  129  TRP129      0.0012
     67  CZ2      -18.8700  -20.0540   24.5040 C.ar  129  TRP129      0.0191
     68  CZ3      -20.3250  -20.9260   26.2440 C.ar  129  TRP129      0.0001
     69  CH2      -20.0680  -20.6000   24.8910 C.ar  129  TRP129      0.0015
     70  N        -17.9230  -22.5780   30.3360 N.am  130  ASN130     -0.1972
     71  CA       -19.0560  -23.4860   30.3170 C.3   130  ASN130      0.1688
     72  C        -20.2410  -22.8020   30.9750 C.2   130  ASN130      0.2292
     73  O        -20.1120  -22.2570   32.0780 O.2   130  ASN130     -0.2864
     74  CB       -18.7530  -24.7950   31.0360 C.3   130  ASN130      0.1181
     75  CG       -19.7880  -25.8700   30.7480 C.2   130  ASN130      0.2629
     76  OD1      -20.2230  -26.0410   29.6090 O.2   130  ASN130     -0.2716
     77  ND2      -20.2020  -26.5830   31.7850 N.am  130  ASN130     -0.0877
@<TRIPOS>BOND
     1    67    69   ar
     2    67    65   ar
     3    69    68   ar
     4    64    65   ar
     5    64    62   ar
     6    65    63   ar
     7    68    66   ar
     8    62    61   ar
     9    50    49    2
    10    63    66   ar
    11    63    61   ar
    12    61    60    1
    13     8     6    1
    14    49    48    1
    15    51    48    1
    16    53    52    1
    17    53    54    1
    18    59    58    2
    19     5     6    1
    20     5     2    1
    21    56    54   am
    22    56    57    1
    23     6     7    1
    24    48    47    1
    25    54    55    2
    26    60    57    1
    27    58    57    1
    28    58    70   am
    29     1     2    1
    30     2     3    1
    31    76    75    2
    32     3     4    2
    33    41    39   ar
    34    40    39   ar
    35    47    44   am
    36    32    30   ar
    37    32    33   ar
    38    71    70    1
    39    71    72    1
    40    71    74    1
    41    39    38    1
    42    45    44    2
    43    30    28   ar
    44    75    74    1
    45    75    77   am
    46    33    31   ar
    47    44    43    1
    48    72    73    2
    49    14    15    1
    50    14    13    1
    51    37    36    2
    52    15    16    1
    53    13    10    1
    54    28    27    1
    55    28    29   ar
    56    38    35    1
    57    20    19    2
    58    31    29   ar
    59    36    42   am
    60    36    35    1
    61    43    42    1
    62    43    46    1
    63    34    35    1
    64    34    25   am
    65    27    24    1
    66    24    25    1
    67    24    23    1
    68     9    10    1
    69    10    11    1
    70    25    26    2
    71    19    23   am
    72    19    18    1
    73    17    18    1
    74    11    12    2
    75    22    21    1
    76    18    21    1
