@<TRIPOS>MOLECULE
tmp/5trgI01.pdb
 145 137 0 0 0
SMALL
GASTEIGER

@<TRIPOS>ATOM
      1  N         -9.7430  -17.8680   48.6870 N.3     1  THR1       -0.1218
      2  CA       -10.8570  -17.2240   48.0240 C.3     1  THR1        0.1862
      3  C        -11.8730  -18.2710   47.6700 C.2     1  THR1        0.2287
      4  O        -11.5180  -19.3190   47.1870 O.2     1  THR1       -0.2866
      5  CB       -10.4180  -16.5320   46.7170 C.3     1  THR1        0.1770
      6  OG1       -9.5160  -15.4730   47.0090 O.3     1  THR1       -0.2211
      7  CG2      -11.5980  -15.9710   45.9660 C.3     1  THR1        0.0375
      8  N        -11.4970  -12.3760   52.4320 N.3    19  ARG19      -0.1231
      9  CA       -10.1320  -12.5730   52.9080 C.3    19  ARG19       0.1694
     10  C         -9.1090  -12.3320   51.8230 C.2    19  ARG19       0.2593
     11  O         -9.3220  -12.6660   50.6600 O.2    19  ARG19      -0.2718
     12  CB        -9.9280  -13.9760   53.4520 C.3    19  ARG19       0.0321
     13  CG        -8.4980  -14.2380   53.7580 C.3    19  ARG19       0.0489
     14  CD        -8.3570  -15.3770   54.6690 C.3    19  ARG19       0.2205
     15  NE        -8.9110  -15.0570   55.9650 N.pl3  19  ARG19      -0.0865
     16  CZ        -9.0340  -15.9360   56.9390 C.cat  19  ARG19       0.5346
     17  NH1       -8.6460  -17.1640   56.7340 N.pl3  19  ARG19       0.1354
     18  NH2       -9.5420  -15.5830   58.1020 N.pl3  19  ARG19       0.1354
     19  N         -7.9940  -11.7520   52.2110 N.am   20  SER20      -0.1938
     20  CA        -6.8640  -11.6050   51.3180 C.3    20  SER20       0.2055
     21  C         -5.6200  -12.1100   52.0400 C.2    20  SER20       0.2644
     22  O         -5.4000  -11.7700   53.2110 O.2    20  SER20      -0.2714
     23  CB        -6.7280  -10.1580   50.8900 C.3    20  SER20       0.2130
     24  OG        -5.5420   -9.9810   50.1790 O.3    20  SER20      -0.2179
     25  N         -4.8250  -12.9330   51.3500 N.am   21  THR21      -0.1936
     26  CA        -3.6370  -13.5580   51.9130 C.3    21  THR21       0.2028
     27  C         -2.3890  -13.2280   51.0950 C.2    21  THR21       0.2642
     28  O         -2.4560  -12.8850   49.9120 O.2    21  THR21      -0.2714
     29  CB        -3.7770  -15.1030   52.0180 C.3    21  THR21       0.1808
     30  OG1       -4.0260  -15.6760   50.7260 O.3    21  THR21      -0.2208
     31  CG2       -4.8830  -15.5170   52.9450 C.3    21  THR21       0.0379
     32  N         -1.2440  -13.3380   51.7690 N.am   22  GLN22      -0.1963
     33  CA         0.1000  -13.3220   51.1890 C.3    22  GLN22       0.1733
     34  C          0.7760  -14.5300   51.8120 C.2    22  GLN22       0.2616
     35  O          1.2600  -14.4650   52.9400 O.2    22  GLN22      -0.2715
     36  CB         0.8640  -12.0470   51.4850 C.3    22  GLN22       0.0408
     37  CG         0.6610  -10.9430   50.4660 C.3    22  GLN22       0.0908
     38  CD         1.4070   -9.6540   50.8030 C.2    22  GLN22       0.2608
     39  OE1        2.5430   -9.6870   51.2610 O.2    22  GLN22      -0.2717
     40  NE2        0.7690   -8.5110   50.5500 N.am   22  GLN22      -0.0878
     41  N          0.7420  -15.6570   51.1280 N.am   23  GLY23      -0.1955
     42  CA         1.1960  -16.8500   51.7980 C.3    23  GLY23       0.1869
     43  C          0.2430  -17.2460   52.9090 C.2    23  GLY23       0.2309
     44  O         -0.9530  -17.4470   52.6790 O.2    23  GLY23      -0.2863
     45  N         -3.5900  -10.5270   54.6820 N.3    27  SER27      -0.1217
     46  CA        -3.3010   -9.1530   54.3430 C.3    27  SER27       0.1889
     47  C         -4.5480   -8.3180   54.1650 C.2    27  SER27       0.2288
     48  O         -4.4430   -7.0980   53.9930 O.2    27  SER27      -0.2866
     49  CB        -2.4840   -9.0770   53.0550 C.3    27  SER27       0.2089
     50  OG        -3.2010   -9.6190   51.9850 O.3    27  SER27      -0.2183
     51  N        -11.9410   -7.2680   51.8700 N.3    31  VAL31      -0.1231
     52  CA       -11.8310   -7.2120   50.4260 C.3    31  VAL31       0.1692
     53  C        -13.1280   -7.5730   49.7410 C.2    31  VAL31       0.2592
     54  O        -13.9320   -8.3450   50.2600 O.2    31  VAL31      -0.2718
     55  CB       -10.6970   -8.1720   50.0620 C.3    31  VAL31       0.0266
     56  CG1      -10.8460   -8.6790   48.6800 C.3    31  VAL31       0.0020
     57  CG2       -9.3910   -7.4520   50.3010 C.3    31  VAL31       0.0020
     58  N        -13.3540   -6.9890   48.5720 N.am   32  ARG32      -0.1966
     59  CA       -14.5740   -7.2350   47.8110 C.3    32  ARG32       0.1729
     60  C        -14.2230   -7.8450   46.4650 C.2    32  ARG32       0.2616
     61  O        -13.4930   -7.2510   45.6720 O.2    32  ARG32      -0.2715
     62  CB       -15.3970   -5.9540   47.6390 C.3    32  ARG32       0.0348
     63  CG       -15.7660   -5.2980   48.9950 C.3    32  ARG32       0.0492
     64  CD       -16.8410   -4.2090   48.8950 C.3    32  ARG32       0.2205
     65  NE       -17.8150   -4.3220   49.9860 N.pl3  32  ARG32      -0.0865
     66  CZ       -18.1010   -3.3540   50.8560 C.cat  32  ARG32       0.5346
     67  NH1      -17.4870   -2.1810   50.7640 N.pl3  32  ARG32       0.1354
     68  NH2      -18.9990   -3.5580   51.8190 N.pl3  32  ARG32       0.1354
     69  N        -14.7620   -9.0220   46.2150 N.am   33  LYS33      -0.1977
     70  CA       -14.3760   -9.8550   45.1030 C.3    33  LYS33       0.1596
     71  C        -15.5030  -10.0490   44.1160 C.2    33  LYS33       0.2287
     72  O        -15.3270  -10.7690   43.1310 O.2    33  LYS33      -0.2864
     73  CB       -13.9130  -11.2250   45.6080 C.3    33  LYS33       0.0298
     74  CG       -12.9020  -11.1680   46.7100 C.3    33  LYS33       0.0038
     75  CD       -12.5520  -12.5520   47.2080 C.3    33  LYS33       0.0206
     76  CE       -11.7300  -12.4490   48.4710 C.3    33  LYS33       0.1093
     77  NZ       -11.1360  -13.7040   48.9220 N.3    33  LYS33      -0.1314
     78  N        -18.2320   -8.0110   41.8030 N.3    35  TYR35      -0.1241
     79  CA       -18.5260   -6.6990   41.2500 C.3    35  TYR35       0.1605
     80  C        -19.7110   -6.7700   40.3180 C.2    35  TYR35       0.2264
     81  O        -19.8080   -7.6740   39.4920 O.2    35  TYR35      -0.2867
     82  CB       -17.3360   -6.1230   40.5070 C.3    35  TYR35       0.0534
     83  CG       -16.1880   -5.7550   41.4200 C.ar   35  TYR35      -0.0201
     84  CD1      -16.2540   -4.6060   42.2230 C.ar   35  TYR35      -0.0009
     85  CD2      -15.0540   -6.5370   41.5000 C.ar   35  TYR35      -0.0009
     86  CE1      -15.2120   -4.2520   43.0770 C.ar   35  TYR35       0.0417
     87  CE2      -13.9940   -6.1920   42.3430 C.ar   35  TYR35       0.0417
     88  CZ       -14.0790   -5.0530   43.1280 C.ar   35  TYR35       0.1957
     89  OH       -13.0400   -4.7260   43.9730 O.3    35  TYR35      -0.2866
     90  N        -14.3030  -12.8620   41.0830 N.3    45  ILE45      -0.1245
     91  CA       -13.0130  -13.2940   40.5560 C.3    45  ILE45       0.1561
     92  C        -12.1060  -13.8250   41.6460 C.2    45  ILE45       0.2260
     93  O        -12.1170  -13.3310   42.7720 O.2    45  ILE45      -0.2867
     94  CB       -12.3210  -12.1700   39.7760 C.3    45  ILE45       0.0252
     95  CG1      -13.3290  -11.4880   38.8740 C.3    45  ILE45       0.0019
     96  CG2      -11.2430  -12.7550   38.9190 C.3    45  ILE45       0.0019
     97  CD1      -12.7200  -10.5230   37.9920 C.3    45  ILE45       0.0001
     98  N         -7.9700  -15.2330   42.4800 N.3    47  GLY47      -0.1210
     99  CA        -6.6410  -15.1660   41.9200 C.3    47  GLY47       0.1956
    100  C         -5.8560  -13.9670   42.3960 C.2    47  GLY47       0.2613
    101  O         -6.0900  -13.4420   43.4880 O.2    47  GLY47      -0.2717
    102  N         -4.9080  -13.5300   41.5830 N.am   48  THR48      -0.1938
    103  CA        -4.0840  -12.3970   41.9480 C.3    48  THR48       0.2028
    104  C         -4.9230  -11.1310   41.9530 C.2    48  THR48       0.2642
    105  O         -5.5340  -10.7800   40.9440 O.2    48  THR48      -0.2714
    106  CB        -2.9370  -12.2530   40.9620 C.3    48  THR48       0.1808
    107  OG1       -2.2290  -13.4880   40.8630 O.3    48  THR48      -0.2208
    108  CG2       -2.0080  -11.1730   41.4290 C.3    48  THR48       0.0379
    109  N         -4.8730  -10.4090   43.0690 N.am   49  ALA49      -0.1977
    110  CA        -5.7960   -9.3080   43.3000 C.3    49  ALA49       0.1597
    111  C         -5.7110   -8.2640   42.1960 C.2    49  ALA49       0.2287
    112  O         -6.7380   -7.7960   41.6920 O.2    49  ALA49      -0.2864
    113  CB        -5.5180   -8.6860   44.6610 C.3    49  ALA49       0.0319
    114  N         -7.4790   -9.5340   39.2350 N.3    52  ALA52      -0.1231
    115  CA        -8.9200   -9.6760   39.4300 C.3    52  ALA52       0.1694
    116  C         -9.6290   -8.3310   39.3150 C.2    52  ALA52       0.2591
    117  O        -10.6630   -8.1980   38.6410 O.2    52  ALA52      -0.2718
    118  CB        -9.1960  -10.3320   40.7750 C.3    52  ALA52       0.0304
    119  N         -9.0940   -7.3180   39.9890 N.am   53  VAL53      -0.1980
    120  CA        -9.7050   -6.0050   39.9030 C.3    53  VAL53       0.1595
    121  C         -9.5750   -5.4450   38.4920 C.2    53  VAL53       0.2287
    122  O        -10.5380   -4.9130   37.9300 O.2    53  VAL53      -0.2864
    123  CB        -9.0630   -5.0640   40.9330 C.3    53  VAL53       0.0276
    124  CG1       -9.5070   -3.6490   40.6770 C.3    53  VAL53       0.0022
    125  CG2       -9.4230   -5.4980   42.3460 C.3    53  VAL53       0.0022
    126  N          2.4940  -16.3550   36.9220 N.3    97  GLY97      -0.1210
    127  CA         2.0190  -16.0980   38.2640 C.3    97  GLY97       0.1956
    128  C          0.8960  -15.0820   38.3860 C.2    97  GLY97       0.2612
    129  O          0.2890  -15.0030   39.4550 O.2    97  GLY97      -0.2717
    130  N          0.5420  -14.3500   37.3380 N.am   98  LEU98      -0.1965
    131  CA        -0.5610  -13.3850   37.4280 C.3    98  LEU98       0.1728
    132  C         -1.8930  -14.0100   36.9910 C.2    98  LEU98       0.2616
    133  O         -2.5470  -13.5880   36.0420 O.2    98  LEU98      -0.2715
    134  CB        -0.2420  -12.1390   36.6080 C.3    98  LEU98       0.0311
    135  CG         1.0210  -11.3590   36.9630 C.3    98  LEU98       0.0022
    136  CD1        1.0590  -10.0970   36.1590 C.3    98  LEU98       0.0001
    137  CD2        1.0380  -11.0490   38.4330 C.3    98  LEU98       0.0001
    138  N         -2.3060  -15.0370   37.7100 N.am   99  LEU99      -0.1977
    139  CA        -3.4550  -15.8140   37.2870 C.3    99  LEU99       0.1596
    140  C         -4.7220  -15.3380   37.9720 C.2    99  LEU99       0.2287
    141  O         -4.7260  -15.0740   39.1730 O.2    99  LEU99      -0.2864
    142  CB        -3.2310  -17.2870   37.5870 C.3    99  LEU99       0.0297
    143  CG        -4.4750  -18.1380   37.5110 C.3    99  LEU99       0.0022
    144  CD1       -4.9060  -18.1540   36.0880 C.3    99  LEU99       0.0001
    145  CD2       -4.0260  -19.4810   37.8710 C.3    99  LEU99       0.0001
@<TRIPOS>BOND
     1   133   132    2
     2   144   143    1
     3   136   135    1
     4   134   135    1
     5   134   131    1
     6   126   127    1
     7   135   137    1
     8   132   131    1
     9   132   138   am
    10   139   142    1
    11   139   138    1
    12   139   140    1
    13   130   131    1
    14   130   128   am
    15   143   142    1
    16   143   145    1
    17   122   121    2
    18   140   141    2
    19    97    95    1
    20   127   128    1
    21   128   129    2
    22   121   120    1
    23   117   116    2
    24    95    94    1
    25    96    94    1
    26   114   115    1
    27   116   115    1
    28   116   119   am
    29   115   118    1
    30    81    80    2
    31    94    91    1
    32   120   119    1
    33   120   123    1
    34    80    79    1
    35    82    79    1
    36    82    83    1
    37    91    90    1
    38    91    92    1
    39   124   123    1
    40   107   106    1
    41   123   125    1
    42   105   104    2
    43   106   108    1
    44   106   103    1
    45    79    78    1
    46    83    85   ar
    47    83    84   ar
    48    85    87   ar
    49   102   103    1
    50   102   100   am
    51    92    93    2
    52   112   111    2
    53    99   100    1
    54    99    98    1
    55   103   104    1
    56   104   109   am
    57   111   110    1
    58    84    86   ar
    59    87    88   ar
    60   100   101    2
    61   109   110    1
    62    86    88   ar
    63    88    89    1
    64    72    71    2
    65   110   113    1
    66    71    70    1
    67    70    73    1
    68    70    69    1
    69    73    74    1
    70    61    60    2
    71     7     5    1
    72    69    60   am
    73    60    59    1
    74    74    75    1
    75     5     6    1
    76     5     2    1
    77     4     3    2
    78    75    76    1
    79    62    59    1
    80    62    63    1
    81     3     2    1
    82    59    58    1
    83     2     1    1
    84    76    77    1
    85    58    53   am
    86    56    55    1
    87    64    63    1
    88    64    65    1
    89    53    54    2
    90    53    52    1
    91    28    27    2
    92    65    66    2
    93    55    57    1
    94    55    52    1
    95    24    23    1
    96    52    51    1
    97    37    38    1
    98    37    36    1
    99    40    38   am
   100    11    10    2
   101    30    29    1
   102    67    66    1
   103    38    39    2
   104    66    68    1
   105    23    20    1
   106    27    32   am
   107    27    26    1
   108    41    42    1
   109    41    34   am
   110    33    36    1
   111    33    32    1
   112    33    34    1
   113    20    21    1
   114    20    19    1
   115    25    26    1
   116    25    21   am
   117    42    43    1
   118    34    35    2
   119    10    19   am
   120    10     9    1
   121    26    29    1
   122    50    49    1
   123    29    31    1
   124    21    22    2
   125     8     9    1
   126    44    43    2
   127     9    12    1
   128    49    46    1
   129    12    13    1
   130    13    14    1
   131    48    47    2
   132    47    46    1
   133    46    45    1
   134    14    15    1
   135    15    16    2
   136    17    16    1
   137    16    18    1
