@<TRIPOS>MOLECULE
tmp/5trhB01.pdb
 132 124 0 0 0
SMALL
GASTEIGER

@<TRIPOS>ATOM
      1  N         21.8680    6.2520   65.9050 N.3   168  PHE168     -0.1241
      2  CA        22.4730    5.0410   66.4500 C.3   168  PHE168      0.1605
      3  C         24.0030    4.9490   66.3080 C.2   168  PHE168      0.2264
      4  O         24.5890    4.0000   66.8220 O.2   168  PHE168     -0.2867
      5  CB        21.8030    3.8000   65.8520 C.3   168  PHE168      0.0534
      6  CG        20.3560    3.6370   66.2410 C.ar  168  PHE168     -0.0203
      7  CD1       19.9860    3.4710   67.5770 C.ar  168  PHE168     -0.0042
      8  CD2       19.3620    3.6140   65.2740 C.ar  168  PHE168     -0.0042
      9  CE1       18.6400    3.3070   67.9360 C.ar  168  PHE168     -0.0003
     10  CE2       18.0230    3.4410   65.6330 C.ar  168  PHE168     -0.0003
     11  CZ        17.6690    3.2840   66.9600 C.ar  168  PHE168     -0.0000
     12  N         25.8930    7.9040   74.3590 N.3   172  PRO172     -0.2116
     13  CA        25.1250    9.0060   74.9880 C.3   172  PRO172      0.1372
     14  C         25.8540   10.3570   74.9980 C.2   172  PRO172      0.2244
     15  O         25.2240   11.3800   74.7330 O.2   172  PRO172     -0.2868
     16  CB        24.8130    8.4880   76.3900 C.3   172  PRO172      0.0268
     17  CG        24.9520    7.0050   76.2830 C.3   172  PRO172      0.0207
     18  CD        26.0320    6.7590   75.2820 C.3   172  PRO172      0.0892
     19  N         25.8460   11.8680   71.4380 N.3   175  ARG175     -0.1245
     20  CA        24.4840   12.3430   71.2120 C.3   175  ARG175      0.1563
     21  C         24.3110   13.7480   71.8360 C.2   175  ARG175      0.2260
     22  O         23.8080   14.6280   71.1370 O.2   175  ARG175     -0.2867
     23  CB        23.4390   11.3500   71.7470 C.3   175  ARG175      0.0307
     24  CG        22.0110   11.8200   71.5120 C.3   175  ARG175      0.0489
     25  CD        20.9630   10.8980   72.1100 C.3   175  ARG175      0.2205
     26  NE        19.6160   11.2870   71.6910 N.pl3 175  ARG175     -0.0865
     27  CZ        19.0200   10.8380   70.5920 C.cat 175  ARG175      0.5346
     28  NH1       19.6490    9.9790   69.7870 N.pl3 175  ARG175      0.1354
     29  NH2       17.8060   11.2540   70.2750 N.pl3 175  ARG175      0.1354
     30  N         16.3020    8.0680   65.4230 N.3   291  CYS291     -0.1235
     31  CA        16.5300    6.7540   66.0530 C.3   291  CYS291      0.1677
     32  C         15.2330    5.9870   65.9150 C.2   291  CYS291      0.2270
     33  O         14.3650    6.0980   66.7790 O.2   291  CYS291     -0.2867
     34  CB        16.9060    6.8960   67.5220 C.3   291  CYS291      0.0956
     35  SG        18.5600    7.5410   67.8030 S.3   291  CYS291     -0.0801
     36  N         14.1400   10.5490   72.7590 N.3   341  CYS341     -0.1235
     37  CA        14.5620    9.1950   73.1400 C.3   341  CYS341      0.1677
     38  C         14.3750    9.0110   74.6560 C.2   341  CYS341      0.2270
     39  O         15.2500    8.4680   75.3290 O.2   341  CYS341     -0.2867
     40  CB        15.9960    8.9030   72.6910 C.3   341  CYS341      0.0956
     41  SG        16.1770    8.5690   70.9180 S.3   341  CYS341     -0.0801
     42  N         14.7430   11.1310   76.8920 N.3   343  SER343     -0.1217
     43  CA        15.8520   11.8260   77.5510 C.3   343  SER343      0.1889
     44  C         15.8620   13.3230   77.3070 C.2   343  SER343      0.2288
     45  O         15.3170   13.7980   76.3180 O.2   343  SER343     -0.2866
     46  CB        17.1880   11.2400   77.0910 C.3   343  SER343      0.2089
     47  OG        17.1940    9.8280   77.1960 O.3   343  SER343     -0.2183
     48  N         22.9250   13.5230   79.2570 N.3   359  LEU359     -0.1245
     49  CA        21.5270   13.1370   79.0560 C.3   359  LEU359      0.1561
     50  C         21.0040   12.4690   80.3000 C.2   359  LEU359      0.2260
     51  O         21.6670   11.6100   80.8830 O.2   359  LEU359     -0.2867
     52  CB        21.3350   12.1860   77.8570 C.3   359  LEU359      0.0270
     53  CG        21.5680   12.7540   76.4540 C.3   359  LEU359      0.0019
     54  CD1       21.7990   11.6460   75.4680 C.3   359  LEU359      0.0001
     55  CD2       20.4260   13.6690   76.0130 C.3   359  LEU359      0.0001
     56  N         17.6170   -4.2680   83.1520 N.3   382  SER382     -0.1217
     57  CA        17.4300   -2.8740   82.7500 C.3   382  SER382      0.1889
     58  C         18.3080   -1.9560   83.5830 C.2   382  SER382      0.2288
     59  O         18.7960   -0.9630   83.0460 O.2   382  SER382     -0.2866
     60  CB        15.9620   -2.4630   82.8380 C.3   382  SER382      0.2089
     61  OG        15.5330   -2.1590   84.1540 O.3   382  SER382     -0.2183
     62  N         21.8990   -1.5680   82.0290 N.3   385  GLY385     -0.1210
     63  CA        21.8240   -0.7300   80.8380 C.3   385  GLY385      0.1956
     64  C         21.6290    0.7280   81.1980 C.2   385  GLY385      0.2611
     65  O         22.2390    1.5990   80.5730 O.2   385  GLY385     -0.2717
     66  N         20.7920    1.0040   82.2310 N.am  386  ASN386     -0.1974
     67  CA        20.5510    2.3520   82.7620 C.3   386  ASN386      0.1688
     68  C         21.8110    2.9220   83.4180 C.2   386  ASN386      0.2292
     69  O         22.0450    4.1170   83.3010 O.2   386  ASN386     -0.2864
     70  CB        19.3900    2.3700   83.7420 C.3   386  ASN386      0.1181
     71  CG        18.0270    2.3740   83.0950 C.2   386  ASN386      0.2629
     72  OD1       17.7530    3.1090   82.1320 O.2   386  ASN386     -0.2716
     73  ND2       17.1150    1.6200   83.6720 N.am  386  ASN386     -0.0877
     74  N         24.1090    3.7130   80.2380 N.3   389  MET389     -0.1230
     75  CA        23.5980    4.8550   79.4760 C.3   389  MET389      0.1702
     76  C         23.4280    6.1420   80.2610 C.2   389  MET389      0.2592
     77  O         23.6380    7.2180   79.6940 O.2   389  MET389     -0.2718
     78  CB        22.2860    4.4930   78.7680 C.3   389  MET389      0.0401
     79  CG        22.4310    3.3350   77.7700 C.3   389  MET389      0.0596
     80  SD        23.4170    3.6990   76.2910 S.3   389  MET389     -0.1393
     81  CE        22.1510    4.4900   75.2430 C.3   389  MET389      0.0692
     82  N         23.0220    6.0490   81.5340 N.am  390  TYR390     -0.1976
     83  CA        22.8330    7.2170   82.3810 C.3   390  TYR390      0.1639
     84  C         23.8780    7.3310   83.4890 C.2   390  TYR390      0.2290
     85  O         23.6180    7.9610   84.5070 O.2   390  TYR390     -0.2864
     86  CB        21.4030    7.2790   82.9400 C.3   390  TYR390      0.0560
     87  CG        20.3370    7.4330   81.8790 C.ar  390  TYR390     -0.0198
     88  CD1       20.1410    8.6490   81.2320 C.ar  390  TYR390     -0.0009
     89  CD2       19.5010    6.3670   81.5410 C.ar  390  TYR390     -0.0009
     90  CE1       19.1560    8.7970   80.2610 C.ar  390  TYR390      0.0417
     91  CE2       18.5020    6.5090   80.5860 C.ar  390  TYR390      0.0417
     92  CZ        18.3460    7.7200   79.9360 C.ar  390  TYR390      0.1957
     93  OH        17.3700    7.8280   78.9900 O.3   390  TYR390     -0.2866
     94  N         20.2510   -4.8240   77.1230 N.3   421  GLN421     -0.1231
     95  CA        19.9220   -4.3540   75.7780 C.3   421  GLN421      0.1698
     96  C         20.4220   -2.9210   75.5630 C.2   421  GLN421      0.2592
     97  O         20.0610   -2.0290   76.3310 O.2   421  GLN421     -0.2718
     98  CB        18.4010   -4.3830   75.5690 C.3   421  GLN421      0.0381
     99  CG        17.7940   -5.7700   75.5770 C.3   421  GLN421      0.0905
    100  CD        17.5670   -6.2640   74.1800 C.2   421  GLN421      0.2608
    101  OE1       16.9240   -5.5990   73.3480 O.2   421  GLN421     -0.2717
    102  NE2       18.0750   -7.4570   73.8970 N.am  421  GLN421     -0.0878
    103  N         21.2540   -2.7060   74.5310 N.am  422  ILE422     -0.1966
    104  CA        21.7120   -1.3740   74.1310 C.3   422  ILE422      0.1727
    105  C         21.4870   -1.2410   72.6390 C.2   422  ILE422      0.2616
    106  O         22.0230   -2.0300   71.8480 O.2   422  ILE422     -0.2715
    107  CB        23.1370   -0.9540   74.6050 C.3   422  ILE422      0.0290
    108  CG1       23.1830   -0.8190   76.1530 C.3   422  ILE422      0.0022
    109  CG2       23.5640    0.3750   73.9260 C.3   422  ILE422      0.0023
    110  CD1       24.5140   -1.0480   76.7420 C.3   422  ILE422      0.0001
    111  N         20.6300   -0.2740   72.2770 N.am  423  TYR423     -0.1960
    112  CA        20.1990    0.0530   70.9140 C.3   423  TYR423      0.1771
    113  C         19.5580   -1.1480   70.1940 C.2   423  TYR423      0.2620
    114  O         19.6750   -1.2730   68.9750 O.2   423  TYR423     -0.2715
    115  CB        21.3440    0.6920   70.0900 C.3   423  TYR423      0.0574
    116  CG        21.6950    2.1230   70.4550 C.ar  423  TYR423     -0.0198
    117  CD1       20.8900    2.8670   71.3220 C.ar  423  TYR423     -0.0009
    118  CD2       22.7980    2.7560   69.8870 C.ar  423  TYR423     -0.0009
    119  CE1       21.1960    4.1900   71.6400 C.ar  423  TYR423      0.0417
    120  CE2       23.0940    4.0900   70.1710 C.ar  423  TYR423      0.0417
    121  CZ        22.3010    4.7990   71.0600 C.ar  423  TYR423      0.1957
    122  OH        22.6030    6.1110   71.3470 O.3   423  TYR423     -0.2866
    123  N         18.8820   -2.0070   70.9590 N.am  424  GLY424     -0.1954
    124  CA        18.2010   -3.1900   70.4420 C.3   424  GLY424      0.1869
    125  C         19.0110   -4.4710   70.4740 C.2   424  GLY424      0.2309
    126  O         18.4290   -5.5580   70.4350 O.2   424  GLY424     -0.2863
    127  N         16.7130   -2.9910   67.0220 N.3   531  SER531     -0.1217
    128  CA        15.4650   -3.2900   67.7320 C.3   531  SER531      0.1889
    129  C         14.6910   -4.3870   66.9950 C.2   531  SER531      0.2288
    130  O         14.4640   -4.2830   65.7870 O.2   531  SER531     -0.2866
    131  CB        14.6200   -2.0340   67.9190 C.3   531  SER531      0.2089
    132  OG        14.4450   -1.7710   69.3010 O.3   531  SER531     -0.2183
@<TRIPOS>BOND
     1     8    10   ar
     2     8     6   ar
     3    30    31    1
     4    10    11   ar
     5   130   129    2
     6     5     6    1
     7     5     2    1
     8     1     2    1
     9    32    31    1
    10    32    33    2
    11    31    34    1
    12     6     7   ar
    13     3     2    1
    14     3     4    2
    15    11     9   ar
    16   129   128    1
    17   127   128    1
    18    34    35    1
    19     7     9   ar
    20   128   131    1
    21   131   132    1
    22   114   113    2
    23    28    27    1
    24   118   120   ar
    25   118   116   ar
    26   115   116    1
    27   115   112    1
    28   120   121   ar
    29   113   112    1
    30   113   123   am
    31    29    27    1
    32   126   125    2
    33   124   125    1
    34   124   123    1
    35   116   117   ar
    36    27    26    2
    37   112   111    1
    38    41    40    1
    39   121   122    1
    40   121   119   ar
    41    22    21    2
    42    20    19    1
    43    20    23    1
    44    20    21    1
    45   117   119   ar
    46    24    23    1
    47    24    25    1
    48    26    25    1
    49   106   105    2
    50   111   105   am
    51   105   104    1
    52    40    37    1
    53    36    37    1
    54    37    38    1
    55   101   100    2
    56   102   100   am
    57   109   107    1
    58   104   103    1
    59   104   107    1
    60   100    99    1
    61    12    13    1
    62    12    18    1
    63   103    96   am
    64   107   108    1
    65    38    39    2
    66    15    14    2
    67    13    14    1
    68    13    16    1
    69    81    80    1
    70    18    17    1
    71    54    53    1
    72    96    95    1
    73    96    97    2
    74    98    99    1
    75    98    95    1
    76    95    94    1
    77    55    53    1
    78   108   110    1
    79    17    16    1
    80    80    79    1
    81    45    44    2
    82    53    52    1
    83    42    43    1
    84    46    47    1
    85    46    43    1
    86    44    43    1
    87    79    78    1
    88    52    49    1
    89    78    75    1
    90    93    92    1
    91    49    48    1
    92    49    50    1
    93    75    74    1
    94    75    76    1
    95    77    76    2
    96    92    90   ar
    97    92    91   ar
    98    90    88   ar
    99    76    82   am
   100    50    51    2
   101    65    64    2
   102    91    89   ar
   103    63    64    1
   104    63    62    1
   105    64    66   am
   106    88    87   ar
   107    82    83    1
   108    89    87   ar
   109    87    86    1
   110    72    71    2
   111    66    67    1
   112    83    86    1
   113    83    84    1
   114    57    60    1
   115    57    56    1
   116    57    58    1
   117    67    68    1
   118    67    70    1
   119    60    61    1
   120    59    58    2
   121    71    73   am
   122    71    70    1
   123    69    68    2
   124    84    85    2
