@<TRIPOS>MOLECULE
tmp/5triB01.pdb
 150 141 0 0 0
SMALL
GASTEIGER

@<TRIPOS>ATOM
      1  N         22.0050    6.0090   65.6390 N.3   171  PHE171     -0.1241
      2  CA        22.6140    4.8320   66.2330 C.3   171  PHE171      0.1605
      3  C         24.1360    4.7640   66.1150 C.2   171  PHE171      0.2264
      4  O         24.7340    3.8370   66.6740 O.2   171  PHE171     -0.2867
      5  CB        21.9580    3.5560   65.7100 C.3   171  PHE171      0.0534
      6  CG        20.5100    3.4470   66.1230 C.ar  171  PHE171     -0.0203
      7  CD1       20.1540    3.3630   67.4720 C.ar  171  PHE171     -0.0042
      8  CD2       19.5010    3.4040   65.1700 C.ar  171  PHE171     -0.0042
      9  CE1       18.8110    3.2350   67.8570 C.ar  171  PHE171     -0.0003
     10  CE2       18.1600    3.2720   65.5580 C.ar  171  PHE171     -0.0003
     11  CZ        17.8230    3.1950   66.9000 C.ar  171  PHE171     -0.0000
     12  N         26.3690    7.7700   74.1190 N.3   175  PRO175     -0.2116
     13  CA        25.6430    8.8620   74.8010 C.3   175  PRO175      0.1372
     14  C         26.3840   10.2020   74.7900 C.2   175  PRO175      0.2244
     15  O         25.7600   11.2650   74.5850 O.2   175  PRO175     -0.2868
     16  CB        25.4440    8.3240   76.2330 C.3   175  PRO175      0.0268
     17  CG        25.5260    6.8330   76.0980 C.3   175  PRO175      0.0207
     18  CD        26.5850    6.6220   75.0360 C.3   175  PRO175      0.0892
     19  N         26.0780   11.7000   71.2770 N.3   178  ARG178     -0.1245
     20  CA        24.7180   12.1540   71.0460 C.3   178  ARG178      0.1563
     21  C         24.4950   13.5320   71.6870 C.2   178  ARG178      0.2260
     22  O         24.0150   14.4480   71.0200 O.2   178  ARG178     -0.2867
     23  CB        23.6940   11.1290   71.5710 C.3   178  ARG178      0.0307
     24  CG        22.2600   11.5920   71.3350 C.3   178  ARG178      0.0489
     25  CD        21.2170   10.6360   71.8920 C.3   178  ARG178      0.2205
     26  NE        19.8800   11.1600   71.6510 N.pl3 178  ARG178     -0.0865
     27  CZ        19.1250   10.8290   70.6060 C.cat 178  ARG178      0.5346
     28  NH1       19.5650    9.9560   69.7070 N.pl3 178  ARG178      0.1354
     29  NH2       17.9340   11.3800   70.4450 N.pl3 178  ARG178      0.1354
     30  N         16.3450    7.9000   65.2120 N.3   294  CYS294     -0.1235
     31  CA        16.5690    6.5920   65.8470 C.3   294  CYS294      0.1677
     32  C         15.2790    5.8620   65.6960 C.2   294  CYS294      0.2270
     33  O         14.3930    6.0710   66.5070 O.2   294  CYS294     -0.2867
     34  CB        16.9240    6.7560   67.3230 C.3   294  CYS294      0.0956
     35  SG        18.6190    7.3130   67.6290 S.3   294  CYS294     -0.0801
     36  N         11.9600    7.4960   66.3920 N.3   297  ASP297     -0.1239
     37  CA        12.2170    8.6740   67.2150 C.3   297  ASP297      0.1674
     38  C         12.9320    9.7390   66.3920 C.2   297  ASP297      0.2266
     39  O         13.9890    9.4790   65.8140 O.2   297  ASP297     -0.2867
     40  CB        13.0180    8.3030   68.4790 C.3   297  ASP297      0.1410
     41  CG        12.9620    9.3840   69.5410 C.2   297  ASP297      0.3668
     42  OD1       13.6920   10.3990   69.3910 O.co2 297  ASP297     -0.2456
     43  OD2       12.1860    9.2170   70.5260 O.co2 297  ASP297     -0.2456
     44  N         14.0960   10.2130   72.5510 N.3   344  CYS344     -0.1235
     45  CA        14.5040    8.8610   72.9410 C.3   344  CYS344      0.1677
     46  C         14.3660    8.7890   74.4680 C.2   344  CYS344      0.2270
     47  O         15.2430    8.2670   75.1460 O.2   344  CYS344     -0.2867
     48  CB        15.9220    8.5390   72.4690 C.3   344  CYS344      0.0956
     49  SG        16.0970    8.3410   70.6770 S.3   344  CYS344     -0.0801
     50  N         14.8280   11.0690   76.5840 N.3   346  SER346     -0.1217
     51  CA        15.9100   11.8010   77.2510 C.3   346  SER346      0.1889
     52  C         15.9770   13.2890   77.0090 C.2   346  SER346      0.2288
     53  O         15.5620   13.7730   75.9620 O.2   346  SER346     -0.2866
     54  CB        17.2500   11.1820   76.8710 C.3   346  SER346      0.2089
     55  OG        17.1630    9.7720   76.9990 O.3   346  SER346     -0.2183
     56  N         23.0240   13.5060   79.0460 N.3   362  LEU362     -0.1245
     57  CA        21.6340   13.0870   78.8700 C.3   362  LEU362      0.1561
     58  C         21.0970   12.4130   80.1080 C.2   362  LEU362      0.2260
     59  O         21.7420   11.5510   80.7230 O.2   362  LEU362     -0.2867
     60  CB        21.4550   12.1700   77.6490 C.3   362  LEU362      0.0270
     61  CG        21.7100   12.8110   76.2750 C.3   362  LEU362      0.0019
     62  CD1       21.9810   11.7520   75.2400 C.3   362  LEU362      0.0001
     63  CD2       20.5640   13.7380   75.8530 C.3   362  LEU362      0.0001
     64  N         17.6740   -4.3550   82.9520 N.3   385  SER385     -0.1217
     65  CA        17.4960   -2.9580   82.5510 C.3   385  SER385      0.1889
     66  C         18.3410   -2.0310   83.4210 C.2   385  SER385      0.2288
     67  O         18.7660   -0.9840   82.9370 O.2   385  SER385     -0.2866
     68  CB        16.0210   -2.5620   82.6310 C.3   385  SER385      0.2089
     69  OG        15.5840   -2.3780   83.9680 O.3   385  SER385     -0.2183
     70  N         21.8490   -1.6160   81.8280 N.3   388  GLY388     -0.1210
     71  CA        21.8180   -0.7630   80.6400 C.3   388  GLY388      0.1956
     72  C         21.6110    0.6980   81.0250 C.2   388  GLY388      0.2611
     73  O         22.1620    1.6020   80.3890 O.2   388  GLY388     -0.2717
     74  N         20.8180    0.9340   82.0830 N.am  389  ASN389     -0.1974
     75  CA        20.5920    2.2860   82.6080 C.3   389  ASN389      0.1688
     76  C         21.8570    2.8200   83.2780 C.2   389  ASN389      0.2292
     77  O         22.1610    3.9860   83.1030 O.2   389  ASN389     -0.2864
     78  CB        19.3900    2.3290   83.5490 C.3   389  ASN389      0.1181
     79  CG        18.0890    2.3330   82.8010 C.2   389  ASN389      0.2629
     80  OD1       17.9290    3.0530   81.7960 O.2   389  ASN389     -0.2716
     81  ND2       17.1200    1.5590   83.2930 N.am  389  ASN389     -0.0877
     82  N         24.1200    3.6470   80.0890 N.3   392  MET392     -0.1230
     83  CA        23.6600    4.7720   79.2880 C.3   392  MET392      0.1702
     84  C         23.4910    6.0580   80.0530 C.2   392  MET392      0.2592
     85  O         23.6650    7.1410   79.4860 O.2   392  MET392     -0.2718
     86  CB        22.3570    4.4040   78.5750 C.3   392  MET392      0.0401
     87  CG        22.5270    3.2220   77.6020 C.3   392  MET392      0.0596
     88  SD        23.6420    3.5580   76.2000 S.3   392  MET392     -0.1393
     89  CE        22.4840    4.3750   75.0650 C.3   392  MET392      0.0692
     90  N         23.1430    5.9460   81.3350 N.am  393  TYR393     -0.1976
     91  CA        22.9120    7.0950   82.1710 C.3   393  TYR393      0.1639
     92  C         23.9240    7.2260   83.2950 C.2   393  TYR393      0.2290
     93  O         23.6640    7.8990   84.2850 O.2   393  TYR393     -0.2864
     94  CB        21.4750    7.0780   82.6840 C.3   393  TYR393      0.0560
     95  CG        20.4460    7.2440   81.5890 C.ar  393  TYR393     -0.0198
     96  CD1       20.2610    8.4760   80.9620 C.ar  393  TYR393     -0.0009
     97  CD2       19.6250    6.1810   81.2080 C.ar  393  TYR393     -0.0009
     98  CE1       19.3020    8.6450   79.9740 C.ar  393  TYR393      0.0417
     99  CE2       18.6350    6.3470   80.2420 C.ar  393  TYR393      0.0417
    100  CZ        18.4800    7.5800   79.6250 C.ar  393  TYR393      0.1957
    101  OH        17.5000    7.7450   78.6790 O.3   393  TYR393     -0.2866
    102  N         20.7690   -4.9300   76.8570 N.3   424  GLN424     -0.1231
    103  CA        20.4720   -4.4710   75.5220 C.3   424  GLN424      0.1698
    104  C         20.8970   -3.0310   75.3020 C.2   424  GLN424      0.2592
    105  O         20.6120   -2.1720   76.1350 O.2   424  GLN424     -0.2718
    106  CB        18.9760   -4.6180   75.2680 C.3   424  GLN424      0.0381
    107  CG        18.5240   -6.0600   75.1900 C.3   424  GLN424      0.0905
    108  CD        17.8180   -6.3230   73.8990 C.2   424  GLN424      0.2608
    109  OE1       16.9150   -5.5710   73.4690 O.2   424  GLN424     -0.2717
    110  NE2       18.2100   -7.4120   73.2620 N.am  424  GLN424     -0.0878
    111  N         21.5900   -2.7800   74.1860 N.am  425  ILE425     -0.1966
    112  CA        22.0090   -1.4310   73.7840 C.3   425  ILE425      0.1727
    113  C         21.7090   -1.3160   72.3010 C.2   425  ILE425      0.2616
    114  O         22.2940   -2.0580   71.4990 O.2   425  ILE425     -0.2715
    115  CB        23.4830   -1.0770   74.1380 C.3   425  ILE425      0.0290
    116  CG1       23.6980   -1.0530   75.6870 C.3   425  ILE425      0.0022
    117  CG2       23.8610    0.2850   73.5210 C.3   425  ILE425      0.0023
    118  CD1       24.9530   -1.6820   76.1070 C.3   425  ILE425      0.0001
    119  N         20.7640   -0.4100   71.9480 N.am  426  TYR426     -0.1960
    120  CA        20.2880   -0.1530   70.5790 C.3   426  TYR426      0.1771
    121  C         19.7350   -1.4570   69.9210 C.2   426  TYR426      0.2620
    122  O         19.9660   -1.7140   68.7400 O.2   426  TYR426     -0.2715
    123  CB        21.3930    0.4810   69.7100 C.3   426  TYR426      0.0574
    124  CG        21.8420    1.8810   70.0940 C.ar  426  TYR426     -0.0198
    125  CD1       21.0750    2.6780   70.9570 C.ar  426  TYR426     -0.0009
    126  CD2       22.9700    2.4580   69.5040 C.ar  426  TYR426     -0.0009
    127  CE1       21.4610    3.9820   71.2740 C.ar  426  TYR426      0.0417
    128  CE2       23.3430    3.7730   69.7890 C.ar  426  TYR426      0.0417
    129  CZ        22.5940    4.5260   70.6840 C.ar  426  TYR426      0.1957
    130  OH        22.9620    5.8190   70.9650 O.3   426  TYR426     -0.2866
    131  N         19.0390   -2.2680   70.7190 N.am  427  GLY427     -0.1954
    132  CA        18.4430   -3.5180   70.2570 C.3   427  GLY427      0.1869
    133  C         19.3660   -4.7230   70.2300 C.2   427  GLY427      0.2309
    134  O         18.8750   -5.8420   70.1340 O.2   427  GLY427     -0.2863
    135  N         31.1050    8.1880   78.0720 N.3   445  HIS445     -0.1241
    136  CA        30.7360    9.4720   78.6600 C.3   445  HIS445      0.1621
    137  C         31.9090   10.3860   78.9630 C.2   445  HIS445      0.2264
    138  O         31.6960   11.5620   79.2610 O.2   445  HIS445     -0.2867
    139  CB        29.9760    9.1840   79.9670 C.3   445  HIS445      0.0745
    140  CG        28.7560    8.3440   79.7900 C.ar  445  HIS445      0.0817
    141  ND1       27.5730    8.8820   79.3170 N.ar  445  HIS445     -0.2268
    142  CD2       28.5590    7.0380   80.0860 C.ar  445  HIS445      0.1154
    143  CE1       26.7070    7.8880   79.3230 C.ar  445  HIS445      0.1986
    144  NE2       27.2590    6.7530   79.7490 N.ar  445  HIS445     -0.2212
    145  N         16.8700   -3.1320   66.9680 N.3   534  SER534     -0.1217
    146  CA        15.6370   -3.5100   67.6840 C.3   534  SER534      0.1889
    147  C         14.8300   -4.6140   66.9540 C.2   534  SER534      0.2288
    148  O         14.5530   -4.5000   65.7500 O.2   534  SER534     -0.2866
    149  CB        14.7690   -2.2950   68.0080 C.3   534  SER534      0.2089
    150  OG        14.7990   -2.0470   69.4050 O.3   534  SER534     -0.2183
@<TRIPOS>BOND
     1     8    10   ar
     2     8     6   ar
     3    30    31    1
     4    10    11   ar
     5     1     2    1
     6    32    31    1
     7    32    33    2
     8     5     6    1
     9     5     2    1
    10   148   147    2
    11    39    38    2
    12    31    34    1
    13     3     2    1
    14     3     4    2
    15     6     7   ar
    16    36    37    1
    17    38    37    1
    18    11     9   ar
    19   147   146    1
    20   145   146    1
    21    37    40    1
    22    34    35    1
    23     7     9   ar
    24   146   149    1
    25   149   150    1
    26    40    41    1
    27   122   121    2
    28    42    41   ar
    29   126   128   ar
    30   126   124   ar
    31    41    43   ar
    32    28    27    1
    33   123   124    1
    34   123   120    1
    35   128   129   ar
    36   121   120    1
    37   121   131   am
    38   124   125   ar
    39   134   133    2
    40   133   132    1
    41   132   131    1
    42    29    27    1
    43   120   119    1
    44    27    26    2
    45    49    48    1
    46   129   130    1
    47   129   127   ar
    48   125   127   ar
    49    22    21    2
    50    20    19    1
    51    20    23    1
    52    20    21    1
    53    24    23    1
    54    24    25    1
    55   114   113    2
    56    26    25    1
    57   119   113   am
    58   113   112    1
    59    48    45    1
    60    44    45    1
    61    45    46    1
    62   110   108   am
    63   109   108    2
    64   117   115    1
    65   112   115    1
    66   112   111    1
    67   108   107    1
    68    12    13    1
    69    12    18    1
    70   115   116    1
    71   111   104   am
    72    46    47    2
    73    15    14    2
    74    14    13    1
    75    13    16    1
    76    18    17    1
    77    89    88    1
    78   107   106    1
    79    62    61    1
    80   106   103    1
    81   104   103    1
    82   104   105    2
    83   103   102    1
    84   116   118    1
    85    63    61    1
    86    53    52    2
    87    17    16    1
    88    88    87    1
    89    61    60    1
    90    50    51    1
    91    54    55    1
    92    54    51    1
    93    52    51    1
    94    87    86    1
    95    60    57    1
    96   135   136    1
    97    86    83    1
    98   136   137    1
    99   136   139    1
   100   101   100    1
   101    57    56    1
   102    57    58    1
   103   137   138    2
   104    83    84    1
   105    83    82    1
   106   141   143   ar
   107   141   140   ar
   108   143   144   ar
   109    85    84    2
   110   100    98   ar
   111   100    99   ar
   112   144   142   ar
   113   140   139    1
   114   140   142   ar
   115    98    96   ar
   116    84    90   am
   117    58    59    2
   118    99    97   ar
   119    73    72    2
   120    71    72    1
   121    71    70    1
   122    96    95   ar
   123    72    74   am
   124    97    95   ar
   125    90    91    1
   126    95    94    1
   127    80    79    2
   128    74    75    1
   129    91    94    1
   130    91    92    1
   131    65    68    1
   132    65    64    1
   133    65    66    1
   134    75    76    1
   135    75    78    1
   136    68    69    1
   137    79    81   am
   138    79    78    1
   139    67    66    2
   140    77    76    2
   141    92    93    2
