@<TRIPOS>MOLECULE
tmp/5trjB01.pdb
 149 141 0 0 0
SMALL
GASTEIGER

@<TRIPOS>ATOM
      1  N         22.0680    6.1740   65.9930 N.3   169  PHE169     -0.1241
      2  CA        22.6930    4.9920   66.5760 C.3   169  PHE169      0.1605
      3  C         24.2110    4.9540   66.4920 C.2   169  PHE169      0.2264
      4  O         24.8170    4.0920   67.1160 O.2   169  PHE169     -0.2867
      5  CB        22.0950    3.7260   65.9820 C.3   169  PHE169      0.0534
      6  CG        20.6310    3.5420   66.3210 C.ar  169  PHE169     -0.0203
      7  CD1       20.2240    3.3530   67.6350 C.ar  169  PHE169     -0.0042
      8  CD2       19.6670    3.5010   65.3170 C.ar  169  PHE169     -0.0042
      9  CE1       18.8800    3.1640   67.9420 C.ar  169  PHE169     -0.0003
     10  CE2       18.3250    3.2950   65.6260 C.ar  169  PHE169     -0.0003
     11  CZ        17.9400    3.1330   66.9340 C.ar  169  PHE169     -0.0000
     12  N         26.0150    7.9220   74.4390 N.3   173  PRO173     -0.2116
     13  CA        25.2450    9.0300   75.0630 C.3   173  PRO173      0.1372
     14  C         25.9760   10.3690   75.0880 C.2   173  PRO173      0.2244
     15  O         25.3560   11.4090   74.8660 O.2   173  PRO173     -0.2868
     16  CB        24.9300    8.5240   76.4720 C.3   173  PRO173      0.0268
     17  CG        25.0610    7.0330   76.3900 C.3   173  PRO173      0.0207
     18  CD        26.0890    6.7460   75.3350 C.3   173  PRO173      0.0892
     19  N         25.8590   11.8490   71.5610 N.3   176  ARG176     -0.1245
     20  CA        24.4810   12.3020   71.3360 C.3   176  ARG176      0.1563
     21  C         24.3050   13.7030   71.9980 C.2   176  ARG176      0.2260
     22  O         23.7830   14.6080   71.3570 O.2   176  ARG176     -0.2867
     23  CB        23.4580   11.2880   71.8850 C.3   176  ARG176      0.0307
     24  CG        22.0040   11.7330   71.7430 C.3   176  ARG176      0.0489
     25  CD        20.9760   10.7160   72.2350 C.3   176  ARG176      0.2205
     26  NE        19.6140   11.2190   72.0490 N.pl3 176  ARG176     -0.0865
     27  CZ        18.8390   10.9480   70.9990 C.cat 176  ARG176      0.5346
     28  NH1       19.2780   10.1550   70.0240 N.pl3 176  ARG176      0.1354
     29  NH2       17.6200   11.4680   70.9140 N.pl3 176  ARG176      0.1354
     30  N         16.4520    7.9380   65.5230 N.3   292  CYS292     -0.1235
     31  CA        16.6840    6.5970   66.1010 C.3   292  CYS292      0.1677
     32  C         15.3510    5.8810   65.9370 C.2   292  CYS292      0.2270
     33  O         14.4580    6.0860   66.7610 O.2   292  CYS292     -0.2867
     34  CB        17.0580    6.6780   67.5790 C.3   292  CYS292      0.0956
     35  SG        18.5600    7.6080   67.9280 S.3   292  CYS292     -0.0801
     36  N         14.0000   10.2570   72.9850 N.3   342  CYS342     -0.1221
     37  CA        14.4430    8.9070   73.3500 C.3   342  CYS342      0.1808
     38  C         14.3120    8.7570   74.8770 C.2   342  CYS342      0.2602
     39  O         15.1870    8.1860   75.5290 O.2   342  CYS342     -0.2717
     40  CB        15.8710    8.6460   72.8660 C.3   342  CYS342      0.0970
     41  SG        16.0300    8.3660   71.0800 S.3   342  CYS342     -0.0800
     42  N         13.2190    9.3330   75.4360 N.am  343  SER343     -0.1938
     43  CA        12.8410    9.3880   76.8580 C.3   343  SER343      0.2055
     44  C         13.7540   10.2820   77.7260 C.2   343  SER343      0.2643
     45  O         13.5390   10.3740   78.9350 O.2   343  SER343     -0.2714
     46  CB        12.7330    7.9860   77.4550 C.3   343  SER343      0.2130
     47  OG        12.2430    7.0430   76.5160 O.3   343  SER343     -0.2179
     48  N         14.7290   10.9800   77.1060 N.am  344  SER344     -0.1949
     49  CA        15.7020   11.7700   77.8360 C.3   344  SER344      0.1924
     50  C         15.7490   13.2580   77.4810 C.2   344  SER344      0.2314
     51  O         15.1390   13.7090   76.5170 O.2   344  SER344     -0.2863
     52  CB        17.0900   11.1430   77.7080 C.3   344  SER344      0.2116
     53  OG        17.5190   11.0410   76.3650 O.3   344  SER344     -0.2180
     54  N         22.9230   13.5670   79.4240 N.3   360  LEU360     -0.1245
     55  CA        21.5350   13.1400   79.2270 C.3   360  LEU360      0.1561
     56  C         21.0190   12.4850   80.4930 C.2   360  LEU360      0.2260
     57  O         21.7060   11.6630   81.1080 O.2   360  LEU360     -0.2867
     58  CB        21.3770   12.1630   78.0420 C.3   360  LEU360      0.0270
     59  CG        21.5250   12.7410   76.6380 C.3   360  LEU360      0.0019
     60  CD1       21.7190   11.6450   75.6240 C.3   360  LEU360      0.0001
     61  CD2       20.3630   13.6720   76.2810 C.3   360  LEU360      0.0001
     62  N         16.7780   11.7100   82.6000 N.3   362  ARG362     -0.1245
     63  CA        15.3450   11.4960   82.3850 C.3   362  ARG362      0.1563
     64  C         14.6820   11.3830   83.7410 C.2   362  ARG362      0.2260
     65  O         15.3870   11.1970   84.7420 O.2   362  ARG362     -0.2867
     66  CB        15.1020   10.2050   81.5900 C.3   362  ARG362      0.0307
     67  CG        15.7450    8.9730   82.1990 C.3   362  ARG362      0.0489
     68  CD        15.0470    7.7150   81.7890 C.3   362  ARG362      0.2205
     69  NE        13.6630    7.6740   82.2680 N.pl3 362  ARG362     -0.0865
     70  CZ        12.6760    7.0300   81.6460 C.cat 362  ARG362      0.5346
     71  NH1       12.9060    6.3870   80.5030 N.pl3 362  ARG362      0.1354
     72  NH2       11.4540    7.0180   82.1640 N.pl3 362  ARG362      0.1354
     73  N         17.5490   -4.3940   83.3080 N.3   383  SER383     -0.1217
     74  CA        17.3670   -3.0050   82.8830 C.3   383  SER383      0.1889
     75  C         18.2350   -2.0560   83.7050 C.2   383  SER383      0.2288
     76  O         18.7070   -1.0510   83.1710 O.2   383  SER383     -0.2866
     77  CB        15.8980   -2.6020   82.9690 C.3   383  SER383      0.2089
     78  OG        15.4660   -2.2960   84.2840 O.3   383  SER383     -0.2183
     79  N         21.7120   -1.5400   82.1770 N.3   386  GLY386     -0.1210
     80  CA        21.6470   -0.6930   80.9910 C.3   386  GLY386      0.1956
     81  C         21.4880    0.7610   81.3710 C.2   386  GLY386      0.2611
     82  O         22.0920    1.6320   80.7480 O.2   386  GLY386     -0.2717
     83  N         20.6770    1.0210   82.4160 N.am  387  ASN387     -0.1974
     84  CA        20.4480    2.3440   82.9920 C.3   387  ASN387      0.1688
     85  C         21.7300    2.8720   83.6450 C.2   387  ASN387      0.2292
     86  O         21.9830    4.0610   83.5470 O.2   387  ASN387     -0.2864
     87  CB        19.2970    2.3170   84.0000 C.3   387  ASN387      0.1181
     88  CG        17.9360    2.3670   83.3680 C.2   387  ASN387      0.2629
     89  OD1       17.6670    3.1870   82.5050 O.2   387  ASN387     -0.2716
     90  ND2       17.0300    1.5250   83.8070 N.am  387  ASN387     -0.0877
     91  N         23.9350    3.6960   80.3780 N.3   390  MET390     -0.1230
     92  CA        23.3970    4.8410   79.6440 C.3   390  MET390      0.1702
     93  C         23.2800    6.1220   80.4530 C.2   390  MET390      0.2592
     94  O         23.4780    7.2020   79.8880 O.2   390  MET390     -0.2718
     95  CB        22.0430    4.4900   78.9910 C.3   390  MET390      0.0401
     96  CG        22.1490    3.3500   77.9740 C.3   390  MET390      0.0596
     97  SD        23.3470    3.5660   76.6220 S.3   390  MET390     -0.1393
     98  CE        22.3200    4.4980   75.4570 C.3   390  MET390      0.0692
     99  N         22.9450    6.0080   81.7560 N.am  391  TYR391     -0.1976
    100  CA        22.7700    7.1570   82.6190 C.3   391  TYR391      0.1639
    101  C         23.7970    7.2640   83.7350 C.2   391  TYR391      0.2290
    102  O         23.5340    7.8950   84.7630 O.2   391  TYR391     -0.2864
    103  CB        21.3450    7.2200   83.1640 C.3   391  TYR391      0.0560
    104  CG        20.3090    7.4820   82.0950 C.ar  391  TYR391     -0.0198
    105  CD1       20.1720    8.7420   81.5240 C.ar  391  TYR391     -0.0009
    106  CD2       19.4570    6.4690   81.6580 C.ar  391  TYR391     -0.0009
    107  CE1       19.2060    8.9940   80.5580 C.ar  391  TYR391      0.0417
    108  CE2       18.4660    6.7180   80.7110 C.ar  391  TYR391      0.0417
    109  CZ        18.3510    7.9820   80.1580 C.ar  391  TYR391      0.1957
    110  OH        17.3960    8.2500   79.2160 O.3   391  TYR391     -0.2866
    111  N         20.2970   -4.8210   77.1360 N.3   422  GLN422     -0.1231
    112  CA        19.9630   -4.3720   75.7870 C.3   422  GLN422      0.1698
    113  C         20.2710   -2.8820   75.5900 C.2   422  GLN422      0.2592
    114  O         19.6330   -2.0330   76.2330 O.2   422  GLN422     -0.2718
    115  CB        18.4640   -4.5820   75.5020 C.3   422  GLN422      0.0381
    116  CG        17.9260   -5.9540   75.8170 C.3   422  GLN422      0.0905
    117  CD        17.8800   -6.7970   74.5870 C.2   422  GLN422      0.2608
    118  OE1       17.3010   -6.4100   73.5600 O.2   422  GLN422     -0.2717
    119  NE2       18.4790   -7.9740   74.6760 N.am  422  GLN422     -0.0878
    120  N         21.2100   -2.5720   74.6720 N.am  423  ILE423     -0.1966
    121  CA        21.5470   -1.1940   74.2850 C.3   423  ILE423      0.1727
    122  C         21.3330   -1.1430   72.7860 C.2   423  ILE423      0.2616
    123  O         21.9110   -1.9670   72.0570 O.2   423  ILE423     -0.2715
    124  CB        22.9930   -0.7320   74.6800 C.3   423  ILE423      0.0290
    125  CG1       23.2680   -0.8840   76.1920 C.3   423  ILE423      0.0022
    126  CG2       23.2740    0.7090   74.2090 C.3   423  ILE423      0.0023
    127  CD1       24.6720   -1.3670   76.4610 C.3   423  ILE423      0.0001
    128  N         20.4750   -0.1990   72.3320 N.am  424  TYR424     -0.1960
    129  CA        20.0980    0.0360   70.9250 C.3   424  TYR424      0.1771
    130  C         19.5000   -1.2120   70.2370 C.2   424  TYR424      0.2620
    131  O         19.6800   -1.3920   69.0290 O.2   424  TYR424     -0.2715
    132  CB        21.2800    0.6090   70.1110 C.3   424  TYR424      0.0574
    133  CG        21.7090    2.0230   70.4590 C.ar  424  TYR424     -0.0198
    134  CD1       20.9320    2.8270   71.2930 C.ar  424  TYR424     -0.0009
    135  CD2       22.8590    2.5780   69.9050 C.ar  424  TYR424     -0.0009
    136  CE1       21.3000    4.1380   71.5780 C.ar  424  TYR424      0.0417
    137  CE2       23.2200    3.8980   70.1640 C.ar  424  TYR424      0.0417
    138  CZ        22.4460    4.6680   71.0140 C.ar  424  TYR424      0.1957
    139  OH        22.8120    5.9600   71.2990 O.3   424  TYR424     -0.2866
    140  N         18.8180   -2.0600   71.0150 N.am  425  GLY425     -0.1954
    141  CA        18.1940   -3.2750   70.5110 C.3   425  GLY425      0.1869
    142  C         19.0750   -4.5080   70.4330 C.2   425  GLY425      0.2309
    143  O         18.5570   -5.5980   70.1740 O.2   425  GLY425     -0.2863
    144  N         16.7830   -3.1390   66.9810 N.3   532  SER532     -0.1217
    145  CA        15.5110   -3.4440   67.6540 C.3   532  SER532      0.1889
    146  C         14.7820   -4.5980   66.9440 C.2   532  SER532      0.2288
    147  O         14.5300   -4.5310   65.7360 O.2   532  SER532     -0.2866
    148  CB        14.6210   -2.2050   67.7370 C.3   532  SER532      0.2089
    149  OG        14.8550   -1.4660   68.9260 O.3   532  SER532     -0.2183
@<TRIPOS>BOND
     1     8    10   ar
     2     8     6   ar
     3    30    31    1
     4    10    11   ar
     5   147   146    2
     6    32    31    1
     7    32    33    2
     8     5     6    1
     9     5     2    1
    10     1     2    1
    11    31    34    1
    12     6     7   ar
    13     3     2    1
    14     3     4    2
    15    11     9   ar
    16   146   145    1
    17   144   145    1
    18    34    35    1
    19     7     9   ar
    20   145   148    1
    21   148   149    1
    22   131   130    2
    23   135   137   ar
    24   135   133   ar
    25    28    27    1
    26   132   133    1
    27   132   129    1
    28   137   138   ar
    29   143   142    2
    30   130   129    1
    31   130   140   am
    32   142   141    1
    33   133   134   ar
    34   141   140    1
    35    29    27    1
    36   129   128    1
    37    27    26    2
    38   138   139    1
    39   138   136   ar
    40    41    40    1
    41   134   136   ar
    42    20    19    1
    43    20    23    1
    44    20    21    1
    45    22    21    2
    46    24    23    1
    47    24    25    1
    48    26    25    1
    49   123   122    2
    50   128   122   am
    51   122   121    1
    52    40    37    1
    53    36    37    1
    54    37    38    1
    55   118   117    2
    56   126   124    1
    57   121   120    1
    58   121   124    1
    59    12    13    1
    60    12    18    1
    61   117   119   am
    62   117   116    1
    63   120   113   am
    64   124   125    1
    65    15    14    2
    66    38    42   am
    67    38    39    2
    68    13    14    1
    69    13    16    1
    70    18    17    1
    71    42    43    1
    72    98    97    1
    73   115   112    1
    74   115   116    1
    75   113   112    1
    76   113   114    2
    77    60    59    1
    78   112   111    1
    79   125   127    1
    80    61    59    1
    81    53    52    1
    82    17    16    1
    83    47    46    1
    84    51    50    2
    85    97    96    1
    86    59    58    1
    87    43    46    1
    88    43    44    1
    89    48    44   am
    90    48    49    1
    91    50    49    1
    92    52    49    1
    93    44    45    2
    94    96    95    1
    95    58    55    1
    96    95    92    1
    97   110   109    1
    98    55    54    1
    99    55    56    1
   100    92    91    1
   101    92    93    1
   102    94    93    2
   103   109   107   ar
   104   109   108   ar
   105    93    99   am
   106    56    57    2
   107    71    70    1
   108   107   105   ar
   109   108   106   ar
   110    82    81    2
   111    80    81    1
   112    80    79    1
   113    81    83   am
   114   105   104   ar
   115    66    67    1
   116    66    63    1
   117    70    72    1
   118    70    69    2
   119   106   104   ar
   120    99   100    1
   121    68    67    1
   122    68    69    1
   123   104   103    1
   124    63    62    1
   125    63    64    1
   126    83    84    1
   127    89    88    2
   128   100   103    1
   129   100   101    1
   130    74    77    1
   131    74    73    1
   132    74    75    1
   133    77    78    1
   134    84    85    1
   135    84    87    1
   136    76    75    2
   137    88    90   am
   138    88    87    1
   139    86    85    2
   140   101   102    2
   141    64    65    2
