@<TRIPOS>MOLECULE
tmp/5trkB01.pdb
 185 176 0 0 0
SMALL
GASTEIGER

@<TRIPOS>ATOM
      1  N         22.0450    6.1990   65.7210 N.3   171  PHE171     -0.1241
      2  CA        22.6650    5.0200   66.3540 C.3   171  PHE171      0.1605
      3  C         24.1750    4.9530   66.2130 C.2   171  PHE171      0.2264
      4  O         24.7960    4.0710   66.8160 O.2   171  PHE171     -0.2867
      5  CB        22.0030    3.7200   65.8720 C.3   171  PHE171      0.0534
      6  CG        20.5410    3.6130   66.2620 C.ar  171  PHE171     -0.0203
      7  CD1       20.1600    3.5330   67.6050 C.ar  171  PHE171     -0.0042
      8  CD2       19.5470    3.5650   65.2890 C.ar  171  PHE171     -0.0042
      9  CE1       18.8140    3.4310   67.9650 C.ar  171  PHE171     -0.0003
     10  CE2       18.2040    3.4070   65.6550 C.ar  171  PHE171     -0.0003
     11  CZ        17.8480    3.3440   66.9880 C.ar  171  PHE171     -0.0000
     12  N         26.3170    7.8810   74.1640 N.3   175  PRO175     -0.2116
     13  CA        25.5840    8.9800   74.8330 C.3   175  PRO175      0.1372
     14  C         26.3270   10.3190   74.8280 C.2   175  PRO175      0.2244
     15  O         25.7160   11.3740   74.6780 O.2   175  PRO175     -0.2868
     16  CB        25.4030    8.4640   76.2770 C.3   175  PRO175      0.0268
     17  CG        25.5250    6.9880   76.1640 C.3   175  PRO175      0.0207
     18  CD        26.5250    6.7370   75.0820 C.3   175  PRO175      0.0892
     19  N         26.0310   11.8560   71.3740 N.3   178  ARG178     -0.1245
     20  CA        24.6770   12.3030   71.0680 C.3   178  ARG178      0.1563
     21  C         24.4750   13.6880   71.7360 C.2   178  ARG178      0.2260
     22  O         23.9510   14.5930   71.1000 O.2   178  ARG178     -0.2867
     23  CB        23.6330   11.2930   71.5700 C.3   178  ARG178      0.0307
     24  CG        22.1820   11.7840   71.3900 C.3   178  ARG178      0.0489
     25  CD        21.1230   10.8020   71.9120 C.3   178  ARG178      0.2205
     26  NE        19.7820   11.3660   71.7160 N.pl3 178  ARG178     -0.0865
     27  CZ        18.9780   11.0690   70.6930 C.cat 178  ARG178      0.5346
     28  NH1       19.3600   10.1910   69.7650 N.pl3 178  ARG178      0.1354
     29  NH2       17.7940   11.6480   70.5880 N.pl3 178  ARG178      0.1354
     30  N         13.9010   -3.9940   60.8950 N.3   265  THR265     -0.1203
     31  CA        12.9800   -3.0960   61.6370 C.3   265  THR265      0.1994
     32  C         13.6330   -1.7460   61.9960 C.2   265  THR265      0.2618
     33  O         13.0590   -0.7050   61.6970 O.2   265  THR265     -0.2717
     34  CB        12.4180   -3.7790   62.8950 C.3   265  THR265      0.1784
     35  OG1       11.7390   -4.9610   62.4880 O.3   265  THR265     -0.2211
     36  CG2       11.4410   -2.8690   63.6980 C.3   265  THR265      0.0376
     37  N         14.8040   -1.7620   62.6400 N.am  266  SER266     -0.1951
     38  CA        15.4440   -0.4910   63.0330 C.3   266  SER266      0.1924
     39  C         15.9040    0.3290   61.8260 C.2   266  SER266      0.2314
     40  O         15.5900    1.5140   61.7530 O.2   266  SER266     -0.2863
     41  CB        16.5930   -0.7210   64.0100 C.3   266  SER266      0.2116
     42  OG        17.2220    0.5150   64.3350 O.3   266  SER266     -0.2180
     43  N         12.7480    1.4740   59.8160 N.3   269  ASN269     -0.1240
     44  CA        12.0500    2.5600   60.5420 C.3   269  ASN269      0.1653
     45  C         12.8340    3.8680   60.4980 C.2   269  ASN269      0.2266
     46  O         12.2390    4.9190   60.2820 O.2   269  ASN269     -0.2867
     47  CB        11.7820    2.1660   61.9870 C.3   269  ASN269      0.1155
     48  CG        10.5400    1.3020   62.1080 C.2   269  ASN269      0.2627
     49  OD1        9.8070    1.0630   61.1450 O.2   269  ASN269     -0.2716
     50  ND2       10.2650    0.8320   63.2940 N.am  269  ASN269     -0.0877
     51  N         16.4010    8.0980   65.2920 N.3   294  CYS294     -0.1221
     52  CA        16.6570    6.7560   65.8780 C.3   294  CYS294      0.1808
     53  C         15.3750    5.9820   65.7000 C.2   294  CYS294      0.2602
     54  O         14.4570    6.1730   66.4940 O.2   294  CYS294     -0.2717
     55  CB        16.9880    6.8750   67.3640 C.3   294  CYS294      0.0970
     56  SG        18.5600    7.6760   67.7140 S.3   294  CYS294     -0.0800
     57  N         15.2710    5.1810   64.6490 N.am  295  GLY295     -0.1942
     58  CA        14.0400    4.4410   64.3940 C.3   295  GLY295      0.2014
     59  C         12.9040    5.4170   64.2120 C.2   295  GLY295      0.2639
     60  O         13.0320    6.3860   63.4580 O.2   295  GLY295     -0.2714
     61  N         11.8280    5.2300   64.9660 N.am  296  ASP296     -0.1957
     62  CA        10.6840    6.1360   64.9020 C.3   296  ASP296      0.1840
     63  C         10.8900    7.4100   65.7420 C.2   296  ASP296      0.2622
     64  O          9.9880    8.2260   65.8280 O.2   296  ASP296     -0.2715
     65  CB         9.4030    5.3840   65.3420 C.3   296  ASP296      0.1450
     66  CG         9.2540    4.9620   66.8030 C.2   296  ASP296      0.3671
     67  OD1       10.0810    5.3760   67.6320 O.co2 296  ASP296     -0.2456
     68  OD2        8.3040    4.2040   67.1100 O.co2 296  ASP296     -0.2456
     69  N         12.0390    7.5540   66.4230 N.am  297  ASP297     -0.1971
     70  CA        12.2510    8.7520   67.2570 C.3   297  ASP297      0.1709
     71  C         12.9350    9.8460   66.4470 C.2   297  ASP297      0.2293
     72  O         14.0240    9.6300   65.9170 O.2   297  ASP297     -0.2864
     73  CB        13.0580    8.4170   68.5170 C.3   297  ASP297      0.1436
     74  CG        13.0640    9.5530   69.5190 C.2   297  ASP297      0.3671
     75  OD1       13.8840   10.4990   69.3460 O.co2 297  ASP297     -0.2456
     76  OD2       12.2090    9.5410   70.4380 O.co2 297  ASP297     -0.2456
     77  N         14.1890   10.3280   72.5850 N.3   344  CYS344     -0.1235
     78  CA        14.5690    8.9690   72.9820 C.3   344  CYS344      0.1677
     79  C         14.4550    8.8510   74.5110 C.2   344  CYS344      0.2270
     80  O         15.3330    8.3020   75.1730 O.2   344  CYS344     -0.2867
     81  CB        15.9510    8.5830   72.4620 C.3   344  CYS344      0.0956
     82  SG        16.0290    8.3420   70.6670 S.3   344  CYS344     -0.0801
     83  N         14.9320   11.0100   76.6890 N.3   346  SER346     -0.1217
     84  CA        16.0160   11.7250   77.3600 C.3   346  SER346      0.1889
     85  C         16.0320   13.2240   77.1100 C.2   346  SER346      0.2288
     86  O         15.5550   13.6880   76.0780 O.2   346  SER346     -0.2866
     87  CB        17.3490   11.1550   76.8880 C.3   346  SER346      0.2089
     88  OG        17.3670    9.7520   77.0470 O.3   346  SER346     -0.2183
     89  N         23.1570   13.5440   79.1320 N.3   362  LEU362     -0.1245
     90  CA        21.7650   13.1220   78.9200 C.3   362  LEU362      0.1561
     91  C         21.2240   12.4530   80.1780 C.2   362  LEU362      0.2260
     92  O         21.8840   11.6270   80.8090 O.2   362  LEU362     -0.2867
     93  CB        21.6920   12.1070   77.7510 C.3   362  LEU362      0.0270
     94  CG        21.0940   12.5020   76.3830 C.3   362  LEU362      0.0019
     95  CD1       20.7380   13.9530   76.2620 C.3   362  LEU362      0.0001
     96  CD2       21.9830   12.0350   75.2490 C.3   362  LEU362      0.0001
     97  N         17.7170   -4.4140   83.0210 N.3   385  SER385     -0.1217
     98  CA        17.5550   -3.0360   82.5270 C.3   385  SER385      0.1889
     99  C         18.3980   -2.0760   83.3940 C.2   385  SER385      0.2288
    100  O         18.8250   -1.0380   82.8960 O.2   385  SER385     -0.2866
    101  CB        16.0920   -2.6130   82.6030 C.3   385  SER385      0.2089
    102  OG        15.6470   -2.4830   83.9440 O.3   385  SER385     -0.2183
    103  N         21.8420   -1.7590   81.7350 N.3   388  GLY388     -0.1210
    104  CA        21.7890   -0.8930   80.5610 C.3   388  GLY388      0.1956
    105  C         21.6280    0.5680   80.9830 C.2   388  GLY388      0.2611
    106  O         22.2280    1.4530   80.3810 O.2   388  GLY388     -0.2717
    107  N         20.8140    0.8340   82.0300 N.am  389  ASN389     -0.1974
    108  CA        20.6170    2.1900   82.5590 C.3   389  ASN389      0.1688
    109  C         21.8760    2.7470   83.2110 C.2   389  ASN389      0.2292
    110  O         22.1600    3.9250   83.0210 O.2   389  ASN389     -0.2864
    111  CB        19.4200    2.2680   83.5000 C.3   389  ASN389      0.1181
    112  CG        18.1320    2.3090   82.7310 C.2   389  ASN389      0.2629
    113  OD1       18.0100    3.0220   81.7240 O.2   389  ASN389     -0.2716
    114  ND2       17.1440    1.5590   83.1940 N.am  389  ASN389     -0.0877
    115  N         24.1720    3.6260   80.0830 N.3   392  MET392     -0.1230
    116  CA        23.6850    4.7370   79.2780 C.3   392  MET392      0.1702
    117  C         23.5230    6.0430   80.0460 C.2   392  MET392      0.2592
    118  O         23.6820    7.1180   79.4560 O.2   392  MET392     -0.2718
    119  CB        22.3770    4.3370   78.5740 C.3   392  MET392      0.0401
    120  CG        22.5670    3.1620   77.5980 C.3   392  MET392      0.0596
    121  SD        23.7060    3.5430   76.2270 S.3   392  MET392     -0.1393
    122  CE        22.6190    4.5260   75.1960 C.3   392  MET392      0.0692
    123  N         23.1760    5.9430   81.3360 N.am  393  TYR393     -0.1976
    124  CA        22.9670    7.0990   82.1990 C.3   393  TYR393      0.1639
    125  C         24.0010    7.2230   83.3110 C.2   393  TYR393      0.2290
    126  O         23.7460    7.8870   84.3020 O.2   393  TYR393     -0.2864
    127  CB        21.5480    7.1150   82.7520 C.3   393  TYR393      0.0560
    128  CG        20.5150    7.2710   81.6650 C.ar  393  TYR393     -0.0198
    129  CD1       20.3370    8.4920   81.0180 C.ar  393  TYR393     -0.0009
    130  CD2       19.7320    6.1880   81.2600 C.ar  393  TYR393     -0.0009
    131  CE1       19.4210    8.6280   79.9880 C.ar  393  TYR393      0.0417
    132  CE2       18.7890    6.3220   80.2480 C.ar  393  TYR393      0.0417
    133  CZ        18.6540    7.5370   79.6050 C.ar  393  TYR393      0.1957
    134  OH        17.7320    7.6510   78.6180 O.3   393  TYR393     -0.2866
    135  N         20.5580   -4.8280   76.9580 N.3   424  GLN424     -0.1231
    136  CA        20.2570   -4.3470   75.6140 C.3   424  GLN424      0.1698
    137  C         20.7550   -2.9280   75.4350 C.2   424  GLN424      0.2592
    138  O         20.4870   -2.0620   76.2880 O.2   424  GLN424     -0.2718
    139  CB        18.7310   -4.3690   75.3400 C.3   424  GLN424      0.0381
    140  CG        18.0460   -5.7350   75.4280 C.3   424  GLN424      0.0905
    141  CD        18.3790   -6.6610   74.2820 C.2   424  GLN424      0.2608
    142  OE1       19.0070   -7.7010   74.4720 O.2   424  GLN424     -0.2717
    143  NE2       17.9120   -6.3370   73.0790 N.am  424  GLN424     -0.0878
    144  N         21.4830   -2.6890   74.3310 N.am  425  ILE425     -0.1966
    145  CA        21.9660   -1.3520   73.9580 C.3   425  ILE425      0.1727
    146  C         21.6220   -1.1780   72.4770 C.2   425  ILE425      0.2616
    147  O         22.1190   -1.9340   71.6400 O.2   425  ILE425     -0.2715
    148  CB        23.4760   -1.1070   74.2410 C.3   425  ILE425      0.0290
    149  CG1       23.7810   -1.1890   75.7660 C.3   425  ILE425      0.0022
    150  CG2       23.8970    0.2700   73.6700 C.3   425  ILE425      0.0023
    151  CD1       25.2160   -1.6340   76.0420 C.3   425  ILE425      0.0001
    152  N         20.7460   -0.2060   72.1700 N.am  426  TYR426     -0.1960
    153  CA        20.2710    0.0900   70.8110 C.3   426  TYR426      0.1771
    154  C         19.6910   -1.1880   70.1560 C.2   426  TYR426      0.2620
    155  O         19.9930   -1.5040   69.0000 O.2   426  TYR426     -0.2715
    156  CB        21.3880    0.7140   69.9410 C.3   426  TYR426      0.0574
    157  CG        21.8270    2.1210   70.3130 C.ar  426  TYR426     -0.0198
    158  CD1       21.1200    2.8740   71.2530 C.ar  426  TYR426     -0.0009
    159  CD2       22.9140    2.7240   69.6760 C.ar  426  TYR426     -0.0009
    160  CE1       21.4990    4.1830   71.5660 C.ar  426  TYR426      0.0417
    161  CE2       23.2830    4.0420   69.9590 C.ar  426  TYR426      0.0417
    162  CZ        22.5730    4.7700   70.9030 C.ar  426  TYR426      0.1957
    163  OH        22.9810    6.0480   71.2160 O.3   426  TYR426     -0.2866
    164  N         18.9560   -1.9590   70.9530 N.am  427  GLY427     -0.1954
    165  CA        18.3110   -3.1870   70.5160 C.3   427  GLY427      0.1869
    166  C         19.1560   -4.4470   70.4420 C.2   427  GLY427      0.2309
    167  O         18.5920   -5.5320   70.3000 O.2   427  GLY427     -0.2863
    168  N         19.4890   -2.1970   66.2460 N.3   533  TYR533     -0.1227
    169  CA        19.0690   -3.5300   65.8390 C.3   533  TYR533      0.1736
    170  C         17.8320   -3.9820   66.5840 C.2   533  TYR533      0.2596
    171  O         17.6070   -5.1760   66.6510 O.2   533  TYR533     -0.2718
    172  CB        20.1950   -4.5500   66.0730 C.3   533  TYR533      0.0548
    173  CG        21.4840   -4.2700   65.3260 C.ar  533  TYR533     -0.0200
    174  CD1       21.6330   -4.6280   63.9810 C.ar  533  TYR533     -0.0009
    175  CD2       22.5650   -3.6730   65.9650 C.ar  533  TYR533     -0.0009
    176  CE1       22.8290   -4.3930   63.2950 C.ar  533  TYR533      0.0417
    177  CE2       23.7670   -3.4360   65.2880 C.ar  533  TYR533      0.0417
    178  CZ        23.8880   -3.7900   63.9530 C.ar  533  TYR533      0.1957
    179  OH        25.0550   -3.5310   63.2930 O.3   533  TYR533     -0.2866
    180  N         17.0320   -3.0610   67.1380 N.am  534  SER534     -0.1952
    181  CA        15.8230   -3.4370   67.8910 C.3   534  SER534      0.1924
    182  C         14.9780   -4.4750   67.1380 C.2   534  SER534      0.2314
    183  O         14.7000   -4.2910   65.9520 O.2   534  SER534     -0.2863
    184  CB        15.0020   -2.2000   68.2350 C.3   534  SER534      0.2116
    185  OG        13.7880   -2.5390   68.8820 O.3   534  SER534     -0.2180
@<TRIPOS>BOND
     1    43    44    1
     2    46    45    2
     3    45    44    1
     4    44    47    1
     5    30    31    1
     6    49    48    2
     7    31    32    1
     8    31    34    1
     9    33    32    2
    10    40    39    2
    11    39    38    1
    12    47    48    1
    13    32    37   am
    14    48    50   am
    15    35    34    1
    16    37    38    1
    17    34    36    1
    18    38    41    1
    19   179   178    1
    20   176   178   ar
    21   176   174   ar
    22    60    59    2
    23   178   177   ar
    24   174   173   ar
    25    41    42    1
    26    59    58    1
    27    59    61   am
    28    58    57    1
    29    57    53   am
    30    62    61    1
    31    62    65    1
    32    62    63    1
    33   177   175   ar
    34     8    10   ar
    35     8     6   ar
    36    51    52    1
    37   173   175   ar
    38   173   172    1
    39    65    66    1
    40    10    11   ar
    41    53    52    1
    42    53    54    2
    43     1     2    1
    44    63    64    2
    45    63    69   am
    46   169   172    1
    47   169   168    1
    48   169   170    1
    49     5     6    1
    50     5     2    1
    51    52    55    1
    52    72    71    2
    53   183   182    2
    54     3     2    1
    55     3     4    2
    56     6     7   ar
    57    69    70    1
    58    71    70    1
    59   170   171    2
    60   170   180   am
    61    66    68   ar
    62    66    67   ar
    63    11     9   ar
    64   182   181    1
    65   180   181    1
    66    70    73    1
    67    55    56    1
    68     7     9   ar
    69   181   184    1
    70   184   185    1
    71    73    74    1
    72   155   154    2
    73    75    74   ar
    74    74    76   ar
    75   159   161   ar
    76   159   157   ar
    77    28    27    1
    78   156   157    1
    79   156   153    1
    80   161   162   ar
    81   154   153    1
    82   154   164   am
    83   167   166    2
    84   157   158   ar
    85   166   165    1
    86   165   164    1
    87    29    27    1
    88    82    81    1
    89    27    26    2
    90   153   152    1
    91   162   163    1
    92   162   160   ar
    93    20    19    1
    94    20    23    1
    95    20    21    1
    96    22    21    2
    97   158   160   ar
    98    24    23    1
    99    24    25    1
   100   147   146    2
   101    26    25    1
   102   152   146   am
   103    81    78    1
   104   146   145    1
   105    77    78    1
   106    78    79    1
   107   143   141   am
   108   150   148    1
   109   145   148    1
   110   145   144    1
   111    12    13    1
   112    12    18    1
   113   148   149    1
   114   141   142    2
   115   141   140    1
   116   144   137   am
   117    79    80    2
   118    15    14    2
   119    14    13    1
   120    13    16    1
   121    18    17    1
   122   122   121    1
   123    96    94    1
   124   139   140    1
   125   139   136    1
   126   137   136    1
   127   137   138    2
   128   136   135    1
   129   149   151    1
   130    86    85    2
   131    17    16    1
   132   121   120    1
   133    95    94    1
   134    94    93    1
   135    83    84    1
   136    87    88    1
   137    87    84    1
   138    85    84    1
   139   120   119    1
   140    93    90    1
   141   119   116    1
   142   134   133    1
   143    90    89    1
   144    90    91    1
   145   116   117    1
   146   116   115    1
   147   118   117    2
   148   133   131   ar
   149   133   132   ar
   150   131   129   ar
   151   117   123   am
   152    91    92    2
   153   132   130   ar
   154   106   105    2
   155   104   105    1
   156   104   103    1
   157   105   107   am
   158   129   128   ar
   159   130   128   ar
   160   123   124    1
   161   128   127    1
   162   113   112    2
   163   107   108    1
   164   124   127    1
   165   124   125    1
   166    98   101    1
   167    98    97    1
   168    98    99    1
   169   108   109    1
   170   108   111    1
   171   101   102    1
   172   112   114   am
   173   112   111    1
   174   100    99    2
   175   110   109    2
   176   125   126    2
