@<TRIPOS>MOLECULE
tmp/5trqA00.pdb
 111 104 0 0 0
SMALL
GASTEIGER

@<TRIPOS>ATOM
      1  N        -43.0020   22.3560   24.6420 N.3   146  ARG146     -0.1245
      2  CA       -42.6510   23.3370   23.6120 C.3   146  ARG146      0.1563
      3  C        -43.9000   23.7470   22.8290 C.2   146  ARG146      0.2260
      4  O        -44.6860   22.9020   22.4110 O.2   146  ARG146     -0.2867
      5  CB       -41.5620   22.8330   22.6610 C.3   146  ARG146      0.0307
      6  CG       -40.1760   23.0280   23.2710 C.3   146  ARG146      0.0489
      7  CD       -39.8660   21.8910   24.2160 C.3   146  ARG146      0.2205
      8  NE       -39.7940   20.6000   23.5230 N.pl3 146  ARG146     -0.0865
      9  CZ       -39.3200   19.5000   24.0900 C.cat 146  ARG146      0.5346
     10  NH1      -39.2370   18.3420   23.4360 N.pl3 146  ARG146      0.1354
     11  NH2      -38.8870   19.5790   25.3150 N.pl3 146  ARG146      0.1354
     12  N        -37.8480   25.5980   15.2380 N.3   154  ILE154     -0.1245
     13  CA       -36.7390   25.2610   16.1400 C.3   154  ILE154      0.1561
     14  C        -35.4720   25.1030   15.3050 C.2   154  ILE154      0.2260
     15  O        -35.3820   24.1860   14.4690 O.2   154  ILE154     -0.2867
     16  CB       -37.0150   24.0170   16.9840 C.3   154  ILE154      0.0252
     17  CG1      -38.2030   24.2710   17.9190 C.3   154  ILE154      0.0019
     18  CG2      -35.7910   23.6840   17.8260 C.3   154  ILE154      0.0019
     19  CD1      -38.6770   23.0670   18.6420 C.3   154  ILE154      0.0001
     20  N        -29.6750   22.2150   15.6050 N.3   157  HIS157     -0.1241
     21  CA       -28.8290   22.0760   16.8040 C.3   157  HIS157      0.1621
     22  C        -28.5090   20.5920   17.0070 C.2   157  HIS157      0.2264
     23  O        -29.0570   19.7180   16.3160 O.2   157  HIS157     -0.2867
     24  CB       -29.5460   22.6640   18.0650 C.3   157  HIS157      0.0745
     25  CG       -30.7740   21.8800   18.4570 C.ar  157  HIS157      0.0817
     26  ND1      -31.9720   21.9780   17.7790 N.ar  157  HIS157     -0.2268
     27  CD2      -30.9610   20.9210   19.4040 C.ar  157  HIS157      0.1154
     28  CE1      -32.8450   21.1330   18.3050 C.ar  157  HIS157      0.1986
     29  NE2      -32.2600   20.4880   19.3080 N.ar  157  HIS157     -0.2212
     30  N        -32.9420   11.8620   22.3120 N.3   182  SER182     -0.1217
     31  CA       -34.0910   12.7670   22.3870 C.3   182  SER182      0.1889
     32  C        -35.3750   11.9660   22.3470 C.2   182  SER182      0.2288
     33  O        -35.4770   10.9700   21.6040 O.2   182  SER182     -0.2866
     34  CB       -34.0960   13.7080   21.1790 C.3   182  SER182      0.2089
     35  OG       -32.9530   14.5560   21.1940 O.3   182  SER182     -0.2183
     36  N        -39.8590   12.8820   22.2070 N.3   184  PHE184     -0.1241
     37  CA       -41.0110   13.7740   22.3920 C.3   184  PHE184      0.1605
     38  C        -42.2960   13.1430   21.9000 C.2   184  PHE184      0.2264
     39  O        -42.2680   12.2150   21.0760 O.2   184  PHE184     -0.2867
     40  CB       -40.8150   15.1610   21.7480 C.3   184  PHE184      0.0534
     41  CG       -40.8150   15.1680   20.2330 C.ar  184  PHE184     -0.0203
     42  CD1      -41.9970   15.2670   19.5100 C.ar  184  PHE184     -0.0042
     43  CD2      -39.6210   15.0280   19.5380 C.ar  184  PHE184     -0.0042
     44  CE1      -41.9600   15.3010   18.0600 C.ar  184  PHE184     -0.0003
     45  CE2      -39.5540   15.0560   18.1380 C.ar  184  PHE184     -0.0003
     46  CZ       -40.7220   15.1460   17.3940 C.ar  184  PHE184     -0.0000
     47  N        -40.1310   17.3030   12.1570 N.3   196  LEU196     -0.1245
     48  CA       -38.7910   17.0320   12.6620 C.3   196  LEU196      0.1561
     49  C        -37.9180   16.4790   11.5250 C.2   196  LEU196      0.2260
     50  O        -38.2770   15.5160   10.8600 O.2   196  LEU196     -0.2867
     51  CB       -38.9070   16.0780   13.8540 C.3   196  LEU196      0.0270
     52  CG       -37.7560   15.7630   14.8580 C.3   196  LEU196      0.0019
     53  CD1      -36.7240   14.9670   14.0860 C.3   196  LEU196      0.0001
     54  CD2      -37.1160   16.9670   15.5130 C.3   196  LEU196      0.0001
     55  N        -34.8810    9.2250   19.3220 N.3   245  PHE245     -0.1241
     56  CA       -33.8150    9.2030   18.3100 C.3   245  PHE245      0.1605
     57  C        -32.5070    9.7550   18.8520 C.2   245  PHE245      0.2264
     58  O        -32.4760   10.3910   19.8960 O.2   245  PHE245     -0.2867
     59  CB       -34.2340    9.9910   17.0390 C.3   245  PHE245      0.0534
     60  CG       -34.4310   11.4890   17.2300 C.ar  245  PHE245     -0.0203
     61  CD1      -35.5940   11.9800   17.8000 C.ar  245  PHE245     -0.0042
     62  CD2      -33.4310   12.4080   16.8860 C.ar  245  PHE245     -0.0042
     63  CE1      -35.7640   13.3700   17.9590 C.ar  245  PHE245     -0.0003
     64  CE2      -33.5610   13.7470   17.0820 C.ar  245  PHE245     -0.0003
     65  CZ       -34.7130   14.2490   17.6310 C.ar  245  PHE245     -0.0000
     66  N        -30.3750   18.2110   14.0550 N.3   252  HIS252     -0.1241
     67  CA       -31.8130   18.0760   13.8450 C.3   252  HIS252      0.1621
     68  C        -32.4860   19.4320   14.0550 C.2   252  HIS252      0.2264
     69  O        -31.9420   20.3360   14.7060 O.2   252  HIS252     -0.2867
     70  CB       -32.3830   16.9650   14.7390 C.3   252  HIS252      0.0745
     71  CG       -32.1920   17.2020   16.2100 C.ar  252  HIS252      0.0817
     72  ND1      -31.0540   16.8740   16.9000 N.ar  252  HIS252     -0.2268
     73  CD2      -33.0360   17.7310   17.1360 C.ar  252  HIS252      0.1154
     74  CE1      -31.2120   17.1710   18.1910 C.ar  252  HIS252      0.1986
     75  NE2      -32.4090   17.7300   18.3510 N.ar  252  HIS252     -0.2212
     76  N        -36.7900   21.5440   13.7310 N.3   254  VAL254     -0.1245
     77  CA       -38.2510   21.4860   13.4700 C.3   254  VAL254      0.1561
     78  C        -38.6260   22.6160   12.5150 C.2   254  VAL254      0.2260
     79  O        -38.2940   23.7720   12.7750 O.2   254  VAL254     -0.2867
     80  CB       -39.0800   21.5340   14.7550 C.3   254  VAL254      0.0252
     81  CG1      -40.5980   21.4820   14.4450 C.3   254  VAL254      0.0019
     82  CG2      -38.7500   20.3720   15.6740 C.3   254  VAL254      0.0019
     83  N        -48.2800   23.8940   17.1680 N.3   263  ARG263     -0.1245
     84  CA       -47.6030   22.6330   17.5010 C.3   263  ARG263      0.1563
     85  C        -47.2270   22.6670   18.9910 C.2   263  ARG263      0.2260
     86  O        -46.4210   23.5060   19.3980 O.2   263  ARG263     -0.2867
     87  CB       -46.3790   22.3700   16.6200 C.3   263  ARG263      0.0307
     88  CG       -45.6500   21.0770   16.8680 C.3   263  ARG263      0.0489
     89  CD       -44.4660   20.9340   15.9380 C.3   263  ARG263      0.2205
     90  NE       -43.6420   19.7200   16.0510 N.pl3 263  ARG263     -0.0865
     91  CZ       -42.5770   19.5760   16.8360 C.cat 263  ARG263      0.5346
     92  NH1      -42.2150   20.5470   17.6930 N.pl3 263  ARG263      0.1354
     93  NH2      -41.8230   18.4500   16.7050 N.pl3 263  ARG263      0.1354
     94  N        -45.6050   20.0300   21.9510 N.3   265  THR265     -0.1218
     95  CA       -44.9220   18.7540   22.1960 C.3   265  THR265      0.1862
     96  C        -44.4260   18.6840   23.6400 C.2   265  THR265      0.2287
     97  O        -43.9440   19.6810   24.1670 O.2   265  THR265     -0.2866
     98  CB       -43.7180   18.5790   21.2070 C.3   265  THR265      0.1770
     99  OG1      -42.9160   19.7670   21.2470 O.3   265  THR265     -0.2211
    100  CG2      -44.1390   18.3040   19.7440 C.3   265  THR265      0.0375
    101  N        -34.8850   14.2250   27.1470 N.3   269  PHE269     -0.1241
    102  CA       -33.6640   13.4900   26.8240 C.3   269  PHE269      0.1605
    103  C        -33.5560   12.2670   27.7150 C.2   269  PHE269      0.2264
    104  O        -34.1450   12.1990   28.8010 O.2   269  PHE269     -0.2867
    105  CB       -32.4040   14.3770   26.9880 C.3   269  PHE269      0.0534
    106  CG       -32.5820   15.7650   26.3960 C.ar  269  PHE269     -0.0203
    107  CD1      -32.4880   15.9630   25.0130 C.ar  269  PHE269     -0.0042
    108  CD2      -32.8830   16.8760   27.2360 C.ar  269  PHE269     -0.0042
    109  CE1      -32.6920   17.2100   24.4510 C.ar  269  PHE269     -0.0003
    110  CE2      -33.1100   18.1560   26.6600 C.ar  269  PHE269     -0.0003
    111  CZ       -32.9950   18.3300   25.2930 C.ar  269  PHE269     -0.0000
@<TRIPOS>BOND
     1    50    49    2
     2    49    48    1
     3    47    48    1
     4    78    79    2
     5    78    77    1
     6    48    51    1
     7    77    76    1
     8    77    80    1
     9    67    66    1
    10    67    68    1
    11    67    70    1
    12    51    52    1
    13    68    69    2
    14    53    52    1
    15    81    80    1
    16    15    14    2
    17    70    71    1
    18    80    82    1
    19    52    54    1
    20    12    13    1
    21    14    13    1
    22    20    21    1
    23    89    90    1
    24    89    88    1
    25    90    91    2
    26    13    16    1
    27    71    72   ar
    28    71    73   ar
    29    23    22    2
    30    87    88    1
    31    87    84    1
    32    93    91    1
    33    21    22    1
    34    21    24    1
    35    91    92    1
    36    62    64   ar
    37    62    60   ar
    38    72    74   ar
    39    16    18    1
    40    16    17    1
    41    59    60    1
    42    59    56    1
    43    64    65   ar
    44    73    75   ar
    45    83    84    1
    46    60    61   ar
    47    46    44   ar
    48    46    45   ar
    49    84    85    1
    50    65    63   ar
    51    26    28   ar
    52    26    25   ar
    53    61    63   ar
    54    17    19    1
    55    44    42   ar
    56    24    25    1
    57    45    43   ar
    58    74    75   ar
    59    28    29   ar
    60    56    57    1
    61    56    55    1
    62    25    27   ar
    63    57    58    2
    64    85    86    2
    65    29    27   ar
    66    42    41   ar
    67    43    41   ar
    68   100    98    1
    69    41    40    1
    70    39    38    2
    71    34    35    1
    72    34    31    1
    73    98    99    1
    74    98    95    1
    75    33    32    2
    76    40    37    1
    77    38    37    1
    78    94    95    1
    79    95    96    1
    80    36    37    1
    81    30    31    1
    82    32    31    1
    83     4     3    2
    84     5     6    1
    85     5     2    1
    86     3     2    1
    87     6     7    1
    88    10     9    1
    89     8     9    2
    90     8     7    1
    91     2     1    1
    92    96    97    2
    93     9    11    1
    94   109   107   ar
    95   109   111   ar
    96   107   106   ar
    97   111   110   ar
    98   106   105    1
    99   106   108   ar
   100   110   108   ar
   101   102   105    1
   102   102   101    1
   103   102   103    1
   104   103   104    2
