@<TRIPOS>MOLECULE
tmp/5trrX00.pdb
 77 76 0 0 0
SMALL
GASTEIGER

@<TRIPOS>ATOM
      1  N         20.4490  -34.8730   66.4420 N.3    91  LEU91      -0.1245
      2  CA        20.7150  -33.8330   65.4410 C.3    91  LEU91       0.1561
      3  C         20.6430  -34.3540   64.0050 C.2    91  LEU91       0.2260
      4  O         20.0800  -33.6910   63.1250 O.2    91  LEU91      -0.2867
      5  CB        22.0800  -33.1920   65.6920 C.3    91  LEU91       0.0270
      6  CG        22.4940  -32.1050   64.6970 C.3    91  LEU91       0.0019
      7  CD1       21.4020  -31.0680   64.5880 C.3    91  LEU91       0.0001
      8  CD2       23.7820  -31.4490   65.1250 C.3    91  LEU91       0.0001
      9  N         18.1160  -32.8340   61.0820 N.3    95  MET95      -0.1245
     10  CA        18.3320  -32.2170   59.7810 C.3    95  MET95       0.1570
     11  C         17.3620  -32.7670   58.7410 C.2    95  MET95       0.2261
     12  O         16.8110  -32.0070   57.9380 O.2    95  MET95      -0.2867
     13  CB        19.7800  -32.4150   59.3570 C.3    95  MET95       0.0387
     14  CG        20.7390  -31.6010   60.2000 C.3    95  MET95       0.0595
     15  SD        20.4690  -29.8320   59.9810 S.3    95  MET95      -0.1393
     16  CE        19.4520  -29.3960   61.3920 C.3    95  MET95       0.0692
     17  N         16.6380  -24.1590   78.4920 N.3   122  SER122     -0.1202
     18  CA        16.2360  -24.2590   77.0960 C.3   122  SER122      0.2020
     19  C         17.3660  -24.8630   76.2740 C.2   122  SER122      0.2619
     20  O         18.5350  -24.7920   76.6550 O.2   122  SER122     -0.2717
     21  CB        15.8440  -22.8940   76.5290 C.3   122  SER122      0.2103
     22  OG        16.8030  -21.9130   76.8600 O.3   122  SER122     -0.2182
     23  N         17.0040  -25.4850   75.1560 N.am  123  PHE123     -0.1961
     24  CA        17.9450  -26.2360   74.3390 C.3   123  PHE123      0.1771
     25  C         17.7780  -25.8570   72.8770 C.2   123  PHE123      0.2620
     26  O         16.6940  -25.4560   72.4530 O.2   123  PHE123     -0.2715
     27  CB        17.7300  -27.7420   74.4960 C.3   123  PHE123      0.0574
     28  CG        17.8770  -28.2360   75.9020 C.ar  123  PHE123     -0.0200
     29  CD1       16.8370  -28.1230   76.7980 C.ar  123  PHE123     -0.0042
     30  CD2       19.0440  -28.8400   76.3200 C.ar  123  PHE123     -0.0042
     31  CE1       16.9660  -28.5800   78.0810 C.ar  123  PHE123     -0.0003
     32  CE2       19.1710  -29.3020   77.6010 C.ar  123  PHE123     -0.0003
     33  CZ        18.1330  -29.1690   78.4800 C.ar  123  PHE123     -0.0000
     34  N         18.8550  -25.9920   72.1040 N.am  124  ASP124     -0.1957
     35  CA        18.7880  -25.8500   70.6550 C.3   124  ASP124      0.1840
     36  C         19.0230  -27.1980   69.9820 C.2   124  ASP124      0.2622
     37  O         19.3400  -28.2020   70.6260 O.2   124  ASP124     -0.2715
     38  CB        19.7800  -24.8010   70.1340 C.3   124  ASP124      0.1450
     39  CG        21.2410  -25.1960   70.3190 C.2   124  ASP124      0.3671
     40  OD1       21.5900  -26.3920   70.3490 O.co2 124  ASP124     -0.2456
     41  OD2       22.0680  -24.2720   70.3940 O.co2 124  ASP124     -0.2456
     42  N         18.8910  -27.2000   68.6570 N.am  125  ALA125     -0.1963
     43  CA        18.9240  -28.4450   67.9070 C.3   125  ALA125      0.1728
     44  C         20.2470  -29.1780   68.0500 C.2   125  ALA125      0.2616
     45  O         20.3110  -30.3710   67.7440 O.2   125  ALA125     -0.2715
     46  CB        18.6430  -28.1730   66.4360 C.3   125  ALA125      0.0334
     47  N         21.3030  -28.5000   68.4920 N.am  126  ALA126     -0.1977
     48  CA        22.6020  -29.1280   68.6690 C.3   126  ALA126      0.1597
     49  C         22.8630  -29.5570   70.1010 C.2   126  ALA126      0.2287
     50  O         23.9720  -29.9980   70.4080 O.2   126  ALA126     -0.2864
     51  CB        23.7160  -28.1850   68.2240 C.3   126  ALA126      0.0319
     52  N         23.0160  -27.5630   72.6480 N.3   128  GLY128     -0.1210
     53  CA        23.4190  -26.4450   73.4740 C.3   128  GLY128      0.1956
     54  C         22.2770  -26.0450   74.3860 C.2   128  GLY128      0.2612
     55  O         21.1190  -25.9990   73.9740 O.2   128  GLY128     -0.2717
     56  N         22.6080  -25.7470   75.6340 N.am  129  TRP129     -0.1962
     57  CA        21.6020  -25.4560   76.6390 C.3   129  TRP129      0.1771
     58  C         21.9100  -24.1280   77.3080 C.2   129  TRP129      0.2619
     59  O         23.0520  -23.6670   77.3330 O.2   129  TRP129     -0.2715
     60  CB        21.5150  -26.5660   77.6880 C.3   129  TRP129      0.0590
     61  CG        22.8230  -26.9400   78.2820 C.ar  129  TRP129      0.0006
     62  CD1       23.6790  -27.8890   77.8290 C.ar  129  TRP129      0.0946
     63  CD2       23.4340  -26.3660   79.4390 C.ar  129  TRP129      0.0152
     64  NE1       24.7850  -27.9530   78.6370 N.ar  129  TRP129     -0.2442
     65  CE2       24.6590  -27.0220   79.6310 C.ar  129  TRP129      0.0810
     66  CE3       23.0640  -25.3580   80.3290 C.ar  129  TRP129      0.0012
     67  CZ2       25.5180  -26.7040   80.6730 C.ar  129  TRP129      0.0191
     68  CZ3       23.9180  -25.0430   81.3620 C.ar  129  TRP129      0.0001
     69  CH2       25.1310  -25.7120   81.5260 C.ar  129  TRP129      0.0015
     70  N         20.8590  -23.5040   77.8320 N.am  130  ASN130     -0.1972
     71  CA        20.9790  -22.2610   78.5750 C.3   130  ASN130      0.1688
     72  C         20.0490  -22.3150   79.7720 C.2   130  ASN130      0.2292
     73  O         18.8670  -22.6350   79.6210 O.2   130  ASN130     -0.2864
     74  CB        20.6400  -21.0610   77.6860 C.3   130  ASN130      0.1181
     75  CG        20.8110  -19.7390   78.3970 C.2   130  ASN130      0.2629
     76  OD1       19.8610  -18.9710   78.5240 O.2   130  ASN130     -0.2716
     77  ND2       22.0230  -19.4650   78.8660 N.am  130  ASN130     -0.0877
@<TRIPOS>BOND
     1    12    11    2
     2    11    10    1
     3    13    10    1
     4    13    14    1
     5    10     9    1
     6    15    14    1
     7    15    16    1
     8     4     3    2
     9     3     2    1
    10     7     6    1
    11     6     8    1
    12     6     5    1
    13     2     5    1
    14     2     1    1
    15    46    43    1
    16    45    44    2
    17    43    44    1
    18    43    42    1
    19    44    47   am
    20    51    48    1
    21    47    48    1
    22    42    36   am
    23    48    49    1
    24    36    37    2
    25    36    35    1
    26    49    50    2
    27    38    39    1
    28    38    35    1
    29    39    40   ar
    30    39    41   ar
    31    35    34    1
    32    34    25   am
    33    26    25    2
    34    52    53    1
    35    25    24    1
    36    53    54    1
    37    55    54    2
    38    24    27    1
    39    24    23    1
    40    54    56   am
    41    27    28    1
    42    23    19   am
    43    56    57    1
    44    28    30   ar
    45    28    29   ar
    46    19    20    2
    47    19    18    1
    48    30    32   ar
    49    21    22    1
    50    21    18    1
    51    57    58    1
    52    57    60    1
    53    29    31   ar
    54    18    17    1
    55    58    59    2
    56    58    70   am
    57    32    33   ar
    58    74    75    1
    59    74    71    1
    60    60    61    1
    61    62    61   ar
    62    62    64   ar
    63    70    71    1
    64    31    33   ar
    65    61    63   ar
    66    75    76    2
    67    75    77   am
    68    71    72    1
    69    64    65   ar
    70    63    65   ar
    71    63    66   ar
    72    73    72    2
    73    65    67   ar
    74    66    68   ar
    75    67    69   ar
    76    68    69   ar
