@<TRIPOS>MOLECULE
tmp/5trrX01.pdb
 148 140 0 0 0
SMALL
GASTEIGER

@<TRIPOS>ATOM
      1  N          2.9320  -25.1050   68.2030 N.3     1  THR1       -0.1218
      2  CA         3.1670  -25.6040   69.5490 C.3     1  THR1        0.1862
      3  C          3.6660  -24.4530   70.4040 C.2     1  THR1        0.2287
      4  O          4.3910  -23.5960   69.9090 O.2     1  THR1       -0.2866
      5  CB         4.1950  -26.7370   69.5630 C.3     1  THR1        0.1770
      6  OG1        3.7400  -27.8030   68.7280 O.3     1  THR1       -0.2211
      7  CG2        4.3540  -27.2730   70.9600 C.3     1  THR1        0.0375
      8  N         -2.6040  -28.8420   70.7800 N.3    19  ARG19      -0.1231
      9  CA        -2.8660  -28.9790   69.3520 C.3    19  ARG19       0.1694
     10  C         -1.7830  -29.7670   68.6230 C.2    19  ARG19       0.2593
     11  O         -0.5930  -29.6150   68.9020 O.2    19  ARG19      -0.2718
     12  CB        -3.0120  -27.5950   68.7240 C.3    19  ARG19       0.0321
     13  CG        -2.9240  -27.5710   67.2230 C.3    19  ARG19       0.0489
     14  CD        -3.4600  -26.2700   66.7140 C.3    19  ARG19       0.2205
     15  NE        -4.8670  -26.1620   67.0580 N.pl3  19  ARG19      -0.0865
     16  CZ        -5.6120  -25.0980   66.8090 C.cat  19  ARG19       0.5346
     17  NH1       -5.0760  -24.0460   66.2140 N.pl3  19  ARG19       0.1354
     18  NH2       -6.8900  -25.0880   67.1530 N.pl3  19  ARG19       0.1354
     19  N         -2.2020  -30.6080   67.6800 N.am   20  SER20      -0.1938
     20  CA        -1.2940  -31.3120   66.7850 C.3    20  SER20       0.2055
     21  C         -1.7270  -31.0780   65.3490 C.2    20  SER20       0.2644
     22  O         -2.9010  -31.2610   65.0260 O.2    20  SER20      -0.2714
     23  CB        -1.2820  -32.8040   67.0750 C.3    20  SER20       0.2130
     24  OG        -0.7210  -33.5070   65.9850 O.3    20  SER20      -0.2179
     25  N         -0.7910  -30.6990   64.4830 N.am   21  THR21      -0.1936
     26  CA        -1.1220  -30.3950   63.1000 C.3    21  THR21       0.2028
     27  C         -0.2660  -31.2220   62.1560 C.2    21  THR21       0.2642
     28  O          0.8340  -31.6480   62.4980 O.2    21  THR21      -0.2714
     29  CB        -0.9270  -28.9090   62.7610 C.3    21  THR21       0.1808
     30  OG1        0.4420  -28.5540   62.9560 O.3    21  THR21      -0.2208
     31  CG2       -1.7880  -28.0310   63.6290 C.3    21  THR21       0.0379
     32  N         -0.7890  -31.4260   60.9480 N.am   22  GLN22      -0.1963
     33  CA        -0.0280  -31.9030   59.7940 C.3    22  GLN22       0.1733
     34  C         -0.1640  -30.8440   58.7110 C.2    22  GLN22       0.2616
     35  O         -1.1670  -30.7990   57.9960 O.2    22  GLN22      -0.2715
     36  CB        -0.5200  -33.2540   59.2960 C.3    22  GLN22       0.0408
     37  CG        -0.2410  -34.4100   60.2300 C.3    22  GLN22       0.0908
     38  CD        -0.6930  -35.7410   59.6580 C.2    22  GLN22       0.2608
     39  OE1       -0.2080  -36.1730   58.6100 O.2    22  GLN22      -0.2717
     40  NE2       -1.6200  -36.4010   60.3460 N.am   22  GLN22      -0.0878
     41  N          0.8350  -29.9890   58.5930 N.am   23  GLY23      -0.1955
     42  CA         0.7240  -28.8570   57.7090 C.3    23  GLY23       0.1869
     43  C         -0.2980  -27.8970   58.2620 C.2    23  GLY23       0.2309
     44  O         -0.1950  -27.4940   59.4220 O.2    23  GLY23      -0.2863
     45  N         -4.7180  -32.2940   63.2670 N.3    27  SER27      -0.1217
     46  CA        -4.7740  -33.7360   63.4590 C.3    27  SER27       0.1889
     47  C         -4.9310  -34.1430   64.9170 C.2    27  SER27       0.2288
     48  O         -5.0410  -35.3400   65.2000 O.2    27  SER27      -0.2866
     49  CB        -3.5220  -34.4090   62.8870 C.3    27  SER27       0.2089
     50  OG        -2.3440  -33.9680   63.5430 O.3    27  SER27      -0.2183
     51  N         -3.6790  -33.4220   72.6700 N.3    31  VAL31      -0.1231
     52  CA        -2.3710  -34.0330   72.8670 C.3    31  VAL31       0.1692
     53  C         -1.6940  -33.4280   74.0910 C.2    31  VAL31       0.2592
     54  O         -1.9880  -32.2980   74.5000 O.2    31  VAL31      -0.2718
     55  CB        -1.4950  -33.8780   71.6120 C.3    31  VAL31       0.0266
     56  CG1       -1.8690  -34.9200   70.5820 C.3    31  VAL31       0.0020
     57  CG2       -1.6160  -32.5120   71.0450 C.3    31  VAL31       0.0020
     58  N         -0.8000  -34.2020   74.7000 N.am   32  ARG32      -0.1966
     59  CA        -0.0730  -33.7940   75.8950 C.3    32  ARG32       0.1729
     60  C          1.3650  -33.5010   75.5010 C.2    32  ARG32       0.2616
     61  O          2.0530  -34.3780   74.9690 O.2    32  ARG32      -0.2715
     62  CB        -0.1100  -34.8830   76.9640 C.3    32  ARG32       0.0348
     63  CG        -0.1580  -34.3760   78.4000 C.3    32  ARG32       0.0492
     64  CD        -0.8120  -35.4020   79.3160 C.3    32  ARG32       0.2205
     65  NE        -2.1920  -35.6970   78.9310 N.pl3  32  ARG32      -0.0865
     66  CZ        -3.2640  -35.2230   79.5590 C.cat  32  ARG32       0.5346
     67  NH1       -3.1170  -34.4270   80.6100 N.pl3  32  ARG32       0.1354
     68  NH2       -4.4800  -35.5490   79.1390 N.pl3  32  ARG32       0.1354
     69  N          1.8230  -32.2800   75.7650 N.am   33  LYS33      -0.1977
     70  CA         3.1790  -31.9040   75.4140 C.3    33  LYS33       0.1596
     71  C          4.0780  -31.6440   76.6110 C.2    33  LYS33       0.2287
     72  O          5.2830  -31.4500   76.4220 O.2    33  LYS33      -0.2864
     73  CB         3.1650  -30.6670   74.5150 C.3    33  LYS33       0.0298
     74  CG         2.2110  -30.7870   73.3620 C.3    33  LYS33       0.0038
     75  CD         2.1880  -29.5180   72.5510 C.3    33  LYS33       0.0206
     76  CE         1.1650  -29.6020   71.4440 C.3    33  LYS33       0.1093
     77  NZ         1.2270  -28.4110   70.5620 N.3    33  LYS33      -0.1314
     78  N          5.3910  -33.2880   80.1740 N.3    35  TYR35      -0.1241
     79  CA         5.4640  -34.5620   80.8650 C.3    35  TYR35       0.1605
     80  C          6.2580  -34.4130   82.1510 C.2    35  TYR35       0.2264
     81  O          7.2780  -33.7190   82.1880 O.2    35  TYR35      -0.2867
     82  CB         6.1020  -35.6240   79.9820 C.3    35  TYR35       0.0534
     83  CG         5.2320  -36.0430   78.8290 C.ar   35  TYR35      -0.0201
     84  CD1        4.2090  -36.9630   79.0090 C.ar   35  TYR35      -0.0009
     85  CD2        5.4360  -35.5330   77.5600 C.ar   35  TYR35      -0.0009
     86  CE1        3.4040  -37.3570   77.9600 C.ar   35  TYR35       0.0417
     87  CE2        4.6410  -35.9230   76.4980 C.ar   35  TYR35       0.0417
     88  CZ         3.6250  -36.8370   76.7000 C.ar   35  TYR35       0.1957
     89  OH         2.8250  -37.2290   75.6420 O.3    35  TYR35      -0.2866
     90  N          7.8930  -30.4590   75.2550 N.3    45  ILE45      -0.1231
     91  CA         8.6330  -30.5960   74.0070 C.3    45  ILE45       0.1692
     92  C          7.8210  -30.0550   72.8370 C.2    45  ILE45       0.2592
     93  O          6.5980  -30.2180   72.7840 O.2    45  ILE45      -0.2718
     94  CB         9.0310  -32.0620   73.7630 C.3    45  ILE45       0.0266
     95  CG1        9.6940  -32.6230   75.0140 C.3    45  ILE45       0.0019
     96  CG2       10.0060  -32.1590   72.6160 C.3    45  ILE45       0.0020
     97  CD1        9.8800  -34.1060   74.9960 C.3    45  ILE45       0.0001
     98  N          8.5070  -29.4040   71.9020 N.am   46  ALA46      -0.1966
     99  CA         7.9080  -28.9370   70.6650 C.3    46  ALA46       0.1728
    100  C          8.6420  -29.5710   69.4910 C.2    46  ALA46       0.2617
    101  O          9.8450  -29.8140   69.5610 O.2    46  ALA46      -0.2715
    102  CB         7.9640  -27.4180   70.5660 C.3    46  ALA46       0.0334
    103  N          7.9170  -29.8550   68.4110 N.am   47  GLY47      -0.1940
    104  CA         8.5410  -30.4390   67.2450 C.3    47  GLY47       0.2014
    105  C          7.7860  -31.6620   66.7860 C.2    47  GLY47       0.2640
    106  O          6.6000  -31.8270   67.0810 O.2    47  GLY47      -0.2714
    107  N          8.4780  -32.5430   66.0670 N.am   48  THR48      -0.1936
    108  CA         7.8410  -33.7500   65.5550 C.3    48  THR48       0.2028
    109  C          7.3760  -34.6310   66.7060 C.2    48  THR48       0.2642
    110  O          8.1280  -34.8900   67.6480 O.2    48  THR48      -0.2714
    111  CB         8.8050  -34.5120   64.6540 C.3    48  THR48       0.1808
    112  OG1        9.3010  -33.6270   63.6490 O.3    48  THR48      -0.2208
    113  CG2        8.0930  -35.6430   63.9630 C.3    48  THR48       0.0379
    114  N          6.1230  -35.0840   66.6250 N.am   49  ALA49      -0.1963
    115  CA         5.4990  -35.7790   67.7460 C.3    49  ALA49       0.1728
    116  C          6.2620  -37.0400   68.1230 C.2    49  ALA49       0.2616
    117  O          6.5470  -37.2730   69.3020 O.2    49  ALA49      -0.2715
    118  CB         4.0500  -36.1180   67.4100 C.3    49  ALA49       0.0334
    119  N          6.5900  -37.8720   67.1360 N.am   50  ALA50      -0.1977
    120  CA         7.2770  -39.1230   67.4290 C.3    50  ALA50       0.1597
    121  C          8.5600  -38.8690   68.2000 C.2    50  ALA50       0.2287
    122  O          8.8190  -39.5020   69.2320 O.2    50  ALA50      -0.2864
    123  CB         7.5660  -39.8740   66.1360 C.3    50  ALA50       0.0319
    124  N          9.3470  -36.1410   69.8830 N.3    52  ALA52      -0.1231
    125  CA         9.0820  -35.5050   71.1680 C.3    52  ALA52       0.1694
    126  C          8.7390  -36.5450   72.2240 C.2    52  ALA52       0.2591
    127  O          9.3760  -36.6120   73.2850 O.2    52  ALA52      -0.2718
    128  CB         7.9530  -34.4880   71.0250 C.3    52  ALA52       0.0304
    129  N          7.7630  -37.4030   71.9260 N.am   53  VAL53      -0.1980
    130  CA         7.3470  -38.4180   72.8880 C.3    53  VAL53       0.1595
    131  C          8.5040  -39.3550   73.1950 C.2    53  VAL53       0.2287
    132  O          8.7170  -39.7380   74.3530 O.2    53  VAL53      -0.2864
    133  CB         6.1120  -39.1740   72.3650 C.3    53  VAL53       0.0276
    134  CG1        5.7730  -40.3370   73.2760 C.3    53  VAL53       0.0022
    135  CG2        4.9300  -38.2290   72.2450 C.3    53  VAL53       0.0022
    136  N         13.0550  -34.5370   61.2990 N.3    98  LEU98      -0.1245
    137  CA        12.5020  -35.0470   62.5510 C.3    98  LEU98       0.1561
    138  C         13.0520  -34.2730   63.7460 C.2    98  LEU98       0.2260
    139  O         13.7110  -34.8230   64.6250 O.2    98  LEU98      -0.2867
    140  CB        12.8040  -36.5290   62.6940 C.3    98  LEU98       0.0270
    141  CG        12.3480  -37.4620   61.5840 C.3    98  LEU98       0.0019
    142  CD1       12.6580  -38.9020   61.9780 C.3    98  LEU98       0.0001
    143  CD2       10.8720  -37.2740   61.2670 C.3    98  LEU98       0.0001
    144  N         -0.4910  -22.6060   64.7140 N.3   180  ALA180     -0.1245
    145  CA        -0.0350  -23.9270   65.1120 C.3   180  ALA180      0.1562
    146  C         -0.1680  -24.1770   66.6070 C.2   180  ALA180      0.2260
    147  O          0.1270  -25.2840   67.0570 O.2   180  ALA180     -0.2867
    148  CB         1.4150  -24.1260   64.6880 C.3   180  ALA180      0.0290
@<TRIPOS>BOND
     1    42    43    1
     2    42    41    1
     3    35    34    2
     4    43    44    2
     5    41    34   am
     6    39    38    2
     7    34    33    1
     8    36    33    1
     9    36    37    1
    10    38    37    1
    11    38    40   am
    12    33    32    1
    13    32    27   am
    14   143   141    1
    15   136   137    1
    16   141   142    1
    17   141   140    1
    18    27    28    2
    19    27    26    1
    20   137   140    1
    21   137   138    1
    22    29    30    1
    23    29    26    1
    24    29    31    1
    25    49    46    1
    26    49    50    1
    27    26    25    1
    28    45    46    1
    29    46    47    1
    30   112   111    1
    31   138   139    2
    32   113   111    1
    33    25    21   am
    34   111   108    1
    35   148   145    1
    36   144   145    1
    37    47    48    2
    38    22    21    2
    39   145   146    1
    40    21    20    1
    41   108   107    1
    42   108   109    1
    43    24    23    1
    44   107   105   am
    45   123   120    1
    46    17    16    1
    47   146   147    2
    48   114   109   am
    49   114   115    1
    50   109   110    2
    51    14    15    1
    52    14    13    1
    53    20    23    1
    54    20    19    1
    55   105   106    2
    56   105   104    1
    57    16    15    2
    58    16    18    1
    59   119   120    1
    60   119   116   am
    61    13    12    1
    62   104   103    1
    63   118   115    1
    64   120   121    1
    65    19    10   am
    66   115   116    1
    67   116   117    2
    68   121   122    2
    69     1     2    1
    70   103   100   am
    71    10    11    2
    72    10     9    1
    73    12     9    1
    74     6     5    1
    75     9     8    1
    76   100   101    2
    77   100    99    1
    78     2     5    1
    79     2     3    1
    80     5     7    1
    81   124   125    1
    82     4     3    2
    83    77    76    1
    84   102    99    1
    85    56    55    1
    86    99    98    1
    87   128   125    1
    88    57    55    1
    89   125   126    1
    90    76    75    1
    91    55    52    1
    92    98    92   am
    93   129   126   am
    94   129   130    1
    95   126   127    2
    96   135   133    1
    97   133   130    1
    98   133   134    1
    99    75    74    1
   100    96    94    1
   101    51    52    1
   102    93    92    2
   103    92    91    1
   104    52    53    1
   105   130   131    1
   106   131   132    2
   107    74    73    1
   108    94    91    1
   109    94    95    1
   110    91    90    1
   111    53    54    2
   112    53    58   am
   113    73    70    1
   114    58    59    1
   115    61    60    2
   116    97    95    1
   117    70    69    1
   118    70    71    1
   119    60    69   am
   120    60    59    1
   121    89    88    1
   122    59    62    1
   123    72    71    2
   124    87    88   ar
   125    87    85   ar
   126    88    86   ar
   127    62    63    1
   128    85    83   ar
   129    86    84   ar
   130    63    64    1
   131    83    84   ar
   132    83    82    1
   133    65    64    1
   134    65    66    2
   135    68    66    1
   136    66    67    1
   137    82    79    1
   138    78    79    1
   139    79    80    1
   140    80    81    2
