@<TRIPOS>MOLECULE
tmp/5trsN00.pdb
 95 92 0 0 0
SMALL
GASTEIGER

@<TRIPOS>ATOM
      1  N         16.7510  -26.2980   12.0390 N.3    91  LEU91      -0.1245
      2  CA        17.7240  -26.9320   12.9370 C.3    91  LEU91       0.1561
      3  C         17.4880  -26.5680   14.4010 C.2    91  LEU91       0.2260
      4  O         17.5640  -27.4350   15.2830 O.2    91  LEU91      -0.2867
      5  CB        19.1510  -26.5760   12.5300 C.3    91  LEU91       0.0270
      6  CG        20.2610  -27.0920   13.4540 C.3    91  LEU91       0.0019
      7  CD1       20.1570  -28.5730   13.6960 C.3    91  LEU91       0.0001
      8  CD2       21.6120  -26.7720   12.8680 C.3    91  LEU91       0.0001
      9  N         16.7510  -29.3570   17.4190 N.3    95  MET95      -0.1245
     10  CA        17.5300  -29.6600   18.6120 C.3    95  MET95       0.1570
     11  C         16.6770  -29.6840   19.8770 C.2    95  MET95       0.2261
     12  O         17.1250  -30.2140   20.8980 O.2    95  MET95      -0.2867
     13  CB        18.6830  -28.6670   18.7520 C.3    95  MET95       0.0387
     14  CG        19.6760  -28.7620   17.6070 C.3    95  MET95       0.0595
     15  SD        21.2550  -27.9550   17.9090 S.3    95  MET95      -0.1393
     16  CE        20.7650  -26.2370   18.0500 C.3    95  MET95       0.0692
     17  N         20.0430  -36.8730   -0.3820 N.3   122  SER122     -0.1202
     18  CA        19.8030  -37.0450    1.0440 C.3   122  SER122      0.2020
     19  C         20.2630  -35.8210    1.8240 C.2   122  SER122      0.2619
     20  O         21.1190  -35.0590    1.3780 O.2   122  SER122     -0.2717
     21  CB        20.5040  -38.3010    1.5670 C.3   122  SER122      0.2103
     22  OG        21.8540  -38.3360    1.1520 O.3   122  SER122     -0.2182
     23  N         19.6840  -35.6420    3.0090 N.am  123  PHE123     -0.1961
     24  CA        19.9040  -34.4370    3.7910 C.3   123  PHE123      0.1771
     25  C         20.1650  -34.7840    5.2470 C.2   123  PHE123      0.2620
     26  O         19.7090  -35.8150    5.7420 O.2   123  PHE123     -0.2715
     27  CB        18.6950  -33.5020    3.7160 C.3   123  PHE123      0.0574
     28  CG        18.3690  -33.0450    2.3290 C.ar  123  PHE123     -0.0200
     29  CD1       17.6130  -33.8320    1.4910 C.ar  123  PHE123     -0.0042
     30  CD2       18.8210  -31.8310    1.8620 C.ar  123  PHE123     -0.0042
     31  CE1       17.3170  -33.4150    0.2190 C.ar  123  PHE123     -0.0003
     32  CE2       18.5230  -31.4150    0.5910 C.ar  123  PHE123     -0.0003
     33  CZ        17.7720  -32.2050   -0.2290 C.ar  123  PHE123     -0.0000
     34  N         20.8820  -33.8980    5.9350 N.am  124  ASP124     -0.1957
     35  CA        21.0850  -34.0000    7.3720 C.3   124  ASP124      0.1840
     36  C         20.4710  -32.7930    8.0700 C.2   124  ASP124      0.2622
     37  O         20.0910  -31.8030    7.4450 O.2   124  ASP124     -0.2715
     38  CB        22.5740  -34.1630    7.7270 C.3   124  ASP124      0.1450
     39  CG        23.4200  -32.9550    7.3680 C.2   124  ASP124      0.3671
     40  OD1       22.9470  -31.8130    7.4610 O.co2 124  ASP124     -0.2456
     41  OD2       24.5920  -33.1540    6.9950 O.co2 124  ASP124     -0.2456
     42  N         20.4130  -32.8730    9.3960 N.am  125  ALA125     -0.1963
     43  CA        19.6510  -31.9020   10.1680 C.3   125  ALA125      0.1728
     44  C         20.1780  -30.4910   10.0170 C.2   125  ALA125      0.2616
     45  O         19.4540  -29.5410   10.3260 O.2   125  ALA125     -0.2715
     46  CB        19.6450  -32.2910   11.6400 C.3   125  ALA125      0.0334
     47  N         21.4130  -30.3310    9.5600 N.am  126  ALA126     -0.1977
     48  CA        22.0330  -29.0250    9.4200 C.3   126  ALA126      0.1597
     49  C         21.8850  -28.4530    8.0200 C.2   126  ALA126      0.2287
     50  O         22.4610  -27.4050    7.7280 O.2   126  ALA126     -0.2864
     51  CB        23.5150  -29.1040    9.7860 C.3   126  ALA126      0.0319
     52  N         22.8830  -29.9950    5.2330 N.3   128  GLY128     -0.1210
     53  CA        23.7510  -30.6640    4.2870 C.3   128  GLY128      0.1956
     54  C         22.9750  -31.6070    3.3900 C.2   128  GLY128      0.2612
     55  O         21.9240  -32.1250    3.7560 O.2   128  GLY128     -0.2717
     56  N         23.5090  -31.8280    2.1960 N.am  129  TRP129     -0.1962
     57  CA        22.8810  -32.7010    1.2240 C.3   129  TRP129      0.1771
     58  C         23.9690  -33.4570    0.4930 C.2   129  TRP129      0.2619
     59  O         25.1150  -33.0130    0.4130 O.2   129  TRP129     -0.2715
     60  CB        22.0170  -31.9340    0.2120 C.3   129  TRP129      0.0590
     61  CG        22.6900  -30.7460   -0.4210 C.ar  129  TRP129      0.0006
     62  CD1       22.6800  -29.4670    0.0380 C.ar  129  TRP129      0.0946
     63  CD2       23.4690  -30.7310   -1.6240 C.ar  129  TRP129      0.0152
     64  NE1       23.3990  -28.6550   -0.8010 N.ar  129  TRP129     -0.2442
     65  CE2       23.8970  -29.4080   -1.8270 C.ar  129  TRP129      0.0810
     66  CE3       23.8500  -31.7080   -2.5440 C.ar  129  TRP129      0.0012
     67  CZ2       24.6810  -29.0360   -2.9070 C.ar  129  TRP129      0.0191
     68  CZ3       24.6290  -31.3350   -3.6180 C.ar  129  TRP129      0.0001
     69  CH2       25.0370  -30.0120   -3.7900 C.ar  129  TRP129      0.0015
     70  N         23.5950  -34.6080   -0.0460 N.am  130  ASN130     -0.1972
     71  CA        24.4870  -35.3970   -0.8760 C.3   130  ASN130      0.1688
     72  C         23.6720  -35.9270   -2.0380 C.2   130  ASN130      0.2292
     73  O         22.5970  -36.4990   -1.8310 O.2   130  ASN130     -0.2864
     74  CB        25.1140  -36.5480   -0.0850 C.3   130  ASN130      0.1181
     75  CG        25.9820  -37.4360   -0.9390 C.2   130  ASN130      0.2629
     76  OD1       25.5350  -38.4650   -1.4420 O.2   130  ASN130     -0.2716
     77  ND2       27.2390  -37.0440   -1.1050 N.am  130  ASN130     -0.0877
     78  N         19.3490  -44.9840   -1.4670 N.3   137  GLN137     -0.1245
     79  CA        19.5080  -44.2530   -0.2190 C.3   137  GLN137      0.1566
     80  C         18.2470  -44.4420    0.6080 C.2   137  GLN137      0.2260
     81  O         17.1870  -44.7850    0.0840 O.2   137  GLN137     -0.2867
     82  CB        19.7750  -42.7710   -0.4810 C.3   137  GLN137      0.0367
     83  CG        20.0180  -41.9470    0.7490 C.3   137  GLN137      0.0905
     84  CD        21.3390  -42.2660    1.4080 C.2   137  GLN137      0.2608
     85  OE1       21.3850  -42.9590    2.4240 O.2   137  GLN137     -0.2717
     86  NE2       22.4250  -41.7470    0.8430 N.am  137  GLN137     -0.0878
     87  N         19.4320  -49.7290    3.7330 N.3   147  LYS147     -0.1245
     88  CA        20.6150  -49.5480    2.9030 C.3   147  LYS147      0.1561
     89  C         21.4150  -50.8320    2.8030 C.2   147  LYS147      0.2260
     90  O         21.8740  -51.1960    1.7170 O.2   147  LYS147     -0.2867
     91  CB        21.4950  -48.4160    3.4300 C.3   147  LYS147      0.0271
     92  CG        21.1200  -47.0470    2.8800 C.3   147  LYS147      0.0035
     93  CD        22.1620  -45.9850    3.2110 C.3   147  LYS147      0.0206
     94  CE        22.0390  -45.4900    4.6370 C.3   147  LYS147      0.1093
     95  NZ        22.6900  -44.1650    4.8000 N.3   147  LYS147     -0.1314
@<TRIPOS>BOND
     1    69    68   ar
     2    69    67   ar
     3    68    66   ar
     4    67    65   ar
     5    66    63   ar
     6    72    73    2
     7    72    71    1
     8    65    63   ar
     9    65    64   ar
    10    63    61   ar
    11    78    79    1
    12    76    75    2
    13    77    75   am
    14    75    74    1
    15    71    74    1
    16    71    70    1
    17    64    62   ar
    18    82    79    1
    19    82    83    1
    20    61    62   ar
    21    61    60    1
    22    17    18    1
    23    33    31   ar
    24    33    32   ar
    25    79    80    1
    26    70    58   am
    27    81    80    2
    28    60    57    1
    29    31    29   ar
    30    59    58    2
    31    58    57    1
    32    32    30   ar
    33    83    84    1
    34    86    84   am
    35    18    21    1
    36    18    19    1
    37    22    21    1
    38    57    56    1
    39    20    19    2
    40    84    85    2
    41    29    28   ar
    42    90    89    2
    43    19    23   am
    44    30    28   ar
    45    56    54   am
    46    28    27    1
    47    89    88    1
    48    92    93    1
    49    92    91    1
    50    88    91    1
    51    88    87    1
    52    23    24    1
    53    93    94    1
    54    54    55    2
    55    54    53    1
    56    27    24    1
    57    24    25    1
    58    53    52    1
    59    94    95    1
    60    25    26    2
    61    25    34   am
    62    34    35    1
    63    41    39   ar
    64    39    40   ar
    65    39    38    1
    66    35    38    1
    67    35    36    1
    68    37    36    2
    69    50    49    2
    70    49    48    1
    71    36    42   am
    72    42    43    1
    73    48    47    1
    74    48    51    1
    75    47    44   am
    76    44    43    1
    77    44    45    2
    78    43    46    1
    79     1     2    1
    80     5     2    1
    81     5     6    1
    82     8     6    1
    83     2     3    1
    84     6     7    1
    85     3     4    2
    86     9    10    1
    87    14    15    1
    88    14    13    1
    89    15    16    1
    90    10    13    1
    91    10    11    1
    92    11    12    2
