@<TRIPOS>MOLECULE
tmp/5trsN01.pdb
 146 138 0 0 0
SMALL
GASTEIGER

@<TRIPOS>ATOM
      1  N         10.3500  -45.4070   11.3050 N.3     1  THR1       -0.1218
      2  CA        10.1600  -44.8620    9.9690 C.3     1  THR1        0.1862
      3  C         11.2880  -45.3180    9.0860 C.2     1  THR1        0.2287
      4  O         12.4150  -45.4100    9.5350 O.2     1  THR1       -0.2866
      5  CB        10.1180  -43.3190    9.9660 C.3     1  THR1        0.1770
      6  OG1        9.0770  -42.8570   10.8280 O.3     1  THR1       -0.2211
      7  CG2        9.8580  -42.7980    8.5840 C.3     1  THR1        0.0375
      8  N          3.6980  -46.5910    9.4190 N.3    19  ARG19      -0.1231
      9  CA         3.5050  -46.6650   10.8580 C.3    19  ARG19       0.1694
     10  C          3.7900  -45.3210   11.5100 C.2    19  ARG19       0.2593
     11  O          4.6770  -44.5870   11.0740 O.2    19  ARG19      -0.2718
     12  CB         4.4040  -47.7410   11.4690 C.3    19  ARG19       0.0321
     13  CG         4.4020  -47.7490   12.9910 C.3    19  ARG19       0.0489
     14  CD         4.9400  -49.0370   13.5520 C.3    19  ARG19       0.2205
     15  NE         4.0980  -50.1670   13.1910 N.pl3  19  ARG19      -0.0865
     16  CZ         4.3700  -51.4230   13.5130 C.cat  19  ARG19       0.5346
     17  NH1        5.4590  -51.7030   14.2060 N.pl3  19  ARG19       0.1354
     18  NH2        3.5560  -52.4000   13.1430 N.pl3  19  ARG19       0.1354
     19  N          2.9950  -44.9820   12.5240 N.am   20  SER20      -0.1938
     20  CA         3.2340  -43.8120   13.3600 C.3    20  SER20       0.2055
     21  C          3.2290  -44.2290   14.8200 C.2    20  SER20       0.2644
     22  O          2.3060  -44.9200   15.2610 O.2    20  SER20      -0.2714
     23  CB         2.1830  -42.7360   13.1300 C.3    20  SER20       0.2130
     24  OG         2.1410  -41.8550   14.2340 O.3    20  SER20      -0.2179
     25  N          4.2390  -43.7980   15.5730 N.am   21  THR21      -0.1936
     26  CA         4.4070  -44.2320   16.9510 C.3    21  THR21       0.2028
     27  C          4.5630  -43.0500   17.8910 C.2    21  THR21       0.2642
     28  O          5.0540  -41.9890   17.5110 O.2    21  THR21      -0.2714
     29  CB         5.6310  -45.1620   17.1290 C.3    21  THR21       0.1808
     30  OG1        6.8190  -44.5010   16.6860 O.3    21  THR21      -0.2208
     31  CG2        5.4590  -46.4510   16.3630 C.3    21  THR21       0.0379
     32  N          4.1300  -43.2550   19.1320 N.am   22  GLN22      -0.1963
     33  CA         4.4320  -42.3770   20.2630 C.3    22  GLN22       0.1733
     34  C          5.1900  -43.2260   21.2720 C.2    22  GLN22       0.2616
     35  O          4.5760  -43.9380   22.0680 O.2    22  GLN22      -0.2715
     36  CB         3.1690  -41.8000   20.8810 C.3    22  GLN22       0.0408
     37  CG         2.4480  -40.8300   19.9940 C.3    22  GLN22       0.0908
     38  CD         1.0980  -40.4330   20.5510 C.2    22  GLN22       0.2608
     39  OE1        0.0790  -40.5350   19.8710 O.2    22  GLN22      -0.2717
     40  NE2        1.0840  -39.9780   21.7990 N.am   22  GLN22      -0.0878
     41  N          6.5130  -43.1650   21.2350 N.am   23  GLY23      -0.1955
     42  CA         7.2930  -44.0600   22.0510 C.3    23  GLY23       0.1869
     43  C          7.1330  -45.4950   21.5950 C.2    23  GLY23       0.2309
     44  O          7.4610  -45.8310   20.4530 O.2    23  GLY23      -0.2863
     45  N          0.5090  -45.4500   17.0820 N.3    27  SER27      -0.1202
     46  CA        -0.5730  -44.4810   16.9770 C.3    27  SER27       0.2020
     47  C         -1.1140  -44.3500   15.5650 C.2    27  SER27       0.2619
     48  O         -2.0830  -43.6180   15.3570 O.2    27  SER27      -0.2717
     49  CB        -0.1220  -43.1060   17.4720 C.3    27  SER27       0.2103
     50  OG         0.9600  -42.6170   16.7070 O.3    27  SER27      -0.2182
     51  N         -0.5270  -45.0390   14.5960 N.am   28  GLY28      -0.1956
     52  CA        -1.0470  -44.9810   13.2490 C.3    28  GLY28       0.1869
     53  C         -0.6110  -46.1360   12.3740 C.2    28  GLY28       0.2309
     54  O          0.5370  -46.5830   12.4500 O.2    28  GLY28      -0.2863
     55  N         -0.6490  -44.0960    7.8490 N.3    31  VAL31      -0.1231
     56  CA        -0.0210  -42.8000    7.6370 C.3    31  VAL31       0.1692
     57  C          0.7830  -42.7880    6.3470 C.2    31  VAL31       0.2592
     58  O          1.4820  -43.7520    6.0170 O.2    31  VAL31      -0.2718
     59  CB         0.8580  -42.4790    8.8540 C.3    31  VAL31       0.0266
     60  CG1        1.9850  -41.5820    8.4700 C.3    31  VAL31       0.0020
     61  CG2        0.0300  -41.8490    9.9410 C.3    31  VAL31       0.0020
     62  N          0.6820  -41.6870    5.6060 N.am   32  ARG32      -0.1966
     63  CA         1.3890  -41.5140    4.3440 C.3    32  ARG32       0.1729
     64  C          2.5740  -40.5830    4.5550 C.2    32  ARG32       0.2616
     65  O          2.4190  -39.4910    5.1090 O.2    32  ARG32      -0.2715
     66  CB         0.4490  -40.9570    3.2730 C.3    32  ARG32       0.0348
     67  CG         0.9030  -41.2080    1.8440 C.3    32  ARG32       0.0492
     68  CD         0.1670  -40.3110    0.8460 C.3    32  ARG32       0.2205
     69  NE         0.6970  -40.4550   -0.5090 N.pl3  32  ARG32      -0.0865
     70  CZ         0.5690  -39.5440   -1.4710 C.cat  32  ARG32       0.5346
     71  NH1       -0.0720  -38.4070   -1.2350 N.pl3  32  ARG32       0.1354
     72  NH2        1.0890  -39.7680   -2.6710 N.pl3  32  ARG32       0.1354
     73  N          3.7560  -41.0200    4.1240 N.am   33  LYS33      -0.1977
     74  CA         4.9800  -40.2630    4.3380 C.3    33  LYS33       0.1596
     75  C          5.7100  -39.8880    3.0610 C.2    33  LYS33       0.2287
     76  O          6.6950  -39.1530    3.1360 O.2    33  LYS33      -0.2864
     77  CB         5.9650  -41.0480    5.2190 C.3    33  LYS33       0.0298
     78  CG         5.3920  -41.6220    6.4940 C.3    33  LYS33       0.0038
     79  CD         6.4200  -42.5020    7.1900 C.3    33  LYS33       0.0206
     80  CE         5.8450  -43.1360    8.4410 C.3    33  LYS33       0.1093
     81  NZ         6.8830  -43.8350    9.2300 N.3    33  LYS33      -0.1314
     82  N          5.3960  -38.0560   -0.6200 N.3    35  TYR35      -0.1241
     83  CA         4.5670  -37.1110   -1.3520 C.3    35  TYR35       0.1605
     84  C          5.2120  -36.7210   -2.6740 C.2    35  TYR35       0.2264
     85  O          6.4300  -36.5480   -2.7550 O.2    35  TYR35      -0.2867
     86  CB         4.3290  -35.8470   -0.5380 C.3    35  TYR35       0.0534
     87  CG         3.6450  -36.0730    0.7800 C.ar   35  TYR35      -0.0201
     88  CD1        2.2860  -36.3340    0.8400 C.ar   35  TYR35      -0.0009
     89  CD2        4.3510  -35.9950    1.9660 C.ar   35  TYR35      -0.0009
     90  CE1        1.6520  -36.5290    2.0470 C.ar   35  TYR35       0.0417
     91  CE2        3.7290  -36.1850    3.1770 C.ar   35  TYR35       0.0417
     92  CZ         2.3780  -36.4530    3.2140 C.ar   35  TYR35       0.1957
     93  OH         1.7480  -36.6480    4.4210 O.3    35  TYR35      -0.2866
     94  N          9.7050  -37.9940    4.0360 N.3    45  ILE45      -0.1245
     95  CA        10.2830  -37.3710    5.2200 C.3    45  ILE45       0.1561
     96  C         10.1090  -38.2690    6.4360 C.2    45  ILE45       0.2260
     97  O          9.1090  -38.9780    6.5710 O.2    45  ILE45      -0.2867
     98  CB         9.6880  -35.9730    5.4740 C.3    45  ILE45       0.0252
     99  CG1        9.7930  -35.1340    4.2080 C.3    45  ILE45       0.0019
    100  CG2       10.4210  -35.2790    6.5850 C.3    45  ILE45       0.0019
    101  CD1        9.0130  -33.8630    4.2480 C.3    45  ILE45       0.0001
    102  N         10.6040  -38.4320   10.8650 N.3    47  GLY47      -0.1210
    103  CA        10.7230  -37.6280   12.0620 C.3    47  GLY47       0.1956
    104  C          9.4030  -37.2160   12.6690 C.2    47  GLY47       0.2613
    105  O          8.4080  -37.9260   12.5280 O.2    47  GLY47      -0.2717
    106  N          9.3870  -36.0750   13.3560 N.am   48  THR48      -0.1938
    107  CA         8.1600  -35.5790   13.9590 C.3    48  THR48       0.2028
    108  C          7.1220  -35.3290   12.8830 C.2    48  THR48       0.2642
    109  O          7.3850  -34.6300   11.9040 O.2    48  THR48      -0.2714
    110  CB         8.4340  -34.2960   14.7390 C.3    48  THR48       0.1808
    111  OG1        9.6640  -34.4280   15.4470 O.3    48  THR48      -0.2208
    112  CG2        7.3420  -34.0200   15.7200 C.3    48  THR48       0.0379
    113  N          5.9370  -35.9060   13.0740 N.am   49  ALA49      -0.1963
    114  CA         4.9190  -35.8900   12.0310 C.3    49  ALA49       0.1728
    115  C          4.5600  -34.4700   11.6220 C.2    49  ALA49       0.2616
    116  O          4.5460  -34.1400   10.4310 O.2    49  ALA49      -0.2715
    117  CB         3.6810  -36.6340   12.5120 C.3    49  ALA49       0.0334
    118  N          4.2690  -33.6150   12.5990 N.am   50  ALA50      -0.1977
    119  CA         3.8760  -32.2480   12.2940 C.3    50  ALA50       0.1597
    120  C          4.8900  -31.5750   11.3810 C.2    50  ALA50       0.2287
    121  O          4.5400  -31.0330   10.3220 O.2    50  ALA50      -0.2864
    122  CB         3.7170  -31.4680   13.5950 C.3    50  ALA50       0.0319
    123  N          7.1910  -32.9400    9.5220 N.3    52  ALA52      -0.1231
    124  CA         7.3530  -33.6060    8.2360 C.3    52  ALA52       0.1694
    125  C          6.2720  -33.1700    7.2570 C.2    52  ALA52       0.2591
    126  O          6.5620  -32.8160    6.1050 O.2    52  ALA52      -0.2718
    127  CB         7.3360  -35.1180    8.4240 C.3    52  ALA52       0.0304
    128  N          5.0140  -33.1870    7.6940 N.am   53  VAL53      -0.1980
    129  CA         3.9480  -32.7730    6.7950 C.3    53  VAL53       0.1595
    130  C          4.0940  -31.3010    6.4310 C.2    53  VAL53       0.2287
    131  O          3.9720  -30.9270    5.2560 O.2    53  VAL53      -0.2864
    132  CB         2.5720  -33.0680    7.4110 C.3    53  VAL53       0.0276
    133  CG1        1.5000  -33.0080    6.3420 C.3    53  VAL53       0.0022
    134  CG2        2.5680  -34.4320    8.0510 C.3    53  VAL53       0.0022
    135  N         13.7880  -31.3130   19.8200 N.3    97  GLY97      -0.1210
    136  CA        12.9820  -32.5070   19.6830 C.3    97  GLY97       0.1956
    137  C         12.0990  -32.5580   18.4560 C.2    97  GLY97       0.2611
    138  O         11.5230  -33.6170   18.1840 O.2    97  GLY97      -0.2717
    139  N         11.9450  -31.4580   17.7240 N.am   98  LEU98      -0.1979
    140  CA        11.0920  -31.4190   16.5320 C.3    98  LEU98       0.1596
    141  C         11.9110  -31.6690   15.2650 C.2    98  LEU98       0.2287
    142  O         11.9910  -30.8310   14.3730 O.2    98  LEU98      -0.2864
    143  CB        10.3700  -30.0790   16.4500 C.3    98  LEU98       0.0297
    144  CG         9.5650  -29.6210   17.6610 C.3    98  LEU98       0.0022
    145  CD1        8.8470  -28.3280   17.3290 C.3    98  LEU98       0.0001
    146  CD2        8.5960  -30.6930   18.1060 C.3    98  LEU98       0.0001
@<TRIPOS>BOND
     1    85    84    2
     2    84    83    1
     3    72    70    1
     4    70    71    1
     5    70    69    2
     6    83    82    1
     7    83    86    1
     8    86    87    1
     9    69    68    1
    10    87    88   ar
    11    87    89   ar
    12    88    90   ar
    13    68    67    1
    14    67    66    1
    15    89    91   ar
    16    90    92   ar
    17    75    76    2
    18    75    74    1
    19    91    92   ar
    20    92    93    1
    21    66    63    1
    22    94    95    1
    23    73    74    1
    24    73    64   am
    25    99   101    1
    26    99    98    1
    27    74    77    1
    28    63    64    1
    29    63    62    1
    30    64    65    2
    31    77    78    1
    32    95    98    1
    33    95    96    1
    34   131   130    2
    35    98   100    1
    36    62    57   am
    37    58    57    2
    38   126   125    2
    39   133   132    1
    40    57    56    1
    41   130   129    1
    42    96    97    2
    43    78    79    1
    44   129   132    1
    45   129   128    1
    46    79    80    1
    47   125   128   am
    48   125   124    1
    49   132   134    1
    50    56    55    1
    51    56    59    1
    52   124   127    1
    53   124   123    1
    54    80    81    1
    55    60    59    1
    56     7     5    1
    57    59    61    1
    58     3     4    2
    59     3     2    1
    60     8     9    1
    61     5     2    1
    62     5     6    1
    63     2     1    1
    64   121   120    2
    65   116   115    2
    66     9    12    1
    67     9    10    1
    68   102   103    1
    69    11    10    2
    70   120   119    1
    71    12    13    1
    72    10    19   am
    73   115   114    1
    74   115   118   am
    75   109   108    2
    76   114   117    1
    77   114   113    1
    78   103   104    1
    79   119   118    1
    80   119   122    1
    81    53    54    2
    82    53    52    1
    83    19    20    1
    84   105   104    2
    85   104   106   am
    86   108   113   am
    87   108   107    1
    88    13    14    1
    89    23    20    1
    90    23    24    1
    91    18    16    1
    92    15    16    2
    93    15    14    1
    94    52    51    1
    95   106   107    1
    96    20    21    1
    97    16    17    1
    98   107   110    1
    99   142   141    2
   100    51    47   am
   101   110   111    1
   102   110   112    1
   103    21    22    2
   104    21    25   am
   105   141   140    1
   106    48    47    2
   107    47    46    1
   108    25    26    1
   109    31    29    1
   110   143   140    1
   111   143   144    1
   112   140   139    1
   113    30    29    1
   114    50    49    1
   115    26    29    1
   116    26    27    1
   117    46    45    1
   118    46    49    1
   119   145   144    1
   120    28    27    2
   121   144   146    1
   122   139   137   am
   123    27    32   am
   124   138   137    2
   125   137   136    1
   126    32    33    1
   127   136   135    1
   128    39    38    2
   129    37    38    1
   130    37    36    1
   131    33    36    1
   132    33    34    1
   133    44    43    2
   134    38    40   am
   135    41    34   am
   136    41    42    1
   137    34    35    2
   138    43    42    1
