@<TRIPOS>MOLECULE
tmp/5trwA00.pdb
 113 107 0 0 0
SMALL
GASTEIGER

@<TRIPOS>ATOM
      1  N         10.5670  -33.2300  -10.0450 N.3     3  LYS3       -0.1245
      2  CA        10.7000  -31.8300   -9.6690 C.3     3  LYS3        0.1561
      3  C         12.0860  -31.5790   -9.0850 C.2     3  LYS3        0.2260
      4  O         12.7460  -32.5040   -8.6220 O.2     3  LYS3       -0.2867
      5  CB         9.6260  -31.4480   -8.6410 C.3     3  LYS3        0.0271
      6  CG         8.2070  -31.6140   -9.1550 C.3     3  LYS3        0.0035
      7  CD         7.8090  -30.4480  -10.0340 C.3     3  LYS3        0.0206
      8  CE         6.3450  -30.5460  -10.4710 C.3     3  LYS3        0.1093
      9  NZ         5.9080  -29.2650  -11.0980 N.3     3  LYS3       -0.1314
     10  N          7.2900  -19.7780  -12.8820 N.3   106  ARG106     -0.1245
     11  CA         6.4750  -20.5810  -11.9720 C.3   106  ARG106      0.1563
     12  C          7.2140  -20.9810  -10.7040 C.2   106  ARG106      0.2260
     13  O          6.5800  -21.4920   -9.7670 O.2   106  ARG106     -0.2867
     14  CB         5.9800  -21.8470  -12.6810 C.3   106  ARG106      0.0307
     15  CG         5.0900  -22.7450  -11.8280 C.3   106  ARG106      0.0489
     16  CD         4.5920  -24.0070  -12.5230 C.3   106  ARG106      0.2205
     17  NE         5.6070  -24.6100  -13.3950 N.pl3 106  ARG106     -0.0865
     18  CZ         6.3450  -25.6270  -13.0030 C.cat 106  ARG106      0.5346
     19  NH1        6.1970  -26.1420  -11.8030 N.pl3 106  ARG106      0.1354
     20  NH2        7.2600  -26.1480  -13.8000 N.pl3 106  ARG106      0.1354
     21  N          8.9530  -21.0050   -7.0640 N.3   108  TRP108     -0.1241
     22  CA         8.6350  -20.3030   -5.8310 C.3   108  TRP108      0.1605
     23  C          9.7520  -20.4600   -4.8090 C.2   108  TRP108      0.2264
     24  O         10.5330  -21.4210   -4.8400 O.2   108  TRP108     -0.2867
     25  CB         7.2840  -20.7520   -5.2400 C.3   108  TRP108      0.0550
     26  CG         6.9850  -22.2280   -5.2930 C.ar  108  TRP108      0.0003
     27  CD1        6.3430  -22.8930   -6.2960 C.ar  108  TRP108      0.0946
     28  CD2        7.2380  -23.1940   -4.2680 C.ar  108  TRP108      0.0152
     29  NE1        6.2150  -24.2330   -5.9770 N.ar  108  TRP108     -0.2442
     30  CE2        6.7520  -24.4410   -4.7350 C.ar  108  TRP108      0.0810
     31  CE3        7.8430  -23.1420   -3.0130 C.ar  108  TRP108      0.0012
     32  CZ2        6.8530  -25.6100   -3.9860 C.ar  108  TRP108      0.0191
     33  CZ3        7.9500  -24.3190   -2.2730 C.ar  108  TRP108      0.0001
     34  CH2        7.4490  -25.5270   -2.7570 C.ar  108  TRP108      0.0015
     35  N         10.7560  -20.6860   -0.8500 N.3   110  PHE110     -0.1241
     36  CA        10.3410  -21.0790    0.4970 C.3   110  PHE110      0.1605
     37  C         11.4690  -20.6760    1.4390 C.2   110  PHE110      0.2264
     38  O         12.5680  -21.2510    1.3900 O.2   110  PHE110     -0.2867
     39  CB        10.0740  -22.5870    0.5210 C.3   110  PHE110      0.0534
     40  CG         9.4330  -23.0920    1.7820 C.ar  110  PHE110     -0.0203
     41  CD1        8.0940  -23.4120    1.7910 C.ar  110  PHE110     -0.0042
     42  CD2       10.1780  -23.2730    2.9410 C.ar  110  PHE110     -0.0042
     43  CE1        7.4780  -23.9020    2.9290 C.ar  110  PHE110     -0.0003
     44  CE2        9.5760  -23.7610    4.0820 C.ar  110  PHE110     -0.0003
     45  CZ         8.2100  -24.0740    4.0750 C.ar  110  PHE110     -0.0000
     46  N          7.6830  -16.5960   -1.3030 N.3   132  ASP132     -0.1225
     47  CA         6.3330  -17.0720   -1.5460 C.3   132  ASP132      0.1805
     48  C          5.7830  -17.8290   -0.3520 C.2   132  ASP132      0.2597
     49  O          4.5600  -17.8850   -0.1730 O.2   132  ASP132     -0.2718
     50  CB         6.3310  -17.9480   -2.7920 C.3   132  ASP132      0.1424
     51  CG         6.8000  -17.1910   -3.9900 C.2   132  ASP132      0.3668
     52  OD1        6.0370  -16.3250   -4.4730 O.co2 132  ASP132     -0.2456
     53  OD2        7.9480  -17.4110   -4.4180 O.co2 132  ASP132     -0.2456
     54  N          6.6630  -18.3750    0.4790 N.am  133  ALA133     -0.1979
     55  CA         6.2520  -19.0620    1.6930 C.3   133  ALA133      0.1597
     56  C          7.3300  -18.8090    2.7270 C.2   133  ALA133      0.2287
     57  O          8.5080  -18.6860    2.3730 O.2   133  ALA133     -0.2864
     58  CB         6.0910  -20.5730    1.4730 C.3   133  ALA133      0.0319
     59  N          2.4820  -16.1530    0.4420 N.3   168  LYS168     -0.1231
     60  CA         1.1520  -16.7310    0.2940 C.3   168  LYS168      0.1693
     61  C          0.8620  -17.7950    1.3400 C.2   168  LYS168      0.2591
     62  O         -0.2950  -18.2090    1.4850 O.2   168  LYS168     -0.2718
     63  CB         1.0060  -17.3370   -1.1040 C.3   168  LYS168      0.0285
     64  CG         1.1470  -16.3130   -2.2460 C.3   168  LYS168      0.0035
     65  CD         1.0890  -16.9860   -3.6040 C.3   168  LYS168      0.0206
     66  CE         1.6150  -16.0610   -4.6990 C.3   168  LYS168      0.1093
     67  NZ         3.0820  -15.8200   -4.5470 N.3   168  LYS168     -0.1314
     68  N          1.8810  -18.2480    2.0550 N.am  169  LEU169     -0.1980
     69  CA         1.7510  -19.3560    2.9920 C.3   169  LEU169      0.1596
     70  C          2.7170  -19.1520    4.1470 C.2   169  LEU169      0.2287
     71  O          3.8730  -18.7970    3.9320 O.2   169  LEU169     -0.2864
     72  CB         2.0330  -20.6950    2.2860 C.3   169  LEU169      0.0297
     73  CG         1.8690  -21.9390    3.1530 C.3   169  LEU169      0.0022
     74  CD1        1.3040  -23.0830    2.3310 C.3   169  LEU169      0.0001
     75  CD2        3.1950  -22.3630    3.7860 C.3   169  LEU169      0.0001
     76  N          7.8800  -30.4240    3.9150 N.3   220  PHE220     -0.1241
     77  CA         6.7500  -29.6400    3.4250 C.3   220  PHE220      0.1605
     78  C          6.9730  -29.1920    1.9880 C.2   220  PHE220      0.2264
     79  O          6.0530  -29.2590    1.1620 O.2   220  PHE220     -0.2867
     80  CB         6.4770  -28.4310    4.3380 C.3   220  PHE220      0.0534
     81  CG         5.1610  -27.7640    4.0450 C.ar  220  PHE220     -0.0203
     82  CD1        5.0680  -26.8090    3.0390 C.ar  220  PHE220     -0.0042
     83  CD2        4.0000  -28.1310    4.7400 C.ar  220  PHE220     -0.0042
     84  CE1        3.8490  -26.2190    2.7410 C.ar  220  PHE220     -0.0003
     85  CE2        2.7780  -27.5300    4.4390 C.ar  220  PHE220     -0.0003
     86  CZ         2.7150  -26.5720    3.4260 C.ar  220  PHE220     -0.0000
     87  N          4.6840  -30.5300   -1.1540 N.3   224  THR224     -0.1203
     88  CA         4.0220  -29.5200   -1.9750 C.3   224  THR224      0.1994
     89  C          4.3830  -29.6900   -3.4510 C.2   224  THR224      0.2617
     90  O          3.5130  -29.6340   -4.3370 O.2   224  THR224     -0.2717
     91  CB         4.3990  -28.1290   -1.4570 C.3   224  THR224      0.1784
     92  OG1        3.8710  -27.9790   -0.1270 O.3   224  THR224     -0.2211
     93  CG2        3.7740  -27.0620   -2.3140 C.3   224  THR224      0.0376
     94  N          5.6700  -29.8970   -3.7450 N.am  225  LEU225     -0.1979
     95  CA         6.0650  -30.0880   -5.1430 C.3   225  LEU225      0.1596
     96  C          5.4600  -31.3580   -5.7310 C.2   225  LEU225      0.2287
     97  O          5.1830  -31.4160   -6.9350 O.2   225  LEU225     -0.2864
     98  CB         7.5860  -30.1420   -5.2540 C.3   225  LEU225      0.0297
     99  CG         8.2380  -28.7800   -5.0670 C.3   225  LEU225      0.0022
    100  CD1        9.6950  -29.0130   -4.9180 C.3   225  LEU225      0.0001
    101  CD2        7.9660  -27.8950   -6.2630 C.3   225  LEU225      0.0001
    102  N          2.5420  -32.3050   -5.2330 N.3   227  GLY227     -0.1225
    103  CA         1.1590  -32.0040   -5.5280 C.3   227  GLY227      0.1811
    104  C          0.1980  -32.0670   -4.3630 C.2   227  GLY227      0.2280
    105  O         -1.0160  -31.9790   -4.5880 O.2   227  GLY227     -0.2866
    106  N         -2.5640  -28.1750    0.8550 N.3   230  ILE230     -0.1245
    107  CA        -1.9850  -27.5720    2.0570 C.3   230  ILE230      0.1561
    108  C         -2.1070  -28.5250    3.2330 C.2   230  ILE230      0.2260
    109  O         -1.1280  -28.8110    3.9340 O.2   230  ILE230     -0.2867
    110  CB        -2.6760  -26.2380    2.3750 C.3   230  ILE230      0.0252
    111  CG1       -2.4500  -25.2340    1.2490 C.3   230  ILE230      0.0019
    112  CG2       -2.1860  -25.6950    3.7150 C.3   230  ILE230      0.0019
    113  CD1       -1.0270  -25.1060    0.8550 C.3   230  ILE230      0.0001
@<TRIPOS>BOND
     1    20    18    1
     2    17    18    2
     3    17    16    1
     4    18    19    1
     5    10    11    1
     6    14    11    1
     7    14    15    1
     8    16    15    1
     9    11    12    1
    10     9     8    1
    11    12    13    2
    12     8     7    1
    13     1     2    1
    14     7     6    1
    15     2     3    1
    16     2     5    1
    17     6     5    1
    18     3     4    2
    19    21    22    1
    20    97    96    2
    21    27    29   ar
    22    27    26   ar
    23   101    99    1
    24    29    30   ar
    25    22    25    1
    26    22    23    1
    27    96    95    1
    28   103   102    1
    29   103   104    1
    30    26    25    1
    31    26    28   ar
    32    98    95    1
    33    98    99    1
    34    95    94    1
    35    99   100    1
    36    24    23    2
    37    30    28   ar
    38    30    32   ar
    39    66    67    1
    40    66    65    1
    41   105   104    2
    42    52    51   ar
    43    53    51   ar
    44    90    89    2
    45    28    31   ar
    46    51    50    1
    47    32    34   ar
    48    94    89   am
    49    65    64    1
    50    89    88    1
    51    31    33   ar
    52    50    47    1
    53    34    33   ar
    54    93    91    1
    55    64    63    1
    56    88    91    1
    57    88    87    1
    58    47    46    1
    59    47    48    1
    60    91    92    1
    61    63    60    1
    62    35    36    1
    63    48    49    2
    64    48    54   am
    65    60    59    1
    66    60    61    1
    67    54    55    1
    68    36    39    1
    69    36    37    1
    70    39    40    1
    71   106   107    1
    72   113   111    1
    73    79    78    2
    74   111   110    1
    75    61    62    2
    76    61    68   am
    77    38    37    2
    78    58    55    1
    79    55    56    1
    80    40    41   ar
    81    40    42   ar
    82    41    43   ar
    83    78    77    1
    84    68    69    1
    85   107   110    1
    86   107   108    1
    87    72    69    1
    88    72    73    1
    89    74    73    1
    90    57    56    2
    91   110   112    1
    92    84    82   ar
    93    84    86   ar
    94    43    45   ar
    95    42    44   ar
    96    69    70    1
    97    82    81   ar
    98    73    75    1
    99   108   109    2
   100    77    76    1
   101    77    80    1
   102    86    85   ar
   103    71    70    2
   104    81    80    1
   105    81    83   ar
   106    45    44   ar
   107    85    83   ar
