@<TRIPOS>MOLECULE
tmp/5ts0W01.pdb
 142 134 0 0 0
SMALL
GASTEIGER

@<TRIPOS>ATOM
      1  N        112.4640  -10.5880  230.0970 N.3     1  THR1       -0.1218
      2  CA       113.4990  -10.9410  231.0700 C.3     1  THR1        0.1862
      3  C        114.8100  -10.2250  230.8010 C.2     1  THR1        0.2287
      4  O        115.2270  -10.0360  229.6440 O.2     1  THR1       -0.2866
      5  CB       113.8020  -12.4430  231.0850 C.3     1  THR1        0.1770
      6  OG1      112.6320  -13.1650  231.4450 O.3     1  THR1       -0.2211
      7  CG2      114.8970  -12.7700  232.1020 C.3     1  THR1        0.0375
      8  N        109.2880   -9.9130  236.0420 N.3    19  ARG19      -0.1231
      9  CA       108.0980   -9.9800  235.2100 C.3    19  ARG19       0.1694
     10  C        108.0210  -11.3260  234.5010 C.2    19  ARG19       0.2593
     11  O        109.0130  -11.7910  233.9280 O.2    19  ARG19      -0.2718
     12  CB       108.0800   -8.8420  234.1980 C.3    19  ARG19       0.0321
     13  CG       106.9940   -8.9910  233.1290 C.3    19  ARG19       0.0489
     14  CD       106.7380   -7.6670  232.3900 C.3    19  ARG19       0.2205
     15  NE       106.1860   -6.6130  233.2330 N.pl3  19  ARG19      -0.0865
     16  CZ       105.9140   -5.3830  232.8010 C.cat  19  ARG19       0.5346
     17  NH1      106.1600   -5.0470  231.5400 N.pl3  19  ARG19       0.1354
     18  NH2      105.3720   -4.4900  233.6210 N.pl3  19  ARG19       0.1354
     19  N        106.8430  -11.9360  234.5250 N.am   20  SER20      -0.1938
     20  CA       106.5460  -13.1590  233.7830 C.3    20  SER20       0.2055
     21  C        105.4650  -12.8450  232.7580 C.2    20  SER20       0.2644
     22  O        104.4580  -12.2120  233.0940 O.2    20  SER20      -0.2714
     23  CB       106.0830  -14.2860  234.7130 C.3    20  SER20       0.2130
     24  OG       105.3920  -15.3060  234.0120 O.3    20  SER20      -0.2179
     25  N        105.6740  -13.2790  231.5130 N.am   21  THR21      -0.1936
     26  CA       104.7920  -12.9210  230.4130 C.3    21  THR21       0.2028
     27  C        104.2810  -14.1430  229.6560 C.2    21  THR21       0.2642
     28  O        104.9000  -15.2020  229.6470 O.2    21  THR21      -0.2714
     29  CB       105.5310  -11.9940  229.4340 C.3    21  THR21       0.1808
     30  OG1      106.3540  -12.7820  228.5580 O.3    21  THR21      -0.2208
     31  CG2      106.4020  -11.0260  230.1670 C.3    21  THR21       0.0379
     32  N        103.1360  -13.9750  228.9950 N.am   22  GLN22      -0.1976
     33  CA       102.6410  -14.9070  227.9730 C.3    22  GLN22       0.1601
     34  C        102.2680  -14.0270  226.7950 C.2    22  GLN22       0.2287
     35  O        101.1690  -13.4820  226.7250 O.2    22  GLN22      -0.2864
     36  CB       101.4790  -15.7520  228.4260 C.3    22  GLN22       0.0394
     37  CG       101.8440  -16.9380  229.2710 C.3    22  GLN22       0.0908
     38  CD       100.7480  -17.9670  229.2740 C.2    22  GLN22       0.2608
     39  OE1       99.9760  -18.0900  228.3070 O.2    22  GLN22      -0.2717
     40  NE2      100.6470  -18.7020  230.3750 N.am   22  GLN22      -0.0878
     41  N        101.6790  -12.3390  233.1000 N.3    27  SER27      -0.1217
     42  CA       101.2730  -13.5060  233.8670 C.3    27  SER27       0.1889
     43  C        101.9690  -13.5890  235.2120 C.2    27  SER27       0.2288
     44  O        101.7480  -14.5540  235.9440 O.2    27  SER27      -0.2866
     45  CB       101.5730  -14.8000  233.0990 C.3    27  SER27       0.2089
     46  OG       102.9500  -14.9150  232.7800 O.3    27  SER27      -0.2183
     47  N        108.1290  -13.1000  240.1530 N.3    31  VAL31      -0.1231
     48  CA       108.8630  -14.3340  240.0100 C.3    31  VAL31       0.1692
     49  C        110.3360  -14.0950  240.3250 C.2    31  VAL31       0.2592
     50  O        110.8340  -12.9650  240.2710 O.2    31  VAL31      -0.2718
     51  CB       108.6720  -14.8550  238.5790 C.3    31  VAL31       0.0266
     52  CG1      107.2260  -14.6270  238.1390 C.3    31  VAL31       0.0020
     53  CG2      109.6370  -14.1580  237.6250 C.3    31  VAL31       0.0020
     54  N        111.0310  -15.1700  240.6870 N.am   32  ARG32      -0.1966
     55  CA       112.4650  -15.1240  240.9710 C.3    32  ARG32       0.1729
     56  C        113.2140  -15.7510  239.8090 C.2    32  ARG32       0.2616
     57  O        112.9560  -16.9040  239.4650 O.2    32  ARG32      -0.2715
     58  CB       112.8120  -15.8750  242.2580 C.3    32  ARG32       0.0348
     59  CG       112.2950  -15.2550  243.5540 C.3    32  ARG32       0.0492
     60  CD       113.4780  -14.8380  244.4230 C.3    32  ARG32       0.2205
     61  NE       114.5020  -15.8930  244.4740 N.pl3  32  ARG32      -0.0865
     62  CZ       115.7960  -15.7000  244.7610 C.cat  32  ARG32       0.5346
     63  NH1      116.2740  -14.4770  245.0230 N.pl3  32  ARG32       0.1354
     64  NH2      116.6320  -16.7430  244.7770 N.pl3  32  ARG32       0.1354
     65  N        114.1560  -15.0180  239.2230 N.am   33  LYS33      -0.1977
     66  CA       114.9190  -15.5500  238.1030 C.3    33  LYS33       0.1596
     67  C        116.4010  -15.7670  238.4060 C.2    33  LYS33       0.2287
     68  O        117.1470  -16.1870  237.5120 O.2    33  LYS33      -0.2864
     69  CB       114.7540  -14.6510  236.8750 C.3    33  LYS33       0.0298
     70  CG       113.3280  -14.3020  236.5510 C.3    33  LYS33       0.0038
     71  CD       113.3190  -13.3900  235.3640 C.3    33  LYS33       0.0206
     72  CE       111.9270  -12.8670  235.0650 C.3    33  LYS33       0.1093
     73  NZ       111.8250  -12.0300  233.8330 N.3    33  LYS33      -0.1314
     74  N        119.0080  -17.5480  241.3340 N.3    35  TYR35      -0.1241
     75  CA       119.0120  -18.4940  242.4350 C.3    35  TYR35       0.1605
     76  C        120.4340  -18.6830  242.9250 C.2    35  TYR35       0.2264
     77  O        121.3680  -18.7770  242.1190 O.2    35  TYR35      -0.2867
     78  CB       118.4740  -19.8320  242.0050 C.3    35  TYR35       0.0534
     79  CG       117.1520  -19.7400  241.3270 C.ar   35  TYR35      -0.0201
     80  CD1      115.9670  -19.7240  242.0550 C.ar   35  TYR35      -0.0009
     81  CD2      117.0840  -19.6430  239.9470 C.ar   35  TYR35      -0.0009
     82  CE1      114.7440  -19.6240  241.4160 C.ar   35  TYR35       0.0417
     83  CE2      115.8690  -19.5490  239.2970 C.ar   35  TYR35       0.0417
     84  CZ       114.7070  -19.5410  240.0300 C.ar   35  TYR35       0.1957
     85  OH       113.5110  -19.4510  239.3520 O.3    35  TYR35      -0.2866
     86  N        118.4870  -17.4160  234.9370 N.3    45  ILE45      -0.1245
     87  CA       118.1310  -18.0560  233.6780 C.3    45  ILE45       0.1561
     88  C        117.0350  -17.2620  232.9870 C.2    45  ILE45       0.2260
     89  O        116.1790  -16.6680  233.6490 O.2    45  ILE45      -0.2867
     90  CB       117.7260  -19.5220  233.9170 C.3    45  ILE45       0.0252
     91  CG1      118.8590  -20.2110  234.6740 C.3    45  ILE45       0.0019
     92  CG2      117.5710  -20.2490  232.6220 C.3    45  ILE45       0.0019
     93  CD1      118.4770  -21.4700  235.3070 C.3    45  ILE45       0.0001
     94  N        114.1750  -17.2930  229.5450 N.3    47  GLY47      -0.1210
     95  CA       113.4660  -18.1410  228.6150 C.3    47  GLY47       0.1956
     96  C        112.1940  -18.7090  229.2260 C.2    47  GLY47       0.2613
     97  O        111.5390  -18.0570  230.0460 O.2    47  GLY47      -0.2717
     98  N        111.8280  -19.9120  228.7680 N.am   48  THR48      -0.1938
     99  CA       110.6320  -20.5920  229.2480 C.3    48  THR48       0.2028
    100  C        110.7320  -20.9140  230.7280 C.2    48  THR48       0.2642
    101  O        111.6710  -21.5790  231.1710 O.2    48  THR48      -0.2714
    102  CB       110.4020  -21.8620  228.4420 C.3    48  THR48       0.1808
    103  OG1      110.8570  -21.6580  227.0970 O.3    48  THR48      -0.2208
    104  CG2      108.9450  -22.2760  228.4810 C.3    48  THR48       0.0379
    105  N        109.7260  -20.4690  231.4830 N.am   49  ALA49      -0.1977
    106  CA       109.7930  -20.5230  232.9370 C.3    49  ALA49       0.1597
    107  C        109.9880  -21.9520  233.4450 C.2    49  ALA49       0.2287
    108  O        110.8520  -22.2040  234.2980 O.2    49  ALA49      -0.2864
    109  CB       108.5310  -19.8890  233.5200 C.3    49  ALA49       0.0319
    110  N        113.5470  -22.9820  232.7740 N.3    52  ALA52      -0.1231
    111  CA       114.5150  -22.2140  233.5570 C.3    52  ALA52       0.1694
    112  C        114.5830  -22.7030  235.0090 C.2    52  ALA52       0.2591
    113  O        115.6720  -22.8730  235.5760 O.2    52  ALA52      -0.2718
    114  CB       114.1680  -20.7280  233.5080 C.3    52  ALA52       0.0304
    115  N        113.4240  -22.8820  235.6490 N.am   53  VAL53      -0.1980
    116  CA       113.4230  -23.3460  237.0360 C.3    53  VAL53       0.1595
    117  C        113.9400  -24.7680  237.1540 C.2    53  VAL53       0.2287
    118  O        114.6790  -25.0950  238.0950 O.2    53  VAL53      -0.2864
    119  CB       112.0240  -23.1920  237.6370 C.3    53  VAL53       0.0276
    120  CG1      112.0600  -23.5040  239.1170 C.3    53  VAL53       0.0022
    121  CG2      111.5710  -21.7310  237.4200 C.3    53  VAL53       0.0022
    122  N        112.5440  -26.3410  219.5170 N.3    96  GLN96      -0.1231
    123  CA       111.0980  -26.5100  219.4560 C.3    96  GLN96       0.1698
    124  C        110.3310  -25.5200  220.3440 C.2    96  GLN96       0.2593
    125  O        109.1200  -25.6760  220.5040 O.2    96  GLN96      -0.2718
    126  CB       110.7140  -27.9450  219.8590 C.3    96  GLN96       0.0381
    127  CG       110.9470  -29.0440  218.8150 C.3    96  GLN96       0.0905
    128  CD       109.7500  -29.2610  217.8920 C.2    96  GLN96       0.2608
    129  OE1      109.1180  -28.3010  217.4380 O.2    96  GLN96      -0.2717
    130  NE2      109.4360  -30.5260  217.6100 N.am   96  GLN96      -0.0878
    131  N        111.0020  -24.5370  220.9550 N.am   97  GLY97      -0.1942
    132  CA       110.3360  -23.4990  221.7230 C.3    97  GLY97       0.2014
    133  C        110.5390  -23.5140  223.2320 C.2    97  GLY97       0.2638
    134  O        110.1280  -22.5560  223.8920 O.2    97  GLY97      -0.2714
    135  N        111.1460  -24.5380  223.8220 N.am   98  LEU98      -0.1977
    136  CA       111.3730  -24.5610  225.2720 C.3    98  LEU98       0.1596
    137  C        112.7930  -24.0990  225.6180 C.2    98  LEU98       0.2287
    138  O        113.5590  -24.7880  226.2880 O.2    98  LEU98      -0.2864
    139  CB       111.1260  -25.9650  225.7930 C.3    98  LEU98       0.0297
    140  CG       109.6980  -26.4250  225.5820 C.3    98  LEU98       0.0022
    141  CD1      109.5600  -27.7540  226.2140 C.3    98  LEU98       0.0001
    142  CD2      108.7230  -25.4630  226.2100 C.3    98  LEU98       0.0001
@<TRIPOS>BOND
     1   129   128    2
     2   130   128   am
     3   128   127    1
     4   127   126    1
     5   123   122    1
     6   123   126    1
     7   123   124    1
     8   124   125    2
     9   124   131   am
    10   131   132    1
    11   132   133    1
    12   133   135   am
    13   133   134    2
    14   135   136    1
    15   136   137    1
    16   136   139    1
    17   140   139    1
    18   140   142    1
    19   140   141    1
    20   137   138    2
    21    35    34    2
    22    34    33    1
    23   103   102    1
    24    33    36    1
    25    33    32    1
    26    39    38    2
    27    36    37    1
    28   102   104    1
    29   102    99    1
    30    30    29    1
    31    95    96    1
    32    95    94    1
    33    98    96   am
    34    98    99    1
    35    32    27   am
    36    96    97    2
    37    99   100    1
    38    37    38    1
    39    38    40   am
    40    29    31    1
    41    29    26    1
    42     4     3    2
    43    28    27    2
    44    27    26    1
    45     1     2    1
    46    26    25    1
    47   100   101    2
    48   100   105   am
    49     3     2    1
    50     2     5    1
    51     5     6    1
    52     5     7    1
    53   105   106    1
    54    25    21   am
    55    17    16    1
    56    14    13    1
    57    14    15    1
    58    92    90    1
    59    21    22    2
    60    21    20    1
    61   110   111    1
    62    46    45    1
    63    16    15    2
    64    16    18    1
    65   106   107    1
    66   106   109    1
    67    88    89    2
    68    88    87    1
    69    45    42    1
    70    41    42    1
    71    13    12    1
    72   107   108    2
    73   114   111    1
    74   111   112    1
    75    87    90    1
    76    87    86    1
    77    20    19    1
    78    20    23    1
    79    73    72    1
    80    42    43    1
    81    90    91    1
    82    11    10    2
    83    24    23    1
    84    12     9    1
    85    10    19   am
    86    10     9    1
    87    91    93    1
    88   112   113    2
    89   112   115   am
    90    72    71    1
    91     9     8    1
    92    43    44    2
    93    71    70    1
    94   115   116    1
    95    70    69    1
    96    69    66    1
    97   116   117    1
    98   116   119    1
    99   117   118    2
   100   121   119    1
   101    68    67    2
   102    53    51    1
   103   119   120    1
   104    66    67    1
   105    66    65    1
   106    52    51    1
   107    51    48    1
   108    65    56   am
   109    83    81   ar
   110    83    84   ar
   111    85    84    1
   112    57    56    2
   113    56    55    1
   114    81    79   ar
   115    48    47    1
   116    48    49    1
   117    84    82   ar
   118    50    49    2
   119    49    54   am
   120    54    55    1
   121    55    58    1
   122    79    78    1
   123    79    80   ar
   124    74    75    1
   125    82    80   ar
   126    78    75    1
   127    77    76    2
   128    58    59    1
   129    75    76    1
   130    59    60    1
   131    60    61    1
   132    61    62    2
   133    62    64    1
   134    62    63    1
