@<TRIPOS>MOLECULE
tmp/5ts0W00.pdb
 77 76 0 0 0
SMALL
GASTEIGER

@<TRIPOS>ATOM
      1  N        119.1940  -28.8520  223.9050 N.3    91  LEU91      -0.1245
      2  CA       119.1290  -28.1030  222.6480 C.3    91  LEU91       0.1561
      3  C        117.9120  -28.4600  221.7740 C.2    91  LEU91       0.2260
      4  O        117.2600  -27.5580  221.2280 O.2    91  LEU91      -0.2867
      5  CB       120.4150  -28.3080  221.8460 C.3    91  LEU91       0.0270
      6  CG       120.3450  -27.6530  220.4610 C.3    91  LEU91       0.0019
      7  CD1      120.1000  -26.1350  220.5080 C.3    91  LEU91       0.0001
      8  CD2      121.5850  -27.9750  219.7140 C.3    91  LEU91       0.0001
      9  N        115.0620  -25.7300  220.4050 N.3    95  MET95      -0.1245
     10  CA       114.7240  -25.3650  219.0260 C.3    95  MET95       0.1570
     11  C        113.2380  -25.4980  218.7480 C.2    95  MET95       0.2261
     12  O        112.7220  -24.8470  217.8360 O.2    95  MET95      -0.2867
     13  CB       115.5250  -26.2310  218.0740 C.3    95  MET95       0.0387
     14  CG       116.9800  -25.8990  218.1610 C.3    95  MET95       0.0595
     15  SD       117.9950  -27.0540  217.2360 S.3    95  MET95      -0.1393
     16  CE       117.3190  -28.6600  217.6880 C.3    95  MET95       0.0692
     17  N        128.8650  -16.7750  230.6230 N.3   122  SER122     -0.1202
     18  CA       127.6830  -16.6940  229.7770 C.3   122  SER122      0.2020
     19  C        127.6460  -17.9240  228.8840 C.2   122  SER122      0.2619
     20  O        128.6780  -18.5620  228.6310 O.2   122  SER122     -0.2717
     21  CB       127.6840  -15.4570  228.8790 C.3   122  SER122      0.2103
     22  OG       128.7690  -15.5080  227.9500 O.3   122  SER122     -0.2182
     23  N        126.4380  -18.2530  228.4110 N.am  123  PHE123     -0.1961
     24  CA       126.2110  -19.4360  227.5910 C.3   123  PHE123      0.1771
     25  C        125.3970  -19.0650  226.3620 C.2   123  PHE123      0.2620
     26  O        124.7050  -18.0450  226.3510 O.2   123  PHE123     -0.2715
     27  CB       125.5040  -20.5170  228.3860 C.3   123  PHE123      0.0574
     28  CG       126.3010  -20.9940  229.5430 C.ar  123  PHE123     -0.0200
     29  CD1      126.3580  -20.2570  230.7170 C.ar  123  PHE123     -0.0042
     30  CD2      127.0310  -22.1850  229.4540 C.ar  123  PHE123     -0.0042
     31  CE1      127.1300  -20.7060  231.7950 C.ar  123  PHE123     -0.0003
     32  CE2      127.7950  -22.6390  230.5230 C.ar  123  PHE123     -0.0003
     33  CZ       127.8450  -21.9030  231.6910 C.ar  123  PHE123     -0.0000
     34  N        125.4490  -19.9330  225.3510 N.am  124  ASP124     -0.1957
     35  CA       124.5950  -19.8660  224.1750 C.3   124  ASP124      0.1840
     36  C        123.7190  -21.1170  224.1260 C.2   124  ASP124      0.2622
     37  O        123.8320  -21.9910  224.9750 O.2   124  ASP124     -0.2715
     38  CB       125.4320  -19.7090  222.9030 C.3   124  ASP124      0.1450
     39  CG       126.2460  -20.9550  222.5410 C.2   124  ASP124      0.3671
     40  OD1      125.9710  -22.0790  223.0390 O.co2 124  ASP124     -0.2456
     41  OD2      127.1800  -20.8020  221.7210 O.co2 124  ASP124     -0.2456
     42  N        122.7840  -21.2010  223.1720 N.am  125  ALA125     -0.1963
     43  CA       121.8340  -22.3210  223.2100 C.3   125  ALA125      0.1728
     44  C        122.4750  -23.6800  222.9810 C.2   125  ALA125      0.2616
     45  O        121.8570  -24.6870  223.3240 O.2   125  ALA125     -0.2715
     46  CB       120.7120  -22.1380  222.2080 C.3   125  ALA125      0.0334
     47  N        123.6570  -23.7430  222.3690 N.am  126  ALA126     -0.1977
     48  CA       124.3480  -25.0030  222.1150 C.3   126  ALA126      0.1597
     49  C        125.2700  -25.4140  223.2560 C.2   126  ALA126      0.2287
     50  O        125.9360  -26.4600  223.1720 O.2   126  ALA126     -0.2864
     51  CB       125.1510  -24.9070  220.8220 C.3   126  ALA126      0.0319
     52  N        127.8350  -23.5310  224.1310 N.3   128  GLY128     -0.1210
     53  CA       128.9940  -22.6720  224.0700 C.3   128  GLY128      0.1956
     54  C        129.1030  -21.8960  225.3670 C.2   128  GLY128      0.2612
     55  O        128.0720  -21.4870  225.9150 O.2   128  GLY128     -0.2717
     56  N        130.3030  -21.7010  225.9050 N.am  129  TRP129     -0.1962
     57  CA       130.4110  -20.8550  227.0800 C.3   129  TRP129      0.1771
     58  C        131.5490  -19.8630  226.8960 C.2   129  TRP129      0.2619
     59  O        132.4550  -20.0580  226.0840 O.2   129  TRP129     -0.2715
     60  CB       130.6070  -21.6580  228.3790 C.3   129  TRP129      0.0590
     61  CG       131.6810  -22.7040  228.3220 C.ar  129  TRP129      0.0006
     62  CD1      131.5330  -24.0090  227.9740 C.ar  129  TRP129      0.0946
     63  CD2      133.0650  -22.5220  228.6290 C.ar  129  TRP129      0.0152
     64  NE1      132.7320  -24.6550  228.0430 N.ar  129  TRP129     -0.2442
     65  CE2      133.6950  -23.7660  228.4420 C.ar  129  TRP129      0.0810
     66  CE3      133.8350  -21.4240  229.0420 C.ar  129  TRP129      0.0012
     67  CZ2      135.0630  -23.9540  228.6560 C.ar  129  TRP129      0.0191
     68  CZ3      135.1990  -21.6040  229.2470 C.ar  129  TRP129      0.0001
     69  CH2      135.7980  -22.8620  229.0530 C.ar  129  TRP129      0.0015
     70  N        131.4590  -18.7650  227.6420 N.am  130  ASN130     -0.1972
     71  CA       132.5260  -17.7750  227.6840 C.3   130  ASN130      0.1688
     72  C        132.6300  -17.2150  229.0950 C.2   130  ASN130      0.2292
     73  O        131.6540  -16.6890  229.6460 O.2   130  ASN130     -0.2864
     74  CB       132.3220  -16.6440  226.6730 C.3   130  ASN130      0.1181
     75  CG       133.6120  -15.8620  226.4020 C.2   130  ASN130      0.2629
     76  OD1      133.8750  -14.8410  227.0480 O.2   130  ASN130     -0.2716
     77  ND2      134.4230  -16.3440  225.4460 N.am  130  ASN130     -0.0877
@<TRIPOS>BOND
     1    15    16    1
     2    15    14    1
     3    12    11    2
     4    13    14    1
     5    13    10    1
     6    11    10    1
     7    10     9    1
     8     8     6    1
     9     6     7    1
    10     6     5    1
    11    51    48    1
    12     4     3    2
    13    41    39   ar
    14     3     2    1
    15     5     2    1
    16    48    47    1
    17    48    49    1
    18    46    43    1
    19    47    44   am
    20    39    38    1
    21    39    40   ar
    22     2     1    1
    23    38    35    1
    24    44    43    1
    25    44    45    2
    26    50    49    2
    27    42    43    1
    28    42    36   am
    29    53    52    1
    30    53    54    1
    31    36    35    1
    32    36    37    2
    33    35    34    1
    34    34    25   am
    35    54    56   am
    36    54    55    2
    37    77    75   am
    38    56    57    1
    39    59    58    2
    40    26    25    2
    41    25    24    1
    42    75    74    1
    43    75    76    2
    44    74    71    1
    45    58    57    1
    46    58    70   am
    47    57    60    1
    48    24    27    1
    49    24    23    1
    50    70    71    1
    51    71    72    1
    52    22    21    1
    53    62    64   ar
    54    62    61   ar
    55    64    65   ar
    56    61    60    1
    57    61    63   ar
    58    27    28    1
    59    23    19   am
    60    65    63   ar
    61    65    67   ar
    62    63    66   ar
    63    20    19    2
    64    67    69   ar
    65    21    18    1
    66    19    18    1
    67    66    68   ar
    68    69    68   ar
    69    72    73    2
    70    30    28   ar
    71    30    32   ar
    72    28    29   ar
    73    18    17    1
    74    32    33   ar
    75    29    31   ar
    76    33    31   ar
