@<TRIPOS>MOLECULE
tmp/5ts3A00.pdb
 210 201 0 0 0
SMALL
GASTEIGER

@<TRIPOS>ATOM
      1  N        -29.0100  -18.1660   12.1350 N.3    26  GLY26      -0.1225
      2  CA       -29.0910  -19.0680   10.9940 C.3    26  GLY26       0.1811
      3  C        -27.8180  -19.0890   10.1770 C.2    26  GLY26       0.2280
      4  O        -27.8770  -19.2180    8.9460 O.2    26  GLY26      -0.2866
      5  N        -25.2360  -21.1600    9.8450 N.3    28  ALA28      -0.1231
      6  CA       -24.4870  -22.3730    9.5070 C.3    28  ALA28       0.1694
      7  C        -24.8170  -22.9370    8.1330 C.2    28  ALA28       0.2592
      8  O        -24.1840  -23.9140    7.7160 O.2    28  ALA28      -0.2718
      9  CB       -24.7080  -23.4650   10.5630 C.3    28  ALA28       0.0304
     10  N        -25.7680  -22.3470    7.4150 N.am   29  ARG29      -0.1966
     11  CA       -26.1530  -22.8300    6.0970 C.3    29  ARG29       0.1729
     12  C        -26.7620  -21.6680    5.3290 C.2    29  ARG29       0.2617
     13  O        -27.2050  -20.6810    5.9210 O.2    29  ARG29      -0.2715
     14  CB       -27.1570  -23.9890    6.1930 C.3    29  ARG29       0.0348
     15  CG       -27.4600  -24.6830    4.8710 C.3    29  ARG29       0.0492
     16  CD       -28.4350  -25.8390    5.0470 C.3    29  ARG29       0.2205
     17  NE       -29.7480  -25.4040    5.5220 N.pl3  29  ARG29      -0.0865
     18  CZ       -30.6840  -26.2330    5.9790 C.cat  29  ARG29       0.5346
     19  NH1      -30.4440  -27.5370    6.0190 N.pl3  29  ARG29       0.1354
     20  NH2      -31.8580  -25.7640    6.4000 N.pl3  29  ARG29       0.1354
     21  N        -26.7660  -21.7900    4.0010 N.am   30  GLY30      -0.1940
     22  CA       -27.5890  -20.8950    3.1910 C.3    30  GLY30       0.2014
     23  C        -27.1350  -19.4450    3.2100 C.2    30  GLY30       0.2638
     24  O        -25.9390  -19.1270    3.2740 O.2    30  GLY30      -0.2714
     25  N        -28.1170  -18.5430    3.1600 N.am   31  ILE31      -0.1977
     26  CA       -27.8110  -17.1160    3.1070 C.3    31  ILE31       0.1596
     27  C        -27.0570  -16.6820    4.3610 C.2    31  ILE31       0.2287
     28  O        -26.1080  -15.8900    4.2890 O.2    31  ILE31      -0.2864
     29  CB       -29.1030  -16.2950    2.8930 C.3    31  ILE31       0.0276
     30  CG1      -29.7520  -16.6400    1.5400 C.3    31  ILE31       0.0022
     31  CG2      -28.8140  -14.7980    2.9930 C.3    31  ILE31       0.0022
     32  CD1      -31.1500  -15.9980    1.3410 C.3    31  ILE31       0.0001
     33  N        -24.7180  -18.0770   15.1140 N.3    49  CYS49      -0.1221
     34  CA       -25.8750  -18.6050   15.8330 C.3    49  CYS49       0.1808
     35  C        -26.6350  -19.5780   14.9350 C.2    49  CYS49       0.2601
     36  O        -27.0930  -19.2030   13.8510 O.2    49  CYS49      -0.2717
     37  CB       -26.7820  -17.4680   16.3070 C.3    49  CYS49       0.0970
     38  SG       -28.3560  -18.0200   16.9950 S.3    49  CYS49      -0.0800
     39  N        -26.7430  -20.8260   15.3750 N.am   50  ASP50      -0.1959
     40  CA       -27.5210  -21.8400   14.6720 C.3    50  ASP50       0.1840
     41  C        -27.8080  -22.9600   15.6700 C.2    50  ASP50       0.2621
     42  O        -27.3550  -22.9210   16.8190 O.2    50  ASP50      -0.2715
     43  CB       -26.7870  -22.3300   13.4110 C.3    50  ASP50       0.1450
     44  CG       -27.7410  -22.7240   12.2930 C.2    50  ASP50       0.3671
     45  OD1      -28.5200  -23.6940   12.4760 O.co2  50  ASP50      -0.2456
     46  OD2      -27.7150  -22.0450   11.2340 O.co2  50  ASP50      -0.2456
     47  N        -28.5700  -23.9620   15.2240 N.am   51  LEU51      -0.1977
     48  CA       -29.1790  -24.9280   16.1400 C.3    51  LEU51       0.1596
     49  C        -28.1870  -25.9770   16.6360 C.2    51  LEU51       0.2287
     50  O        -28.1490  -26.2850   17.8320 O.2    51  LEU51      -0.2864
     51  CB       -30.3710  -25.6130   15.4630 C.3    51  LEU51       0.0297
     52  CG       -31.6230  -24.7560   15.2550 C.3    51  LEU51       0.0022
     53  CD1      -32.5460  -25.3780   14.2160 C.3    51  LEU51       0.0001
     54  CD2      -32.3580  -24.5750   16.5840 C.3    51  LEU51       0.0001
     55  N        -27.8330  -22.2870   19.6470 N.3    76  CYS76      -0.1221
     56  CA       -29.0880  -22.1850   20.3780 C.3    76  CYS76       0.1808
     57  C        -30.2320  -22.0740   19.3790 C.2    76  CYS76       0.2601
     58  O        -30.0310  -21.8620   18.1760 O.2    76  CYS76      -0.2717
     59  CB       -29.1020  -20.9890   21.3390 C.3    76  CYS76       0.0970
     60  SG       -28.9650  -19.4070   20.4900 S.3    76  CYS76      -0.0800
     61  N        -31.4400  -22.2340   19.9090 N.am   77  ASP77      -0.1959
     62  CA       -32.6850  -21.9920   19.1900 C.3    77  ASP77       0.1840
     63  C        -33.0940  -20.5470   19.4520 C.2    77  ASP77       0.2621
     64  O        -33.3770  -20.1860   20.5990 O.2    77  ASP77      -0.2715
     65  CB       -33.7470  -22.9720   19.6960 C.3    77  ASP77       0.1450
     66  CG       -35.0680  -22.8620   18.9560 C.2    77  ASP77       0.3671
     67  OD1      -35.3780  -21.7890   18.3970 O.co2  77  ASP77      -0.2456
     68  OD2      -35.8120  -23.8640   18.9620 O.co2  77  ASP77      -0.2456
     69  N        -33.1120  -19.7200   18.3980 N.am   78  VAL78      -0.1977
     70  CA       -33.3860  -18.2930   18.5800 C.3    78  VAL78       0.1596
     71  C        -34.7620  -18.0350   19.1720 C.2    78  VAL78       0.2287
     72  O        -34.9880  -16.9600   19.7370 O.2    78  VAL78      -0.2864
     73  CB       -33.2550  -17.5020   17.2570 C.3    78  VAL78       0.0276
     74  CG1      -31.8310  -17.4920   16.7600 C.3    78  VAL78       0.0022
     75  CG2      -34.2260  -18.0270   16.1970 C.3    78  VAL78       0.0022
     76  N        -31.3640  -13.6210   10.3770 N.3   101  ASN101     -0.1225
     77  CA       -31.5380  -14.3750    9.1490 C.3   101  ASN101      0.1785
     78  C        -32.2150  -15.7200    9.3620 C.2   101  ASN101      0.2597
     79  O        -32.8360  -16.2300    8.4290 O.2   101  ASN101     -0.2718
     80  CB       -30.1680  -14.5440    8.4680 C.3   101  ASN101      0.1169
     81  CG       -30.1270  -15.6890    7.4910 C.2   101  ASN101      0.2627
     82  OD1      -30.3900  -15.5190    6.2990 O.2   101  ASN101     -0.2716
     83  ND2      -29.7810  -16.8770    7.9930 N.am  101  ASN101     -0.0877
     84  N        -32.1620  -16.2850   10.5690 N.am  102  ALA102     -0.1966
     85  CA       -32.8250  -17.5690   10.7960 C.3   102  ALA102      0.1728
     86  C        -34.2980  -17.5120   10.4090 C.2   102  ALA102      0.2617
     87  O        -35.0190  -16.5670   10.7440 O.2   102  ALA102     -0.2715
     88  CB       -32.6990  -17.9840   12.2610 C.3   102  ALA102      0.0334
     89  N        -34.7460  -18.5470    9.7100 N.am  103  GLY103     -0.1940
     90  CA       -36.1170  -18.6130    9.2600 C.3   103  GLY103      0.2014
     91  C        -36.4210  -20.0020    8.7480 C.2   103  GLY103      0.2638
     92  O        -35.5130  -20.7330    8.3330 O.2   103  GLY103     -0.2714
     93  N        -37.6880  -20.3880    8.7960 N.am  104  ILE104     -0.1977
     94  CA       -38.1230  -21.6870    8.2990 C.3   104  ILE104      0.1596
     95  C        -39.3300  -21.4920    7.3920 C.2   104  ILE104      0.2287
     96  O        -40.0850  -20.5210    7.5140 O.2   104  ILE104     -0.2864
     97  CB       -38.4520  -22.6840    9.4350 C.3   104  ILE104      0.0276
     98  CG1      -39.4780  -22.1010   10.4100 C.3   104  ILE104      0.0022
     99  CG2      -37.1670  -23.1080   10.1930 C.3   104  ILE104      0.0022
    100  CD1      -40.0150  -23.1370   11.4070 C.3   104  ILE104      0.0001
    101  N        -45.1210  -22.7080   15.2490 N.3   125  ARG125     -0.1245
    102  CA       -43.6680  -22.8630   15.2140 C.3   125  ARG125      0.1563
    103  C        -43.0390  -21.8710   14.2430 C.2   125  ARG125      0.2260
    104  O        -42.0140  -21.2530   14.5490 O.2   125  ARG125     -0.2867
    105  CB       -43.2970  -24.2960   14.8350 C.3   125  ARG125      0.0307
    106  CG       -41.7990  -24.5390   14.7360 C.3   125  ARG125      0.0489
    107  CD       -41.1000  -24.2750   16.0670 C.3   125  ARG125      0.2205
    108  NE       -39.6520  -24.4650   15.9580 N.pl3 125  ARG125     -0.0865
    109  CZ       -38.7760  -24.0640   16.8770 C.cat 125  ARG125      0.5346
    110  NH1      -39.1910  -23.4410   17.9740 N.pl3 125  ARG125      0.1354
    111  NH2      -37.4790  -24.2720   16.6870 N.pl3 125  ARG125      0.1354
    112  N        -40.2920  -18.9690   15.3150 N.3   129  VAL129     -0.1245
    113  CA       -38.9370  -18.8450   14.7800 C.3   129  VAL129      0.1561
    114  C        -38.7850  -17.5730   13.9670 C.2   129  VAL129      0.2260
    115  O        -37.8490  -16.7920   14.1810 O.2   129  VAL129     -0.2867
    116  CB       -38.5730  -20.0760   13.9330 C.3   129  VAL129      0.0252
    117  CG1      -37.2230  -19.8610   13.2580 C.3   129  VAL129      0.0019
    118  CG2      -38.5340  -21.3150   14.8020 C.3   129  VAL129      0.0019
    119  N        -34.7140  -10.0180    8.2100 N.3   156  THR156     -0.1203
    120  CA       -34.9240  -10.6660    6.9150 C.3   156  THR156      0.1994
    121  C        -36.4180  -10.8860    6.6990 C.2   156  THR156      0.2619
    122  O        -37.0470  -11.6950    7.3960 O.2   156  THR156     -0.2717
    123  CB       -34.1420  -11.9800    6.7990 C.3   156  THR156      0.1784
    124  OG1      -32.7530  -11.7310    7.0630 O.3   156  THR156     -0.2211
    125  CG2      -34.2510  -12.5370    5.3810 C.3   156  THR156      0.0376
    126  N        -36.9700  -10.1610    5.7280 N.am  157  SER157     -0.1937
    127  CA       -38.3300  -10.3720    5.2490 C.3   157  SER157      0.2055
    128  C        -38.2700  -11.2880    4.0280 C.2   157  SER157      0.2643
    129  O        -37.4500  -12.2070    3.9800 O.2   157  SER157     -0.2714
    130  CB       -38.9780   -9.0140    4.9460 C.3   157  SER157      0.2130
    131  OG       -40.3280   -9.1200    4.5170 O.3   157  SER157     -0.2179
    132  N        -39.1300  -11.0540    3.0460 N.am  158  SER158     -0.1949
    133  CA       -39.1650  -11.7960    1.7900 C.3   158  SER158      0.1924
    134  C        -40.1110  -11.0540    0.8690 C.2   158  SER158      0.2314
    135  O        -41.0290  -10.3860    1.3430 O.2   158  SER158     -0.2863
    136  CB       -39.6590  -13.2410    1.9750 C.3   158  SER158      0.2116
    137  OG       -39.9560  -13.8320    0.7090 O.3   158  SER158     -0.2180
    138  N        -45.4320  -18.4240    6.5640 N.3   172  TYR172     -0.1241
    139  CA       -44.2620  -17.7340    6.0350 C.3   172  TYR172      0.1605
    140  C        -44.6110  -16.3250    5.5710 C.2   172  TYR172      0.2264
    141  O        -43.9370  -15.3560    5.9340 O.2   172  TYR172     -0.2867
    142  CB       -43.6680  -18.5440    4.8870 C.3   172  TYR172      0.0534
    143  CG       -42.3240  -18.0270    4.4290 C.ar  172  TYR172     -0.0201
    144  CD1      -41.1530  -18.4030    5.0870 C.ar  172  TYR172     -0.0009
    145  CD2      -42.2190  -17.1650    3.3450 C.ar  172  TYR172     -0.0009
    146  CE1      -39.9150  -17.9370    4.6710 C.ar  172  TYR172      0.0417
    147  CE2      -40.9950  -16.7020    2.9170 C.ar  172  TYR172      0.0417
    148  CZ       -39.8450  -17.0920    3.5800 C.ar  172  TYR172      0.1957
    149  OH       -38.6300  -16.6240    3.1610 O.3   172  TYR172     -0.2866
    150  N        -43.1550  -12.9030    7.3580 N.3   176  LYS176     -0.1245
    151  CA       -42.2740  -12.0070    6.6210 C.3   176  LYS176      0.1561
    152  C        -42.9240  -10.6350    6.4380 C.2   176  LYS176      0.2260
    153  O        -42.2270   -9.6090    6.4390 O.2   176  LYS176     -0.2867
    154  CB       -41.8860  -12.6490    5.2820 C.3   176  LYS176      0.0271
    155  CG       -41.0250  -13.9280    5.4080 C.3   176  LYS176      0.0035
    156  CD       -39.8650  -13.7230    6.3980 C.3   176  LYS176      0.0206
    157  CE       -38.8320  -14.8380    6.3140 C.3   176  LYS176      0.1093
    158  NZ       -37.6140  -14.5200    7.1180 N.3   176  LYS176     -0.1314
    159  N        -35.3350  -10.8090    0.2760 N.3   202  PRO202     -0.2102
    160  CA       -34.8180  -11.5470   -0.8790 C.3   202  PRO202      0.1504
    161  C        -35.9440  -12.1340   -1.7190 C.2   202  PRO202      0.2576
    162  O        -37.0530  -12.3880   -1.2380 O.2   202  PRO202     -0.2718
    163  CB       -33.9530  -12.6470   -0.2410 C.3   202  PRO202      0.0282
    164  CG       -33.5820  -12.1000    1.1220 C.3   202  PRO202      0.0208
    165  CD       -34.8420  -11.3690    1.5500 C.3   202  PRO202      0.0893
    166  N        -35.6500  -12.3300   -3.0040 N.am  203  GLY203     -0.1943
    167  CA       -36.5880  -12.9590   -3.9100 C.3   203  GLY203      0.2014
    168  C        -36.3810  -14.4550   -3.9820 C.2   203  GLY203      0.2639
    169  O        -36.8900  -15.2020   -3.1360 O.2   203  GLY203     -0.2714
    170  N        -35.6760  -14.9220   -5.0110 N.am  204  ARG204     -0.1963
    171  CA       -35.3140  -16.3310   -5.1470 C.3   204  ARG204      0.1729
    172  C        -33.8000  -16.4030   -5.2210 C.2   204  ARG204      0.2616
    173  O        -33.2000  -15.9430   -6.1970 O.2   204  ARG204     -0.2715
    174  CB       -35.9460  -16.9600   -6.3880 C.3   204  ARG204      0.0348
    175  CG       -37.4450  -17.1410   -6.3160 C.3   204  ARG204      0.0492
    176  CD       -37.8560  -18.1430   -5.2470 C.3   204  ARG204      0.2205
    177  NE       -37.0020  -19.3250   -5.2200 N.pl3 204  ARG204     -0.0865
    178  CZ       -37.0910  -20.3430   -6.0730 C.cat 204  ARG204      0.5346
    179  NH1      -36.2640  -21.3750   -5.9600 N.pl3 204  ARG204      0.1354
    180  NH2      -37.9900  -20.3250   -7.0480 N.pl3 204  ARG204      0.1354
    181  N        -33.1910  -16.9860   -4.1970 N.am  205  ILE205     -0.1977
    182  CA       -31.7430  -17.0480   -4.0380 C.3   205  ILE205      0.1596
    183  C        -31.2820  -18.4830   -4.2450 C.2   205  ILE205      0.2287
    184  O        -31.9440  -19.4220   -3.7890 O.2   205  ILE205     -0.2864
    185  CB       -31.3310  -16.5270   -2.6450 C.3   205  ILE205      0.0276
    186  CG1      -32.0020  -15.1760   -2.3770 C.3   205  ILE205      0.0022
    187  CG2      -29.8110  -16.3850   -2.5380 C.3   205  ILE205      0.0022
    188  CD1      -31.6460  -14.0820   -3.4100 C.3   205  ILE205      0.0001
    189  N        -29.9210  -21.3720   -3.2400 N.3   207  THR207     -0.1204
    190  CA       -29.7670  -21.9140   -1.8940 C.3   207  THR207      0.1979
    191  C        -30.2400  -23.3650   -1.9090 C.2   207  THR207      0.2460
    192  O        -30.8230  -23.8100   -2.9060 O.2   207  THR207     -0.2732
    193  CB       -30.5970  -21.1060   -0.9050 C.3   207  THR207      0.1783
    194  OG1      -31.9050  -20.9470   -1.4580 O.3   207  THR207     -0.2211
    195  CG2      -29.9720  -19.7360   -0.6190 C.3   207  THR207      0.0376
    196  N        -29.9990  -24.1370   -0.8470 N.am  208  PRO208     -0.2717
    197  CA       -30.5120  -25.5160   -0.8160 C.3   208  PRO208      0.1535
    198  C        -32.0090  -25.6220   -1.0630 C.2   208  PRO208      0.2598
    199  O        -32.4640  -26.6250   -1.6260 O.2   208  PRO208     -0.2715
    200  CB       -30.1340  -25.9870    0.5950 C.3   208  PRO208      0.0310
    201  CG       -28.9310  -25.2090    0.9410 C.3   208  PRO208      0.0237
    202  CD       -29.1260  -23.8560    0.3080 C.3   208  PRO208      0.0939
    203  N        -32.7900  -24.6150   -0.6690 N.am  209  MET209     -0.1978
    204  CA       -34.2320  -24.6490   -0.9050 C.3   209  MET209      0.1605
    205  C        -34.5910  -24.8380   -2.3790 C.2   209  MET209      0.2287
    206  O        -35.6960  -25.3040   -2.6760 O.2   209  MET209     -0.2864
    207  CB       -34.8770  -23.3620   -0.3780 C.3   209  MET209      0.0413
    208  CG       -36.3580  -23.3190   -0.5510 C.3   209  MET209      0.0598
    209  SD       -37.1290  -24.3490    0.7290 S.3   209  MET209     -0.1393
    210  CE       -36.8510  -23.3600    2.1870 C.3   209  MET209      0.0692
@<TRIPOS>BOND
     1   180   178    1
     2   174   175    1
     3   174   171    1
     4   175   176    1
     5   173   172    2
     6   178   179    1
     7   178   177    2
     8   176   177    1
     9   172   171    1
    10   172   181   am
    11   171   170    1
    12   170   168   am
    13   183   182    1
    14   183   184    2
    15   181   182    1
    16   182   185    1
    17   168   167    1
    18   168   169    2
    19   167   166    1
    20   188   186    1
    21   189   190    1
    22   166   161   am
    23   192   191    2
    24   206   205    2
    25   185   187    1
    26   185   186    1
    27   205   204    1
    28   191   190    1
    29   191   196   am
    30   190   193    1
    31   161   162    2
    32   161   160    1
    33   199   198    2
    34   194   193    1
    35   198   197    1
    36   198   203   am
    37   204   203    1
    38   204   207    1
    39   193   195    1
    40   160   163    1
    41   160   159    1
    42   196   197    1
    43   196   202    1
    44   197   200    1
    45   208   207    1
    46   208   209    1
    47   163   164    1
    48   159   165    1
    49   202   201    1
    50   200   201    1
    51   137   136    1
    52   209   210    1
    53   134   135    2
    54   134   133    1
    55   164   165    1
    56    32    30    1
    57    30    29    1
    58   133   136    1
    59   133   132    1
    60    29    31    1
    61    29    26    1
    62   147   145   ar
    63   147   148   ar
    64   132   128   am
    65    26    25    1
    66    26    27    1
    67    25    23   am
    68   149   148    1
    69    22    23    1
    70    22    21    1
    71    23    24    2
    72   145   143   ar
    73   148   146   ar
    74   129   128    2
    75    21    12   am
    76   128   127    1
    77    28    27    2
    78   143   142    1
    79   143   144   ar
    80   131   130    1
    81   146   144   ar
    82    15    16    1
    83    15    14    1
    84   142   139    1
    85   130   127    1
    86    16    17    1
    87   127   126    1
    88   154   155    1
    89   154   151    1
    90    12    13    2
    91    12    11    1
    92   125   123    1
    93   155   156    1
    94    17    18    2
    95   140   141    2
    96   140   139    1
    97   126   121   am
    98    18    19    1
    99    18    20    1
   100   139   138    1
   101    11    14    1
   102    11    10    1
   103    82    81    2
   104   157   156    1
   105   157   158    1
   106   152   153    2
   107   152   151    1
   108   151   150    1
   109   121   120    1
   110   121   122    2
   111   123   120    1
   112   123   124    1
   113   120   119    1
   114    95    96    2
   115    95    94    1
   116    10     7   am
   117    81    83   am
   118    81    80    1
   119     8     7    2
   120     7     6    1
   121    94    93    1
   122    94    97    1
   123    92    91    2
   124    79    78    2
   125    80    77    1
   126    91    93   am
   127    91    90    1
   128     4     3    2
   129    77    78    1
   130    77    76    1
   131    90    89    1
   132    78    84   am
   133    97    99    1
   134    97    98    1
   135     6     5    1
   136     6     9    1
   137    89    86   am
   138     3     2    1
   139    86    87    2
   140    86    85    1
   141    98   100    1
   142    84    85    1
   143    85    88    1
   144     2     1    1
   145    46    44   ar
   146    44    45   ar
   147    44    43    1
   148   117   116    1
   149    43    40    1
   150    36    35    2
   151   116   113    1
   152   116   118    1
   153   114   115    2
   154   114   113    1
   155    53    52    1
   156   103   104    2
   157   103   102    1
   158    40    39    1
   159    40    41    1
   160   106   105    1
   161   106   107    1
   162   113   112    1
   163   105   102    1
   164    35    39   am
   165    35    34    1
   166    33    34    1
   167   102   101    1
   168    47    41   am
   169    47    48    1
   170    52    51    1
   171    52    54    1
   172    51    48    1
   173    41    42    2
   174    34    37    1
   175   108   107    1
   176   108   109    2
   177    48    49    1
   178    75    73    1
   179    37    38    1
   180    49    50    2
   181   111   109    1
   182    74    73    1
   183   109   110    1
   184    73    70    1
   185    58    57    2
   186    67    66   ar
   187    69    70    1
   188    69    63   am
   189    70    71    1
   190    66    68   ar
   191    66    65    1
   192    71    72    2
   193    62    63    1
   194    62    65    1
   195    62    61    1
   196    57    61   am
   197    57    56    1
   198    63    64    2
   199    55    56    1
   200    56    59    1
   201    60    59    1
