@<TRIPOS>MOLECULE
tmp/5ts4B00.pdb
 100 95 0 0 0
SMALL
GASTEIGER

@<TRIPOS>ATOM
      1  N         94.8360   33.5150  103.1190 N.3    34  SER34      -0.1202
      2  CA        96.0100   34.3050  103.4900 C.3    34  SER34       0.2020
      3  C         97.1490   34.1500  102.4860 C.2    34  SER34       0.2618
      4  O         97.8380   33.1280  102.4740 O.2    34  SER34      -0.2717
      5  CB        96.5000   33.9130  104.8860 C.3    34  SER34       0.2103
      6  OG        97.7390   34.5340  105.1870 O.3    34  SER34      -0.2182
      7  N         97.3440   35.1750  101.6580 N.am   35  ASN35      -0.1974
      8  CA        98.3830   35.1790  100.6290 C.3    35  ASN35       0.1688
      9  C         98.2980   33.9820   99.6880 C.2    35  ASN35       0.2292
     10  O         99.3180   33.3820   99.3490 O.2    35  ASN35      -0.2864
     11  CB        99.7760   35.2170  101.2650 C.3    35  ASN35       0.1181
     12  CG       100.0530   36.5140  101.9930 C.2    35  ASN35       0.2629
     13  OD1       99.4470   37.5460  101.7050 O.2    35  ASN35      -0.2716
     14  ND2      100.9830   36.4700  102.9410 N.am   35  ASN35      -0.0877
     15  N         92.3560   28.0870  104.2360 N.3    39  TYR39      -0.1241
     16  CA        91.9520   27.2150  105.3300 C.3    39  TYR39       0.1605
     17  C         90.4330   27.1050  105.3670 C.2    39  TYR39       0.2264
     18  O         89.7330   28.1080  105.5170 O.2    39  TYR39      -0.2867
     19  CB        92.4680   27.7410  106.6690 C.3    39  TYR39       0.0534
     20  CG        93.9630   27.9520  106.7280 C.ar   39  TYR39      -0.0201
     21  CD1       94.8220   26.9010  107.0220 C.ar   39  TYR39      -0.0009
     22  CD2       94.5140   29.2060  106.5080 C.ar   39  TYR39      -0.0009
     23  CE1       96.1900   27.0920  107.0840 C.ar   39  TYR39       0.0417
     24  CE2       95.8800   29.4060  106.5660 C.ar   39  TYR39       0.0417
     25  CZ        96.7130   28.3460  106.8570 C.ar   39  TYR39       0.1957
     26  OH        98.0750   28.5390  106.9180 O.3    39  TYR39      -0.2866
     27  N         94.8540   27.2250  111.7350 N.3    48  PHE48      -0.1241
     28  CA        95.2040   28.5990  111.3960 C.3    48  PHE48       0.1605
     29  C         95.5060   29.4050  112.6510 C.2    48  PHE48       0.2264
     30  O         96.4810   30.1540  112.6970 O.2    48  PHE48      -0.2867
     31  CB        94.0800   29.2640  110.5990 C.3    48  PHE48       0.0534
     32  CG        94.3530   30.7000  110.2500 C.ar   48  PHE48      -0.0203
     33  CD1       95.4410   31.0390  109.4630 C.ar   48  PHE48      -0.0042
     34  CD2       93.5210   31.7100  110.7020 C.ar   48  PHE48      -0.0042
     35  CE1       95.6980   32.3590  109.1380 C.ar   48  PHE48      -0.0003
     36  CE2       93.7700   33.0330  110.3790 C.ar   48  PHE48      -0.0003
     37  CZ        94.8600   33.3570  109.5970 C.ar   48  PHE48      -0.0000
     38  N         98.7740   28.5790  113.9200 N.3    51  GLU51      -0.1231
     39  CA        99.7720   29.2460  113.0910 C.3    51  GLU51       0.1699
     40  C         99.7120   30.7550  113.2920 C.2    51  GLU51       0.2592
     41  O        100.7240   31.4480  113.1990 O.2    51  GLU51      -0.2718
     42  CB        99.5730   28.9010  111.6150 C.3    51  GLU51       0.0402
     43  CG        99.7970   27.4360  111.2880 C.3    51  GLU51       0.1161
     44  CD        99.7500   27.1580  109.7990 C.2    51  GLU51       0.3649
     45  OE1       99.7370   28.1270  109.0110 O.co2  51  GLU51      -0.2457
     46  OE2       99.7240   25.9700  109.4160 O.co2  51  GLU51      -0.2457
     47  N         98.5170   31.2610  113.5690 N.am   52  MET52      -0.1979
     48  CA        98.3360   32.6830  113.8240 C.3    52  MET52       0.1605
     49  C         98.9760   33.1000  115.1430 C.2    52  MET52       0.2287
     50  O         99.5040   34.2070  115.2690 O.2    52  MET52      -0.2864
     51  CB        96.8500   33.0280  113.8400 C.3    52  MET52       0.0413
     52  CG        96.5450   34.4630  114.2090 C.3    52  MET52       0.0598
     53  SD        94.9180   34.6180  114.9690 S.3    52  MET52      -0.1393
     54  CE        93.9220   33.6890  113.8090 C.3    52  MET52       0.0692
     55  N        102.3540   35.0270  115.6550 N.3    55  THR55      -0.1218
     56  CA       102.4280   36.4730  115.4970 C.3    55  THR55       0.1862
     57  C        101.8840   37.1750  116.7370 C.2    55  THR55       0.2287
     58  O        101.0190   36.6410  117.4320 O.2    55  THR55      -0.2866
     59  CB       101.6560   36.9390  114.2560 C.3    55  THR55       0.1770
     60  OG1      100.2610   37.0520  114.5650 O.3    55  THR55      -0.2211
     61  CG2      101.8490   35.9480  113.1150 C.3    55  THR55       0.0375
     62  N        102.0290   43.5980  112.9990 N.3    80  PHE80      -0.1241
     63  CA       102.8600   42.9250  113.9970 C.3    80  PHE80       0.1605
     64  C        104.3090   42.8330  113.5220 C.2    80  PHE80       0.2264
     65  O        104.5760   42.6960  112.3260 O.2    80  PHE80      -0.2867
     66  CB       102.3120   41.5240  114.3640 C.3    80  PHE80       0.0534
     67  CG       102.1370   40.5680  113.2010 C.ar   80  PHE80      -0.0203
     68  CD1      103.2290   40.0810  112.4950 C.ar   80  PHE80      -0.0042
     69  CD2      100.8780   40.0940  112.8690 C.ar   80  PHE80      -0.0042
     70  CE1      103.0640   39.1930  111.4480 C.ar   80  PHE80      -0.0003
     71  CE2      100.7070   39.1940  111.8310 C.ar   80  PHE80      -0.0003
     72  CZ       101.8000   38.7500  111.1150 C.ar   80  PHE80      -0.0000
     73  N        105.3510   44.6190  110.3690 N.3    83  LYS83      -0.1245
     74  CA       104.7230   44.2740  109.0960 C.3    83  LYS83       0.1561
     75  C        103.2380   44.6320  109.0880 C.2    83  LYS83       0.2260
     76  O        102.4600   44.0870  109.8710 O.2    83  LYS83      -0.2867
     77  CB       104.9040   42.7830  108.7980 C.3    83  LYS83       0.0271
     78  CG       104.0950   42.4100  107.5300 C.3    83  LYS83       0.0035
     79  CD       104.6180   41.1140  106.9930 C.3    83  LYS83       0.0206
     80  CE       103.9670   40.6530  105.7500 C.3    83  LYS83       0.1093
     81  NZ       102.4830   40.8160  105.7590 N.3    83  LYS83      -0.1314
     82  N         99.5130   44.9070  107.1660 N.3    85  PHE85      -0.1241
     83  CA        98.6920   44.3180  106.1160 C.3    85  PHE85       0.1605
     84  C         97.2110   44.5410  106.3970 C.2    85  PHE85       0.2264
     85  O         96.8300   44.8870  107.5160 O.2    85  PHE85      -0.2867
     86  CB        98.9880   42.8250  105.9830 C.3    85  PHE85       0.0534
     87  CG        98.8540   42.0640  107.2710 C.ar   85  PHE85      -0.0203
     88  CD1       97.6350   41.5350  107.6590 C.ar   85  PHE85      -0.0042
     89  CD2       99.9510   41.8800  108.0970 C.ar   85  PHE85      -0.0042
     90  CE1       97.5120   40.8410  108.8460 C.ar   85  PHE85      -0.0003
     91  CE2       99.8320   41.1860  109.2840 C.ar   85  PHE85      -0.0003
     92  CZ        98.6100   40.6640  109.6580 C.ar   85  PHE85      -0.0000
     93  N         93.3440   37.6730  104.4900 N.3   105  LEU105     -0.1245
     94  CA        94.5790   38.2790  104.9700 C.3   105  LEU105      0.1561
     95  C         95.4980   38.6180  103.8020 C.2   105  LEU105      0.2260
     96  O         96.1960   37.7500  103.2840 O.2   105  LEU105     -0.2867
     97  CB        95.2950   37.3410  105.9410 C.3   105  LEU105      0.0270
     98  CG        96.0900   38.0200  107.0540 C.3   105  LEU105      0.0019
     99  CD1       95.1540   38.4010  108.1860 C.3   105  LEU105      0.0001
    100  CD2       97.2190   37.1320  107.5500 C.3   105  LEU105      0.0001
@<TRIPOS>BOND
     1    10     9    2
     2     9     8    1
     3     8    11    1
     4     8     7    1
     5    11    12    1
     6     7     3   am
     7    13    12    2
     8    12    14   am
     9     4     3    2
    10     3     2    1
    11     1     2    1
    12    96    95    2
    13     2     5    1
    14    95    94    1
    15    15    16    1
    16    93    94    1
    17     5     6    1
    18    94    97    1
    19    16    17    1
    20    16    19    1
    21    17    18    2
    22    80    81    1
    23    80    79    1
    24    97    98    1
    25    86    83    1
    26    86    87    1
    27    83    84    1
    28    83    82    1
    29    84    85    2
    30    22    24   ar
    31    22    20   ar
    32    24    25   ar
    33    19    20    1
    34    20    21   ar
    35    25    26    1
    36    25    23   ar
    37    79    78    1
    38    21    23   ar
    39    98   100    1
    40    98    99    1
    41    87    88   ar
    42    87    89   ar
    43    78    77    1
    44    88    90   ar
    45    89    91   ar
    46    77    74    1
    47    90    92   ar
    48    45    44   ar
    49    75    74    1
    50    75    76    2
    51    74    73    1
    52    35    33   ar
    53    35    37   ar
    54    91    92   ar
    55    46    44   ar
    56    33    32   ar
    57    37    36   ar
    58    44    43    1
    59    32    31    1
    60    32    34   ar
    61    36    34   ar
    62    31    28    1
    63    72    70   ar
    64    72    71   ar
    65    43    42    1
    66    28    27    1
    67    28    29    1
    68    70    68   ar
    69    42    39    1
    70    71    69   ar
    71    65    64    2
    72    68    67   ar
    73    29    30    2
    74    69    67   ar
    75    62    63    1
    76    39    40    1
    77    39    38    1
    78    61    59    1
    79    41    40    2
    80    67    66    1
    81    40    47   am
    82    64    63    1
    83    47    48    1
    84    54    53    1
    85    48    51    1
    86    48    49    1
    87    51    52    1
    88    63    66    1
    89    52    53    1
    90    59    60    1
    91    59    56    1
    92    49    50    2
    93    56    55    1
    94    56    57    1
    95    57    58    2
