@<TRIPOS>MOLECULE
tmp/5ts8A02.pdb
 93 86 0 0 0
SMALL
GASTEIGER

@<TRIPOS>ATOM
      1  N         18.2260   29.5110   47.6100 N.3    37  ARG37      -0.1245
      2  CA        17.2860   30.2610   46.7620 C.3    37  ARG37       0.1563
      3  C         16.4950   29.3750   45.8350 C.2    37  ARG37       0.2260
      4  O         16.8870   28.2370   45.5560 O.2    37  ARG37      -0.2867
      5  CB        18.0090   31.3220   45.9330 C.3    37  ARG37       0.0307
      6  CG        19.1000   30.7970   45.0230 C.3    37  ARG37       0.0489
      7  CD        19.4770   31.8400   43.9910 C.3    37  ARG37       0.2205
      8  NE        20.7720   31.5490   43.3830 N.pl3  37  ARG37      -0.0865
      9  CZ        21.9530   32.0300   43.7900 C.cat  37  ARG37       0.5346
     10  NH1       23.0590   31.6840   43.1400 N.pl3  37  ARG37       0.1354
     11  NH2       22.0480   32.8470   44.8380 N.pl3  37  ARG37       0.1354
     12  N         15.1380   28.1670   42.2700 N.3    39  VAL39      -0.1245
     13  CA        15.6080   28.1370   40.8860 C.3    39  VAL39       0.1561
     14  C         14.5040   27.8130   39.8740 C.2    39  VAL39       0.2260
     15  O         14.6750   28.0930   38.6850 O.2    39  VAL39      -0.2867
     16  CB        16.8240   27.1930   40.6890 C.3    39  VAL39       0.0252
     17  CG1       18.0290   27.6780   41.4850 C.3    39  VAL39       0.0019
     18  CG2       16.4870   25.7660   41.0610 C.3    39  VAL39       0.0019
     19  N         12.0350   23.4720   43.0180 N.3    47  VAL47      -0.1245
     20  CA        13.4790   23.2380   42.9770 C.3    47  VAL47       0.1561
     21  C         14.2080   24.4430   43.5520 C.2    47  VAL47       0.2260
     22  O         13.9320   25.5890   43.1880 O.2    47  VAL47      -0.2867
     23  CB        13.9620   22.9280   41.5400 C.3    47  VAL47       0.0252
     24  CG1       15.4420   22.5640   41.5310 C.3    47  VAL47       0.0019
     25  CG2       13.1370   21.7820   40.9310 C.3    47  VAL47       0.0019
     26  N         18.2380   25.8850   44.9280 N.3    49  GLU49      -0.1245
     27  CA        19.6640   25.7920   45.2250 C.3    49  GLU49       0.1567
     28  C         19.7740   25.6740   46.7290 C.2    49  GLU49       0.2260
     29  O         19.1420   26.4340   47.4600 O.2    49  GLU49      -0.2867
     30  CB        20.4440   27.0030   44.7170 C.3    49  GLU49       0.0388
     31  CG        21.9090   26.9800   45.1050 C.3    49  GLU49       0.1160
     32  CD        22.7180   28.1550   44.5680 C.2    49  GLU49       0.3649
     33  OE1       22.2150   28.8950   43.6970 O.co2  49  GLU49      -0.2457
     34  OE2       23.8890   28.2990   44.9890 O.co2  49  GLU49      -0.2457
     35  N         21.2610   20.8470   44.7970 N.3    60  ILE60      -0.1245
     36  CA        19.9220   21.1850   44.3430 C.3    60  ILE60       0.1561
     37  C         18.9570   20.4010   45.1860 C.2    60  ILE60       0.2260
     38  O         19.1380   19.2030   45.4250 O.2    60  ILE60      -0.2867
     39  CB        19.7200   20.8480   42.8450 C.3    60  ILE60       0.0252
     40  CG1       20.5000   21.8600   42.0010 C.3    60  ILE60       0.0019
     41  CG2       18.2360   20.8160   42.4810 C.3    60  ILE60       0.0019
     42  CD1       19.9280   23.2520   41.9240 C.3    60  ILE60       0.0001
     43  N         24.8190   19.8660   42.3150 N.3   109  TYR109     -0.1227
     44  CA        24.5000   21.1250   41.6440 C.3   109  TYR109      0.1736
     45  C         25.1010   21.2780   40.2510 C.2   109  TYR109      0.2595
     46  O         26.2540   20.9380   40.0320 O.2   109  TYR109     -0.2718
     47  CB        25.0240   22.2730   42.5190 C.3   109  TYR109      0.0548
     48  CG        24.8880   23.6490   41.9180 C.ar  109  TYR109     -0.0200
     49  CD1       23.7090   24.3690   42.0540 C.ar  109  TYR109     -0.0009
     50  CD2       25.9350   24.2250   41.2110 C.ar  109  TYR109     -0.0009
     51  CE1       23.5740   25.6300   41.5060 C.ar  109  TYR109      0.0417
     52  CE2       25.8190   25.4930   40.6600 C.ar  109  TYR109      0.0417
     53  CZ        24.6350   26.1910   40.8120 C.ar  109  TYR109      0.1957
     54  OH        24.4860   27.4480   40.2700 O.3   109  TYR109     -0.2866
     55  N         24.3290   21.8460   39.3230 N.am  110  VAL110     -0.1966
     56  CA        24.8260   22.1650   37.9710 C.3   110  VAL110      0.1727
     57  C         24.5370   23.6270   37.6870 C.2   110  VAL110      0.2616
     58  O         23.4380   24.1060   37.9130 O.2   110  VAL110     -0.2715
     59  CB        24.1310   21.3210   36.8950 C.3   110  VAL110      0.0290
     60  CG1       24.6690   21.6810   35.5290 C.3   110  VAL110      0.0023
     61  CG2       24.3160   19.8370   37.1760 C.3   110  VAL110      0.0023
     62  N         25.5560   24.3420   37.2080 N.am  111  ASN111     -0.1958
     63  CA        25.4230   25.7520   36.9170 C.3   111  ASN111      0.1819
     64  C         24.7770   25.9160   35.5540 C.2   111  ASN111      0.2621
     65  O         25.4410   26.3120   34.6070 O.2   111  ASN111     -0.2715
     66  CB        26.8330   26.4030   37.0030 C.3   111  ASN111      0.1195
     67  CG        26.8210   27.9200   36.8360 C.2   111  ASN111      0.2630
     68  OD1       25.8020   28.5710   36.9760 O.2   111  ASN111     -0.2716
     69  ND2       28.0060   28.4770   36.5580 N.am  111  ASN111     -0.0877
     70  N         23.4530   25.7510   35.5030 N.am  112  ASN112     -0.1972
     71  CA        22.7080   25.8100   34.2760 C.3   112  ASN112      0.1688
     72  C         22.5350   27.2210   33.7720 C.2   112  ASN112      0.2292
     73  O         22.4920   28.1610   34.5610 O.2   112  ASN112     -0.2864
     74  CB        21.3170   25.1590   34.5070 C.3   112  ASN112      0.1181
     75  CG        20.5100   25.0280   33.2270 C.2   112  ASN112      0.2629
     76  OD1       20.9870   24.5260   32.1900 O.2   112  ASN112     -0.2716
     77  ND2       19.3030   25.6030   33.2360 N.am  112  ASN112     -0.0877
     78  N         19.4110   28.7970   31.3930 N.3   114  ASP114     -0.1239
     79  CA        18.1730   28.4120   30.7660 C.3   114  ASP114      0.1674
     80  C         18.3230   28.5330   29.2630 C.2   114  ASP114      0.2266
     81  O         18.8980   29.5050   28.7500 O.2   114  ASP114     -0.2867
     82  CB        17.0020   29.2440   31.2280 C.3   114  ASP114      0.1410
     83  CG        15.7170   28.8270   30.5630 C.2   114  ASP114      0.3668
     84  OD1       15.1380   27.7910   30.9880 O.co2 114  ASP114     -0.2456
     85  OD2       15.2880   29.5250   29.6000 O.co2 114  ASP114     -0.2456
     86  N         20.1840   20.2200   31.6610 N.3   157  MET157     -0.1245
     87  CA        20.9680   21.2600   32.3190 C.3   157  MET157      0.1570
     88  C         22.3390   21.2930   31.7300 C.2   157  MET157      0.2261
     89  O         22.9430   20.2460   31.5290 O.2   157  MET157     -0.2867
     90  CB        21.0600   20.9830   33.8150 C.3   157  MET157      0.0387
     91  CG        19.7630   20.9120   34.5770 C.3   157  MET157      0.0595
     92  SD        18.9260   22.4820   34.6390 S.3   157  MET157     -0.1393
     93  CE        17.8440   22.3940   33.2270 C.3   157  MET157      0.0692
@<TRIPOS>BOND
     1    81    80    2
     2    80    79    1
     3    85    83   ar
     4    83    84   ar
     5    83    82    1
     6    79    82    1
     7    79    78    1
     8    89    88    2
     9    86    87    1
    10    88    87    1
    11    76    75    2
    12    87    90    1
    13    75    77   am
    14    75    74    1
    15    93    92    1
    16    72    71    1
    17    72    73    2
    18    90    91    1
    19    71    74    1
    20    71    70    1
    21    91    92    1
    22    65    64    2
    23    70    64   am
    24    60    59    1
    25    64    63    1
    26    69    67   am
    27    67    68    2
    28    67    66    1
    29    59    61    1
    30    59    56    1
    31    63    66    1
    32    63    62    1
    33    62    57   am
    34    57    58    2
    35    57    56    1
    36    56    55    1
    37    15    14    2
    38    55    45   am
    39    14    13    1
    40    46    45    2
    41    45    44    1
    42    54    53    1
    43    52    53   ar
    44    52    50   ar
    45    16    13    1
    46    16    18    1
    47    16    17    1
    48    53    51   ar
    49    13    12    1
    50    25    23    1
    51    50    48   ar
    52    51    49   ar
    53    24    23    1
    54    23    20    1
    55    44    43    1
    56    44    47    1
    57    48    49   ar
    58    48    47    1
    59    42    40    1
    60    40    39    1
    61    41    39    1
    62    39    36    1
    63    20    19    1
    64    20    21    1
    65    10     9    1
    66    22    21    2
    67     8     9    2
    68     8     7    1
    69    33    32   ar
    70     9    11    1
    71     7     6    1
    72    36    35    1
    73    36    37    1
    74    32    34   ar
    75    32    31    1
    76    30    31    1
    77    30    27    1
    78    26    27    1
    79     6     5    1
    80    37    38    2
    81    27    28    1
    82     4     3    2
    83     3     2    1
    84     5     2    1
    85    28    29    2
    86     2     1    1
