@<TRIPOS>MOLECULE
tmp/5ts8A00.pdb
 97 88 0 0 0
SMALL
GASTEIGER

@<TRIPOS>ATOM
      1  N         15.1380   28.1670   42.2700 N.3    39  VAL39      -0.1245
      2  CA        15.6080   28.1370   40.8860 C.3    39  VAL39       0.1561
      3  C         14.5040   27.8130   39.8740 C.2    39  VAL39       0.2260
      4  O         14.6750   28.0930   38.6850 O.2    39  VAL39      -0.2867
      5  CB        16.8240   27.1930   40.6890 C.3    39  VAL39       0.0252
      6  CG1       18.0290   27.6780   41.4850 C.3    39  VAL39       0.0019
      7  CG2       16.4870   25.7660   41.0610 C.3    39  VAL39       0.0019
      8  N         12.0350   23.4720   43.0180 N.3    47  VAL47      -0.1245
      9  CA        13.4790   23.2380   42.9770 C.3    47  VAL47       0.1561
     10  C         14.2080   24.4430   43.5520 C.2    47  VAL47       0.2260
     11  O         13.9320   25.5890   43.1880 O.2    47  VAL47      -0.2867
     12  CB        13.9620   22.9280   41.5400 C.3    47  VAL47       0.0252
     13  CG1       15.4420   22.5640   41.5310 C.3    47  VAL47       0.0019
     14  CG2       13.1370   21.7820   40.9310 C.3    47  VAL47       0.0019
     15  N         21.2610   20.8470   44.7970 N.3    60  ILE60      -0.1245
     16  CA        19.9220   21.1850   44.3430 C.3    60  ILE60       0.1561
     17  C         18.9570   20.4010   45.1860 C.2    60  ILE60       0.2260
     18  O         19.1380   19.2030   45.4250 O.2    60  ILE60      -0.2867
     19  CB        19.7200   20.8480   42.8450 C.3    60  ILE60       0.0252
     20  CG1       20.5000   21.8600   42.0010 C.3    60  ILE60       0.0019
     21  CG2       18.2360   20.8160   42.4810 C.3    60  ILE60       0.0019
     22  CD1       19.9280   23.2520   41.9240 C.3    60  ILE60       0.0001
     23  N         15.0330   19.2710   45.5340 N.3    62  LYS62      -0.1245
     24  CA        13.7810   19.0870   44.7740 C.3    62  LYS62       0.1561
     25  C         12.7180   18.6280   45.7470 C.2    62  LYS62       0.2260
     26  O         12.7500   17.5120   46.2280 O.2    62  LYS62      -0.2867
     27  CB        13.9630   18.0850   43.5960 C.3    62  LYS62       0.0271
     28  CG        12.6940   17.8740   42.7480 C.3    62  LYS62       0.0035
     29  CD        12.9240   16.8370   41.6490 C.3    62  LYS62       0.0206
     30  CE        11.6820   16.5620   40.8370 C.3    62  LYS62       0.1093
     31  NZ        12.0460   15.5970   39.7660 N.3    62  LYS62      -0.1314
     32  N         21.9910   13.0790   36.1500 N.3    89  VAL89      -0.1245
     33  CA        21.9910   13.7890   37.4000 C.3    89  VAL89       0.1561
     34  C         22.3020   12.8050   38.5360 C.2    89  VAL89       0.2260
     35  O         21.8920   11.6400   38.4900 O.2    89  VAL89      -0.2867
     36  CB        20.6270   14.5070   37.5840 C.3    89  VAL89       0.0252
     37  CG1       19.5910   13.5680   38.2020 C.3    89  VAL89       0.0019
     38  CG2       20.8040   15.8100   38.3180 C.3    89  VAL89       0.0019
     39  N         20.2750   16.6290   45.0000 N.3   107  PHE107     -0.1227
     40  CA        21.1420   16.3410   43.8530 C.3   107  PHE107      0.1736
     41  C         22.4400   17.1290   43.9380 C.2   107  PHE107      0.2595
     42  O         22.4980   18.2150   44.5650 O.2   107  PHE107     -0.2718
     43  CB        20.4540   16.6890   42.5430 C.3   107  PHE107      0.0547
     44  CG        19.1770   15.9450   42.2980 C.ar  107  PHE107     -0.0202
     45  CD1       19.1990   14.6780   41.7100 C.ar  107  PHE107     -0.0042
     46  CD2       17.9360   16.4970   42.6160 C.ar  107  PHE107     -0.0042
     47  CE1       18.0310   13.9790   41.4640 C.ar  107  PHE107     -0.0003
     48  CE2       16.7560   15.7750   42.3890 C.ar  107  PHE107     -0.0003
     49  CZ        16.8150   14.5190   41.7920 C.ar  107  PHE107     -0.0000
     50  N         23.4020   16.7020   43.1270 N.am  108  GLU108     -0.1979
     51  CA        24.6310   17.4900   42.8610 C.3   108  GLU108      0.1602
     52  C         24.2780   18.6960   41.9750 C.2   108  GLU108      0.2287
     53  O         23.5530   18.5760   40.9970 O.2   108  GLU108     -0.2864
     54  CB        25.6700   16.5660   42.2040 C.3   108  GLU108      0.0415
     55  CG        27.1050   17.0740   42.1320 C.3   108  GLU108      0.1163
     56  CD        28.0760   16.0290   41.5860 C.2   108  GLU108      0.3649
     57  OE1       27.7730   15.4040   40.5410 O.co2 108  GLU108     -0.2457
     58  OE2       29.1570   15.8330   42.2100 O.co2 108  GLU108     -0.2457
     59  N         24.3290   21.8460   39.3230 N.3   110  VAL110     -0.1245
     60  CA        24.8260   22.1650   37.9710 C.3   110  VAL110      0.1561
     61  C         24.5370   23.6270   37.6870 C.2   110  VAL110      0.2260
     62  O         23.4380   24.1060   37.9130 O.2   110  VAL110     -0.2867
     63  CB        24.1310   21.3210   36.8950 C.3   110  VAL110      0.0252
     64  CG1       24.6690   21.6810   35.5290 C.3   110  VAL110      0.0019
     65  CG2       24.3160   19.8370   37.1760 C.3   110  VAL110      0.0019
     66  N         23.4530   25.7510   35.5030 N.3   112  ASN112     -0.1240
     67  CA        22.7080   25.8100   34.2760 C.3   112  ASN112      0.1653
     68  C         22.5350   27.2210   33.7720 C.2   112  ASN112      0.2266
     69  O         22.4920   28.1610   34.5610 O.2   112  ASN112     -0.2867
     70  CB        21.3170   25.1590   34.5070 C.3   112  ASN112      0.1155
     71  CG        20.5100   25.0280   33.2270 C.2   112  ASN112      0.2627
     72  OD1       20.9870   24.5260   32.1900 O.2   112  ASN112     -0.2716
     73  ND2       19.3030   25.6030   33.2360 N.am  112  ASN112     -0.0877
     74  N         20.1840   20.2200   31.6610 N.3   157  MET157     -0.1245
     75  CA        20.9680   21.2600   32.3190 C.3   157  MET157      0.1570
     76  C         22.3390   21.2930   31.7300 C.2   157  MET157      0.2261
     77  O         22.9430   20.2460   31.5290 O.2   157  MET157     -0.2867
     78  CB        21.0600   20.9830   33.8150 C.3   157  MET157      0.0387
     79  CG        19.7630   20.9120   34.5770 C.3   157  MET157      0.0595
     80  SD        18.9260   22.4820   34.6390 S.3   157  MET157     -0.1393
     81  CE        17.8440   22.3940   33.2270 C.3   157  MET157      0.0692
     82  N         17.9710   15.6680   33.5590 N.3   168  ILE168     -0.1231
     83  CA        17.2840   15.8130   34.8560 C.3   168  ILE168      0.1692
     84  C         15.8240   15.3860   34.7570 C.2   168  ILE168      0.2592
     85  O         15.3320   15.0300   33.7040 O.2   168  ILE168     -0.2718
     86  CB        17.4060   17.2460   35.4280 C.3   168  ILE168      0.0266
     87  CG1       16.5910   18.2370   34.5970 C.3   168  ILE168      0.0019
     88  CG2       18.8520   17.6400   35.5960 C.3   168  ILE168      0.0020
     89  CD1       16.1650   19.4690   35.3710 C.3   168  ILE168      0.0001
     90  N         15.1350   15.4690   35.9000 N.am  169  ASP169     -0.1974
     91  CA        13.7060   15.2020   36.0640 C.3   169  ASP169      0.1709
     92  C         13.2610   13.8600   35.5510 C.2   169  ASP169      0.2293
     93  O         12.6310   13.7230   34.4800 O.2   169  ASP169     -0.2864
     94  CB        12.7930   16.3030   35.5920 C.3   169  ASP169      0.1436
     95  CG        11.4380   16.2300   36.3310 C.2   169  ASP169      0.3671
     96  OD1       11.1200   15.1200   36.9490 O.co2 169  ASP169     -0.2456
     97  OD2       10.7290   17.2890   36.3520 O.co2 169  ASP169     -0.2456
@<TRIPOS>BOND
     1    77    76    2
     2    74    75    1
     3    76    75    1
     4    72    71    2
     5    75    78    1
     6    71    73   am
     7    71    70    1
     8    81    80    1
     9    82    83    1
    10    85    84    2
    11    68    67    1
    12    68    69    2
    13    78    79    1
    14    67    70    1
    15    67    66    1
    16    93    92    2
    17    79    80    1
    18    87    89    1
    19    87    86    1
    20    84    83    1
    21    84    90   am
    22    83    86    1
    23    86    88    1
    24    64    63    1
    25    92    91    1
    26    94    91    1
    27    94    95    1
    28    90    91    1
    29    32    33    1
    30    95    97   ar
    31    95    96   ar
    32    63    65    1
    33    63    60    1
    34    33    36    1
    35    33    34    1
    36    36    37    1
    37    36    38    1
    38    61    62    2
    39    61    60    1
    40    60    59    1
    41    35    34    2
    42     4     3    2
    43    31    30    1
    44     3     2    1
    45    57    56   ar
    46     5     2    1
    47     5     7    1
    48     5     6    1
    49    30    29    1
    50     2     1    1
    51    14    12    1
    52    53    52    2
    53    47    45   ar
    54    47    49   ar
    55    13    12    1
    56    12     9    1
    57    56    55    1
    58    56    58   ar
    59    29    28    1
    60    45    44   ar
    61    49    48   ar
    62    22    20    1
    63    52    51    1
    64    20    19    1
    65    55    54    1
    66    54    51    1
    67    44    43    1
    68    44    46   ar
    69    48    46   ar
    70    21    19    1
    71    43    40    1
    72    28    27    1
    73    19    16    1
    74    51    50    1
    75     9     8    1
    76     9    10    1
    77    50    41   am
    78    11    10    2
    79    27    24    1
    80    40    41    1
    81    40    39    1
    82    41    42    2
    83    16    15    1
    84    16    17    1
    85    24    23    1
    86    24    25    1
    87    17    18    2
    88    25    26    2
