@<TRIPOS>MOLECULE
tmp/5ts8A01.pdb
 97 92 0 0 0
SMALL
GASTEIGER

@<TRIPOS>ATOM
      1  N          9.9500   -1.2690   41.8900 N.3    20  TYR20      -0.1241
      2  CA        10.1330   -0.0830   42.7330 C.3    20  TYR20       0.1605
      3  C          9.1190    0.0680   43.8630 C.2    20  TYR20       0.2264
      4  O          9.4110    0.7070   44.8530 O.2    20  TYR20      -0.2867
      5  CB        10.1140    1.2000   41.9180 C.3    20  TYR20       0.0534
      6  CG         8.9050    1.3810   41.0310 C.ar   20  TYR20      -0.0201
      7  CD1        7.7260    2.0010   41.4890 C.ar   20  TYR20      -0.0009
      8  CD2        8.9430    0.9380   39.7450 C.ar   20  TYR20      -0.0009
      9  CE1        6.6410    2.1390   40.6210 C.ar   20  TYR20       0.0417
     10  CE2        7.8870    1.1090   38.8780 C.ar   20  TYR20       0.0417
     11  CZ         6.7440    1.6980   39.3170 C.ar   20  TYR20       0.1957
     12  OH         5.7300    1.8270   38.3460 O.3    20  TYR20      -0.2866
     13  N          4.0320    5.3450   45.1210 N.3    70  LYS70      -0.1245
     14  CA         4.5080    4.5500   43.9780 C.3    70  LYS70       0.1561
     15  C          5.3940    5.3890   43.0000 C.2    70  LYS70       0.2260
     16  O          6.4530    4.9390   42.5840 O.2    70  LYS70      -0.2867
     17  CB         3.2740    3.9400   43.2860 C.3    70  LYS70       0.0271
     18  CG         3.4980    3.2960   41.9370 C.3    70  LYS70       0.0035
     19  CD         2.3100    2.4290   41.5170 C.3    70  LYS70       0.0206
     20  CE         2.6490    1.5650   40.3090 C.3    70  LYS70       0.1093
     21  NZ         1.6440    0.4890   40.0970 N.3    70  LYS70      -0.1314
     22  N          9.3480    5.1960   42.3840 N.3    74  ARG74      -0.1245
     23  CA         9.8110    4.9780   40.9950 C.3    74  ARG74       0.1563
     24  C         10.9490    5.9330   40.6450 C.2    74  ARG74       0.2260
     25  O         11.9810    5.5100   40.1390 O.2    74  ARG74      -0.2867
     26  CB         8.6890    5.1240   40.0240 C.3    74  ARG74       0.0307
     27  CG         9.0330    4.7220   38.5900 C.3    74  ARG74       0.0489
     28  CD         7.8410    4.8720   37.6890 C.3    74  ARG74       0.2205
     29  NE         7.4710    6.2630   37.5090 N.pl3  74  ARG74      -0.0865
     30  CZ         6.4020    6.6720   36.8290 C.cat  74  ARG74       0.5346
     31  NH1        5.5360    5.7890   36.3160 N.pl3  74  ARG74       0.1354
     32  NH2        6.1930    7.9710   36.6590 N.pl3  74  ARG74       0.1354
     33  N         11.1170    9.4480   29.0170 N.3   149  ARG149     -0.1245
     34  CA         9.7490    9.8760   28.6670 C.3   149  ARG149      0.1563
     35  C          9.4530   11.3280   28.8410 C.2   149  ARG149      0.2260
     36  O          8.2950   11.6860   28.7750 O.2   149  ARG149     -0.2867
     37  CB         8.6790    9.0420   29.4150 C.3   149  ARG149      0.0307
     38  CG         8.9130    7.5170   29.3130 C.3   149  ARG149      0.0489
     39  CD         7.6440    6.7170   29.5970 C.3   149  ARG149      0.2205
     40  NE         7.1820    6.9830   30.9450 N.pl3 149  ARG149     -0.0865
     41  CZ         6.0900    6.4640   31.5120 C.cat 149  ARG149      0.5346
     42  NH1        5.7740    6.7620   32.7820 N.pl3 149  ARG149      0.1354
     43  NH2        5.3570    5.6110   30.8500 N.pl3 149  ARG149      0.1354
     44  N         10.2480    5.4330   33.2790 N.3   174  GLU174     -0.1245
     45  CA         9.7290    4.0910   33.6010 C.3   174  GLU174      0.1567
     46  C         10.6940    3.0110   33.1820 C.2   174  GLU174      0.2260
     47  O         11.5440    3.2100   32.3110 O.2   174  GLU174     -0.2867
     48  CB         8.4040    3.8270   32.8550 C.3   174  GLU174      0.0388
     49  CG         7.1620    3.7860   33.6620 C.3   174  GLU174      0.1160
     50  CD         7.1100    2.7890   34.8010 C.2   174  GLU174      0.3649
     51  OE1        6.0750    2.8520   35.5420 O.co2 174  GLU174     -0.2457
     52  OE2        8.0360    2.0050   35.0780 O.co2 174  GLU174     -0.2457
     53  N          4.7060   -4.6010   27.7660 N.3   180  LYS180     -0.1231
     54  CA         3.9320   -3.7800   28.7130 C.3   180  LYS180      0.1693
     55  C          3.1470   -2.6700   27.9920 C.2   180  LYS180      0.2592
     56  O          3.6760   -1.9780   27.1280 O.2   180  LYS180     -0.2718
     57  CB         4.8210   -3.1740   29.7860 C.3   180  LYS180      0.0285
     58  CG         4.0570   -2.3490   30.7840 C.3   180  LYS180      0.0035
     59  CD         4.8220   -2.0840   32.0550 C.3   180  LYS180      0.0206
     60  CE         4.0860   -1.0990   32.9470 C.3   180  LYS180      0.1093
     61  NZ         4.6370   -1.0810   34.3080 N.3   180  LYS180     -0.1314
     62  N          1.8740   -2.4970   28.3620 N.am  181  GLU181     -0.1966
     63  CA         1.0640   -1.3670   27.8800 C.3   181  GLU181      0.1733
     64  C          1.2060   -0.2200   28.8470 C.2   181  GLU181      0.2616
     65  O          0.7860   -0.3010   30.0250 O.2   181  GLU181     -0.2715
     66  CB        -0.4180   -1.7840   27.6810 C.3   181  GLU181      0.0429
     67  CG        -0.5650   -2.8030   26.5820 C.3   181  GLU181      0.1163
     68  CD        -1.9930   -3.1200   26.2390 C.2   181  GLU181      0.3649
     69  OE1       -2.7290   -3.5820   27.0950 O.co2 181  GLU181     -0.2457
     70  OE2       -2.3800   -2.8780   25.0840 O.co2 181  GLU181     -0.2457
     71  N          1.8370    0.8640   28.3920 N.am  182  TYR182     -0.1960
     72  CA         2.0750    2.0460   29.1850 C.3   182  TYR182      0.1771
     73  C          1.0210    3.1140   29.0070 C.2   182  TYR182      0.2619
     74  O          0.2680    3.0900   28.0260 O.2   182  TYR182     -0.2715
     75  CB         3.4670    2.6550   28.8430 C.3   182  TYR182      0.0574
     76  CG         4.6270    1.7550   29.1800 C.ar  182  TYR182     -0.0198
     77  CD1        5.1540    1.7620   30.4400 C.ar  182  TYR182     -0.0009
     78  CD2        5.1500    0.8930   28.2420 C.ar  182  TYR182     -0.0009
     79  CE1        6.1890    0.9160   30.8120 C.ar  182  TYR182      0.0417
     80  CE2        6.2160    0.0550   28.5720 C.ar  182  TYR182      0.0417
     81  CZ         6.7110    0.0740   29.8660 C.ar  182  TYR182      0.1957
     82  OH         7.7100   -0.8050   30.2480 O.3   182  TYR182     -0.2866
     83  N          0.9880    4.0340   29.9620 N.am  183  ASN183     -0.1972
     84  CA         0.1680    5.2540   29.8390 C.3   183  ASN183      0.1688
     85  C          0.7700    6.1100   28.7300 C.2   183  ASN183      0.2292
     86  O          1.9870    6.3190   28.6940 O.2   183  ASN183     -0.2864
     87  CB         0.1510    6.0020   31.1750 C.3   183  ASN183      0.1181
     88  CG        -1.0130    6.9820   31.3020 C.2   183  ASN183      0.2629
     89  OD1       -1.3430    7.6830   30.3610 O.2   183  ASN183     -0.2716
     90  ND2       -1.6070    7.0610   32.4990 N.am  183  ASN183     -0.0877
     91  N          2.3410   10.9160   28.9090 N.3   186  VAL186     -0.1245
     92  CA         3.6970   11.1600   29.3870 C.3   186  VAL186      0.1561
     93  C          4.3480   12.1460   28.4380 C.2   186  VAL186      0.2260
     94  O          3.7630   12.4850   27.3850 O.2   186  VAL186     -0.2867
     95  CB         4.5050    9.8580   29.4890 C.3   186  VAL186      0.0252
     96  CG1        3.8140    8.8940   30.4500 C.3   186  VAL186      0.0019
     97  CG2        4.6940    9.2130   28.1220 C.3   186  VAL186      0.0019
@<TRIPOS>BOND
     1    70    68   ar
     2    68    67    1
     3    68    69   ar
     4    67    66    1
     5    56    55    2
     6    94    93    2
     7    66    63    1
     8    53    54    1
     9    63    62    1
    10    63    64    1
    11    55    62   am
    12    55    54    1
    13    74    73    2
    14    97    95    1
    15    78    80   ar
    16    78    76   ar
    17    71    64   am
    18    71    72    1
    19    93    92    1
    20    80    81   ar
    21    34    35    1
    22    34    33    1
    23    34    37    1
    24    86    85    2
    25    54    57    1
    26    85    84    1
    27    36    35    2
    28    75    76    1
    29    75    72    1
    30    64    65    2
    31    91    92    1
    32    73    72    1
    33    73    83   am
    34    76    77   ar
    35    38    37    1
    36    38    39    1
    37    92    95    1
    38    95    96    1
    39    39    40    1
    40    57    58    1
    41    84    83    1
    42    84    87    1
    43    81    82    1
    44    81    79   ar
    45    89    88    2
    46    77    79   ar
    47    58    59    1
    48    43    41    1
    49    40    41    2
    50    87    88    1
    51    88    90   am
    52    41    42    1
    53    59    60    1
    54    47    46    2
    55    48    45    1
    56    48    49    1
    57    60    61    1
    58    46    45    1
    59    44    45    1
    60    49    50    1
    61    50    52   ar
    62    50    51   ar
    63    31    30    1
    64    32    30    1
    65    30    29    2
    66    29    28    1
    67    28    27    1
    68    12    11    1
    69    27    26    1
    70    10    11   ar
    71    10     8   ar
    72    11     9   ar
    73     8     6   ar
    74    26    23    1
    75    21    20    1
    76    25    24    2
    77    20    19    1
    78     9     7   ar
    79    24    23    1
    80    23    22    1
    81     6     7   ar
    82     6     5    1
    83    19    18    1
    84     1     2    1
    85     5     2    1
    86    18    17    1
    87    16    15    2
    88     2     3    1
    89    15    14    1
    90    17    14    1
    91     3     4    2
    92    14    13    1
