@<TRIPOS>MOLECULE
tmp/5tshC00.pdb
 182 171 0 0 0
SMALL
GASTEIGER

@<TRIPOS>ATOM
      1  N        136.0940  -35.7650   72.0540 N.3    21  SER21      -0.1217
      2  CA       134.9420  -34.8740   72.0570 C.3    21  SER21       0.1889
      3  C        133.8640  -35.2810   71.0620 C.2    21  SER21       0.2288
      4  O        132.6960  -34.9310   71.2650 O.2    21  SER21      -0.2866
      5  CB       135.3810  -33.4350   71.7580 C.3    21  SER21       0.2089
      6  OG       136.0390  -33.3510   70.5050 O.3    21  SER21      -0.2183
      7  N        128.3100  -36.4270   69.6460 N.3   103  ARG103     -0.1245
      8  CA       128.9850  -35.3140   70.3020 C.3   103  ARG103      0.1563
      9  C        128.8320  -35.4770   71.8090 C.2   103  ARG103      0.2260
     10  O        127.7170  -35.4020   72.3370 O.2   103  ARG103     -0.2867
     11  CB       128.4090  -33.9830   69.8290 C.3   103  ARG103      0.0307
     12  CG       128.9440  -32.7680   70.5640 C.3   103  ARG103      0.0489
     13  CD       130.4540  -32.7140   70.4930 C.3   103  ARG103      0.2205
     14  NE       130.9540  -31.3440   70.5160 N.pl3 103  ARG103     -0.0865
     15  CZ       130.9750  -30.5430   69.4550 C.cat 103  ARG103      0.5346
     16  NH1      130.5160  -30.9760   68.2850 N.pl3 103  ARG103      0.1354
     17  NH2      131.4500  -29.3090   69.5610 N.pl3 103  ARG103      0.1354
     18  N        129.9090  -33.2280   78.2440 N.3   106  ASP106     -0.1239
     19  CA       130.3680  -33.5050   79.5970 C.3   106  ASP106      0.1674
     20  C        130.6720  -32.1990   80.3140 C.2   106  ASP106      0.2266
     21  O        131.4370  -31.3720   79.8080 O.2   106  ASP106     -0.2867
     22  CB       131.6120  -34.3970   79.5900 C.3   106  ASP106      0.1410
     23  CG       132.8420  -33.7830   78.9850 C.2   106  ASP106      0.3668
     24  OD1      132.7190  -32.7530   78.2500 O.co2 106  ASP106     -0.2456
     25  OD2      133.9970  -34.1440   79.2000 O.co2 106  ASP106     -0.2456
     26  N        138.2570  -25.6720   82.4450 N.3   109  GLN109     -0.1245
     27  CA       137.9030  -25.7000   83.8580 C.3   109  GLN109      0.1566
     28  C        137.2120  -24.4060   84.2700 C.2   109  GLN109      0.2260
     29  O        137.2970  -23.3980   83.5720 O.2   109  GLN109     -0.2867
     30  CB       139.1460  -25.9280   84.7220 C.3   109  GLN109      0.0367
     31  CG       139.8450  -27.2750   84.5500 C.3   109  GLN109      0.0905
     32  CD       138.9280  -28.4380   84.8270 C.2   109  GLN109      0.2608
     33  OE1      138.2940  -28.4670   85.8990 O.2   109  GLN109     -0.2717
     34  NE2      138.7400  -29.3050   83.8820 N.am  109  GLN109     -0.0878
     35  N        143.5350  -21.6950   84.9030 N.3   114  LYS114     -0.1231
     36  CA       143.8610  -22.9330   84.2060 C.3   114  LYS114      0.1693
     37  C        143.5320  -22.8960   82.7170 C.2   114  LYS114      0.2591
     38  O        143.6880  -23.9170   82.0400 O.2   114  LYS114     -0.2718
     39  CB       143.1320  -24.1130   84.8610 C.3   114  LYS114      0.0285
     40  CG       143.4830  -24.3270   86.3350 C.3   114  LYS114      0.0035
     41  CD       142.8270  -25.6140   86.8520 C.3   114  LYS114      0.0206
     42  CE       142.5370  -25.5060   88.3390 C.3   114  LYS114      0.1093
     43  NZ       141.7540  -26.6920   88.7940 N.3   114  LYS114     -0.1314
     44  N        143.0960  -21.7540   82.1880 N.am  115  LEU115     -0.1980
     45  CA       142.6790  -21.6830   80.7930 C.3   115  LEU115      0.1596
     46  C        143.7960  -21.2700   79.8460 C.2   115  LEU115      0.2287
     47  O        143.6990  -21.5400   78.6430 O.2   115  LEU115     -0.2864
     48  CB       141.5020  -20.7160   80.6430 C.3   115  LEU115      0.0297
     49  CG       140.2420  -21.1670   81.3830 C.3   115  LEU115      0.0022
     50  CD1      139.1360  -20.1340   81.2600 C.3   115  LEU115      0.0001
     51  CD2      139.7820  -22.5210   80.8620 C.3   115  LEU115      0.0001
     52  N        134.3630  -21.5380   65.7460 N.3   142  THR142     -0.1203
     53  CA       133.6950  -22.5830   66.5100 C.3   142  THR142      0.1994
     54  C        134.7260  -23.5360   67.1060 C.2   142  THR142      0.2618
     55  O        135.6900  -23.9280   66.4410 O.2   142  THR142     -0.2717
     56  CB       132.6970  -23.3410   65.6280 C.3   142  THR142      0.1784
     57  OG1      132.0560  -24.3650   66.3990 O.3   142  THR142     -0.2211
     58  CG2      133.3880  -23.9740   64.4220 C.3   142  THR142      0.0376
     59  N        134.5400  -23.8720   68.3790 N.am  143  GLY143     -0.1942
     60  CA       135.4590  -24.7530   69.0700 C.3   143  GLY143      0.2014
     61  C        136.7080  -24.1000   69.6130 C.2   143  GLY143      0.2640
     62  O        137.6730  -24.8040   69.9220 O.2   143  GLY143     -0.2714
     63  N        136.7280  -22.7750   69.7480 N.am  144  SER144     -0.1935
     64  CA       137.9110  -22.0670   70.2220 C.3   144  SER144      0.2055
     65  C        137.8800  -21.7830   71.7180 C.2   144  SER144      0.2644
     66  O        138.8160  -21.1640   72.2350 O.2   144  SER144     -0.2714
     67  CB       138.0860  -20.7530   69.4510 C.3   144  SER144      0.2130
     68  OG       137.0140  -19.8610   69.7040 O.3   144  SER144     -0.2179
     69  N        136.8370  -22.2070   72.4210 N.am  145  GLY145     -0.1939
     70  CA       136.7590  -22.0370   73.8570 C.3   145  GLY145      0.2014
     71  C        135.9900  -20.8270   74.3440 C.2   145  GLY145      0.2639
     72  O        136.1760  -20.4280   75.5010 O.2   145  GLY145     -0.2714
     73  N        135.1300  -20.2370   73.5100 N.am  146  LYS146     -0.1963
     74  CA       134.4440  -19.0070   73.8980 C.3   146  LYS146      0.1728
     75  C        133.4650  -19.2440   75.0430 C.2   146  LYS146      0.2617
     76  O        133.3960  -18.4410   75.9820 O.2   146  LYS146     -0.2715
     77  CB       133.7250  -18.4030   72.6920 C.3   146  LYS146      0.0311
     78  CG       134.6510  -18.0100   71.5500 C.3   146  LYS146      0.0038
     79  CD       133.8870  -17.3280   70.4270 C.3   146  LYS146      0.0206
     80  CE       132.8140  -18.2390   69.8510 C.3   146  LYS146      0.1093
     81  NZ       133.3890  -19.4880   69.2810 N.3   146  LYS146     -0.1314
     82  N        132.7010  -20.3370   74.9880 N.am  147  THR147     -0.1937
     83  CA       131.7210  -20.6010   76.0370 C.3   147  THR147      0.2028
     84  C        132.4000  -20.8700   77.3750 C.2   147  THR147      0.2642
     85  O        131.9340  -20.3980   78.4190 O.2   147  THR147     -0.2714
     86  CB       130.8260  -21.7760   75.6380 C.3   147  THR147      0.1808
     87  OG1      130.0690  -21.4250   74.4730 O.3   147  THR147     -0.2208
     88  CG2      129.8660  -22.1350   76.7680 C.3   147  THR147      0.0379
     89  N        133.5080  -21.6160   77.3630 N.am  148  VAL148     -0.1963
     90  CA       134.2330  -21.8930   78.6010 C.3   148  VAL148      0.1727
     91  C        134.7640  -20.6020   79.2110 C.2   148  VAL148      0.2616
     92  O        134.7060  -20.4030   80.4310 O.2   148  VAL148     -0.2715
     93  CB       135.3630  -22.9070   78.3400 C.3   148  VAL148      0.0290
     94  CG1      136.2830  -23.0100   79.5470 C.3   148  VAL148      0.0023
     95  CG2      134.7790  -24.2670   77.9900 C.3   148  VAL148      0.0023
     96  N        135.2840  -19.7000   78.3740 N.am  149  SER149     -0.1950
     97  CA       135.7930  -18.4310   78.8850 C.3   149  SER149      0.1924
     98  C        134.6760  -17.5930   79.4960 C.2   149  SER149      0.2314
     99  O        134.8750  -16.9340   80.5230 O.2   149  SER149     -0.2863
    100  CB       136.4980  -17.6570   77.7710 C.3   149  SER149      0.2116
    101  OG       137.7020  -18.2980   77.3810 O.3   149  SER149     -0.2180
    102  N        124.4580  -24.8930   78.1610 N.3   172  GLU172     -0.1245
    103  CA       125.4100  -25.9960   78.1690 C.3   172  GLU172      0.1567
    104  C        125.8060  -26.4580   79.5640 C.2   172  GLU172      0.2260
    105  O        126.3110  -27.5780   79.7040 O.2   172  GLU172     -0.2867
    106  CB       126.6630  -25.6090   77.3740 C.3   172  GLU172      0.0388
    107  CG       126.4260  -25.6160   75.8700 C.3   172  GLU172      0.1160
    108  CD       127.2640  -24.5910   75.1290 C.2   172  GLU172      0.3649
    109  OE1      128.3620  -24.9490   74.6500 O.co2 172  GLU172     -0.2457
    110  OE2      126.8210  -23.4260   75.0290 O.co2 172  GLU172     -0.2457
    111  N        125.4380  -15.5020   71.4500 N.3   210  GLU210     -0.1245
    112  CA       126.2150  -14.9670   70.3440 C.3   210  GLU210      0.1567
    113  C        125.4410  -13.8310   69.6940 C.2   210  GLU210      0.2260
    114  O        124.2100  -13.7770   69.7600 O.2   210  GLU210     -0.2867
    115  CB       126.5680  -16.0510   69.3130 C.3   210  GLU210      0.0388
    116  CG       125.4300  -16.9710   68.9130 C.3   210  GLU210      0.1160
    117  CD       125.8760  -18.0550   67.9390 C.2   210  GLU210      0.3649
    118  OE1      126.1200  -19.1980   68.3840 O.co2 210  GLU210     -0.2457
    119  OE2      125.9840  -17.7590   66.7280 O.co2 210  GLU210     -0.2457
    120  N        131.7510  -14.2820   65.7800 N.3   235  HIS235     -0.1241
    121  CA       132.6390  -15.1060   64.9640 C.3   235  HIS235      0.1621
    122  C        133.4900  -14.1800   64.1030 C.2   235  HIS235      0.2264
    123  O        133.1800  -13.8750   62.9480 O.2   235  HIS235     -0.2867
    124  CB       131.8440  -16.1000   64.1290 C.3   235  HIS235      0.0745
    125  CG       131.2690  -17.2310   64.9240 C.ar  235  HIS235      0.0817
    126  ND1      129.9140  -17.4560   65.0270 N.ar  235  HIS235     -0.2268
    127  CD2      131.8680  -18.1970   65.6610 C.ar  235  HIS235      0.1154
    128  CE1      129.7020  -18.5150   65.7890 C.ar  235  HIS235      0.1986
    129  NE2      130.8710  -18.9830   66.1870 N.ar  235  HIS235     -0.2212
    130  N        142.3570  -22.4890   70.4060 N.3   268  LEU268     -0.1245
    131  CA       142.7950  -23.6060   71.2290 C.3   268  LEU268      0.1561
    132  C        143.9170  -24.3510   70.5200 C.2   268  LEU268      0.2260
    133  O        143.7840  -24.7140   69.3460 O.2   268  LEU268     -0.2867
    134  CB       141.6390  -24.5600   71.5320 C.3   268  LEU268      0.0270
    135  CG       140.5500  -24.0330   72.4670 C.3   268  LEU268      0.0019
    136  CD1      139.6000  -25.1520   72.8610 C.3   268  LEU268      0.0001
    137  CD2      141.1630  -23.3800   73.6950 C.3   268  LEU268      0.0001
    138  N        148.4510  -29.2220   73.9370 N.3   271  ARG271     -0.1245
    139  CA       149.6160  -29.2270   74.8080 C.3   271  ARG271      0.1563
    140  C        150.4770  -30.4470   74.5190 C.2   271  ARG271      0.2260
    141  O        149.9610  -31.5250   74.2130 O.2   271  ARG271     -0.2867
    142  CB       149.2010  -29.2460   76.2780 C.3   271  ARG271      0.0307
    143  CG       148.1800  -28.2060   76.6700 C.3   271  ARG271      0.0489
    144  CD       147.5170  -28.6050   77.9750 C.3   271  ARG271      0.2205
    145  NE       146.7670  -27.5060   78.5690 N.pl3 271  ARG271     -0.0865
    146  CZ       147.2730  -26.6520   79.4520 C.cat 271  ARG271      0.5346
    147  NH1      148.5340  -26.7710   79.8460 N.pl3 271  ARG271      0.1354
    148  NH2      146.5190  -25.6790   79.9430 N.pl3 271  ARG271      0.1354
    149  N        144.5230  -29.3820   75.8280 N.3   319  ARG319     -0.1231
    150  CA       144.7030  -28.1840   75.0260 C.3   319  ARG319      0.1694
    151  C        144.9100  -26.9850   75.9400 C.2   319  ARG319      0.2592
    152  O        144.6940  -27.0480   77.1530 O.2   319  ARG319     -0.2718
    153  CB       143.5160  -27.9610   74.0800 C.3   319  ARG319      0.0321
    154  CG       143.4950  -28.9280   72.9050 C.3   319  ARG319      0.0489
    155  CD       142.3510  -28.6450   71.9490 C.3   319  ARG319      0.2205
    156  NE       141.0560  -29.0110   72.5140 N.pl3 319  ARG319     -0.0865
    157  CZ       139.8990  -28.8530   71.8800 C.cat 319  ARG319      0.5346
    158  NH1      139.8780  -28.3340   70.6610 N.pl3 319  ARG319      0.1354
    159  NH2      138.7650  -29.2110   72.4620 N.pl3 319  ARG319      0.1354
    160  N        145.3600  -25.8880   75.3340 N.am  320  VAL320     -0.1966
    161  CA       145.5740  -24.6240   76.0220 C.3   320  VAL320      0.1727
    162  C        145.1630  -23.5110   75.0680 C.2   320  VAL320      0.2616
    163  O        145.1850  -23.6760   73.8450 O.2   320  VAL320     -0.2715
    164  CB       147.0420  -24.4580   76.4860 C.3   320  VAL320      0.0290
    165  CG1      147.9670  -24.2600   75.2930 C.3   320  VAL320      0.0023
    166  CG2      147.1800  -23.3150   77.4860 C.3   320  VAL320      0.0023
    167  N        144.7650  -22.3780   75.6330 N.am  321  GLY321     -0.1955
    168  CA       144.2670  -21.2590   74.8510 C.3   321  GLY321      0.1869
    169  C        145.3500  -20.2330   74.5620 C.2   321  GLY321      0.2309
    170  O        146.1380  -19.8790   75.4400 O.2   321  GLY321     -0.2863
    171  N        145.5020  -16.4500   73.7340 N.3   323  TYR323     -0.1241
    172  CA       144.5760  -15.3430   73.9270 C.3   323  TYR323      0.1605
    173  C        145.1860  -14.0200   73.4880 C.2   323  TYR323      0.2264
    174  O        146.3480  -13.7240   73.7870 O.2   323  TYR323     -0.2867
    175  CB       144.1420  -15.2410   75.3910 C.3   323  TYR323      0.0534
    176  CG       143.4050  -16.4590   75.8840 C.ar  323  TYR323     -0.0201
    177  CD1      142.0450  -16.6110   75.6510 C.ar  323  TYR323     -0.0009
    178  CD2      144.0680  -17.4610   76.5780 C.ar  323  TYR323     -0.0009
    179  CE1      141.3650  -17.7260   76.0990 C.ar  323  TYR323      0.0417
    180  CE2      143.3990  -18.5790   77.0280 C.ar  323  TYR323      0.0417
    181  CZ       142.0470  -18.7060   76.7860 C.ar  323  TYR323      0.1957
    182  OH       141.3730  -19.8170   77.2340 O.3   323  TYR323     -0.2866
@<TRIPOS>BOND
     1   123   122    2
     2   122   121    1
     3   124   125    1
     4   124   121    1
     5    58    56    1
     6   125   126   ar
     7   125   127   ar
     8   121   120    1
     9   126   128   ar
    10    56    57    1
    11    56    53    1
    12   127   129   ar
    13    52    53    1
    14   128   129   ar
    15    55    54    2
    16    53    54    1
    17   119   117   ar
    18    54    59   am
    19   117   118   ar
    20   117   116    1
    21    16    15    1
    22    59    60    1
    23   116   115    1
    24    60    61    1
    25    81    80    1
    26   115   112    1
    27   133   132    2
    28    67    68    1
    29    67    64    1
    30    15    17    1
    31    15    14    2
    32    61    63   am
    33    61    62    2
    34     7     8    1
    35   113   114    2
    36   113   112    1
    37    63    64    1
    38    11     8    1
    39    11    12    1
    40    80    79    1
    41    64    65    1
    42     8     9    1
    43   112   111    1
    44   130   131    1
    45    79    78    1
    46    13    14    1
    47    13    12    1
    48     6     5    1
    49   132   131    1
    50   158   157    1
    51     3     4    2
    52     3     2    1
    53   131   134    1
    54   134   135    1
    55    78    77    1
    56    65    66    2
    57    65    69   am
    58     5     2    1
    59     9    10    2
    60   157   159    1
    61   157   156    2
    62   155   156    1
    63   155   154    1
    64     1     2    1
    65    69    70    1
    66   135   136    1
    67   135   137    1
    68    77    74    1
    69   154   153    1
    70   173   174    2
    71   173   172    1
    72    73    74    1
    73    73    71   am
    74   171   172    1
    75   163   162    2
    76    70    71    1
    77    74    75    1
    78   172   175    1
    79   138   139    1
    80   153   150    1
    81   141   140    2
    82    71    72    2
    83    87    86    1
    84   140   139    1
    85   169   168    1
    86   169   170    2
    87   109   108   ar
    88   139   142    1
    89   168   167    1
    90    82    75   am
    91    82    83    1
    92   150   149    1
    93   150   151    1
    94   110   108   ar
    95    75    76    2
    96   162   167   am
    97   162   161    1
    98   108   107    1
    99   165   164    1
   100   160   151   am
   101   160   161    1
   102   175   176    1
   103    86    83    1
   104    86    88    1
   105   177   176   ar
   106   177   179   ar
   107   107   106    1
   108   176   178   ar
   109   151   152    2
   110   161   164    1
   111    83    84    1
   112   179   181   ar
   113   142   143    1
   114   164   166    1
   115   178   180   ar
   116   143   144    1
   117   181   180   ar
   118   181   182    1
   119    89    84   am
   120    89    90    1
   121   106   103    1
   122    84    85    2
   123   101   100    1
   124   100    97    1
   125   144   145    1
   126    95    93    1
   127   102   103    1
   128   103   104    1
   129    18    19    1
   130    24    23   ar
   131    93    90    1
   132    93    94    1
   133    96    97    1
   134    96    91   am
   135   145   146    2
   136    90    91    1
   137    47    46    2
   138    97    98    1
   139    23    25   ar
   140    23    22    1
   141    91    92    2
   142   146   147    1
   143   146   148    1
   144    98    99    2
   145   104   105    2
   146    22    19    1
   147    19    20    1
   148    21    20    2
   149    46    45    1
   150    48    45    1
   151    48    49    1
   152    45    44    1
   153    51    49    1
   154    50    49    1
   155    38    37    2
   156    44    37   am
   157    26    27    1
   158    37    36    1
   159    29    28    2
   160    27    28    1
   161    27    30    1
   162    34    32   am
   163    36    39    1
   164    36    35    1
   165    31    30    1
   166    31    32    1
   167    32    33    2
   168    39    40    1
   169    40    41    1
   170    41    42    1
   171    42    43    1
