@<TRIPOS>MOLECULE
tmp/5tshE00.pdb
 185 176 0 0 0
SMALL
GASTEIGER

@<TRIPOS>ATOM
      1  N        104.7620  -17.6850   -6.7420 N.3    19  SER19      -0.1217
      2  CA       105.3590  -18.0640   -5.4690 C.3    19  SER19       0.1889
      3  C        104.3940  -17.9230   -4.3000 C.2    19  SER19       0.2288
      4  O        104.4610  -18.7180   -3.3550 O.2    19  SER19      -0.2866
      5  CB       106.6110  -17.2240   -5.1980 C.3    19  SER19       0.2089
      6  OG       106.2870  -15.8530   -5.0450 O.3    19  SER19      -0.2183
      7  N        101.8840  -19.6410    0.4450 N.3   105  ARG105     -0.1245
      8  CA       103.1200  -19.7900   -0.3060 C.3   105  ARG105      0.1563
      9  C        103.1520  -21.1690   -0.9450 C.2   105  ARG105      0.2260
     10  O        102.9810  -22.1830   -0.2600 O.2   105  ARG105     -0.2867
     11  CB       104.3510  -19.5940    0.5780 C.3   105  ARG105      0.0307
     12  CG       105.6500  -19.9570   -0.1320 C.3   105  ARG105      0.0489
     13  CD       106.8330  -19.1920    0.4250 C.3   105  ARG105      0.2205
     14  NE       106.6790  -17.7510    0.2460 N.pl3 105  ARG105     -0.0865
     15  CZ       107.5310  -16.8450    0.7150 C.cat 105  ARG105      0.5346
     16  NH1      108.6030  -17.2300    1.3940 N.pl3 105  ARG105      0.1354
     17  NH2      107.3100  -15.5540    0.5070 N.pl3 105  ARG105      0.1354
     18  N        109.2440  -27.7710   -8.9880 N.3   111  ASN111     -0.1225
     19  CA       109.7630  -26.4720   -9.3880 C.3   111  ASN111      0.1785
     20  C        111.0050  -26.0680   -8.6070 C.2   111  ASN111      0.2597
     21  O        111.6420  -25.0720   -8.9650 O.2   111  ASN111     -0.2718
     22  CB       108.6810  -25.4020   -9.2250 C.3   111  ASN111      0.1169
     23  CG       109.0350  -24.0440   -9.7930 C.2   111  ASN111      0.2627
     24  OD1      109.6170  -23.9310  -10.8690 O.2   111  ASN111     -0.2716
     25  ND2      108.6700  -23.0020   -9.0700 N.am  111  ASN111     -0.0877
     26  N        111.3630  -26.8070   -7.5600 N.am  112  LEU112     -0.1966
     27  CA       112.5440  -26.4890   -6.7670 C.3   112  LEU112      0.1728
     28  C        113.7850  -27.0430   -7.4570 C.2   112  LEU112      0.2616
     29  O        113.9210  -28.2610   -7.6180 O.2   112  LEU112     -0.2715
     30  CB       112.4090  -27.0590   -5.3560 C.3   112  LEU112      0.0311
     31  CG       113.5490  -26.7460   -4.3840 C.3   112  LEU112      0.0022
     32  CD1      113.6390  -25.2490   -4.1240 C.3   112  LEU112      0.0001
     33  CD2      113.3850  -27.5160   -3.0810 C.3   112  LEU112      0.0001
     34  N        114.6900  -26.1540   -7.8580 N.am  113  GLN113     -0.1977
     35  CA       115.8950  -26.5410   -8.5900 C.3   113  GLN113      0.1601
     36  C        117.0050  -26.8290   -7.5860 C.2   113  GLN113      0.2287
     37  O        117.6190  -25.9100   -7.0380 O.2   113  GLN113     -0.2864
     38  CB       116.3010  -25.4510   -9.5740 C.3   113  GLN113      0.0394
     39  CG       117.4780  -25.8290  -10.4510 C.3   113  GLN113      0.0908
     40  CD       117.2310  -27.1080  -11.2260 C.2   113  GLN113      0.2608
     41  OE1      117.7050  -28.1770  -10.8450 O.2   113  GLN113     -0.2717
     42  NE2      116.4810  -27.0050  -12.3160 N.am  113  GLN113     -0.0878
     43  N        122.5800  -25.9900  -12.3820 N.3   118  LYS118     -0.1231
     44  CA       121.4970  -25.3220  -13.0930 C.3   118  LYS118      0.1693
     45  C        121.0900  -24.0040  -12.4460 C.2   118  LYS118      0.2591
     46  O        120.0890  -23.4080  -12.8570 O.2   118  LYS118     -0.2718
     47  CB       120.2820  -26.2470  -13.1930 C.3   118  LYS118      0.0285
     48  CG       120.4570  -27.3880  -14.1720 C.3   118  LYS118      0.0035
     49  CD       119.3140  -28.3800  -14.0710 C.3   118  LYS118      0.0206
     50  CE       119.4870  -29.5190  -15.0630 C.3   118  LYS118      0.1093
     51  NZ       118.5060  -30.6120  -14.8300 N.3   118  LYS118     -0.1314
     52  N        121.8380  -23.5340  -11.4500 N.am  119  LEU119     -0.1980
     53  CA       121.4950  -22.3040  -10.7500 C.3   119  LEU119      0.1596
     54  C        122.0620  -21.0540  -11.4110 C.2   119  LEU119      0.2287
     55  O        121.6410  -19.9450  -11.0630 O.2   119  LEU119     -0.2864
     56  CB       121.9720  -22.3760   -9.2960 C.3   119  LEU119      0.0297
     57  CG       121.3540  -23.5000   -8.4610 C.3   119  LEU119      0.0022
     58  CD1      121.8800  -23.4630   -7.0350 C.3   119  LEU119      0.0001
     59  CD2      119.8350  -23.4080   -8.4770 C.3   119  LEU119      0.0001
     60  N        116.1610  -10.8400    1.4150 N.3   146  THR146     -0.1203
     61  CA       115.1860  -11.9190    1.4050 C.3   146  THR146      0.1994
     62  C        114.5150  -11.9880    0.0370 C.2   146  THR146      0.2618
     63  O        114.2790  -10.9660   -0.6130 O.2   146  THR146     -0.2717
     64  CB       114.1540  -11.7210    2.5190 C.3   146  THR146      0.1784
     65  OG1      113.2170  -12.8060    2.5110 O.3   146  THR146     -0.2211
     66  CG2      113.4100  -10.4040    2.3480 C.3   146  THR146      0.0376
     67  N        114.2450  -13.2090   -0.4160 N.am  147  GLY147     -0.1942
     68  CA       113.7080  -13.4070   -1.7460 C.3   147  GLY147      0.2014
     69  C        114.7130  -13.3070   -2.8700 C.2   147  GLY147      0.2640
     70  O        114.3260  -13.0100   -4.0030 O.2   147  GLY147     -0.2714
     71  N        115.9970  -13.5460   -2.5990 N.am  148  SER148     -0.1935
     72  CA       117.0360  -13.4780   -3.6190 C.3   148  SER148      0.2055
     73  C        117.5910  -14.8500   -3.9850 C.2   148  SER148      0.2644
     74  O        118.6370  -14.9310   -4.6380 O.2   148  SER148     -0.2714
     75  CB       118.1740  -12.5600   -3.1630 C.3   148  SER148      0.2130
     76  OG       118.8200  -13.0680   -2.0090 O.3   148  SER148     -0.2179
     77  N        116.9180  -15.9250   -3.5840 N.am  149  GLY149     -0.1939
     78  CA       117.3730  -17.2670   -3.8910 C.3   149  GLY149      0.2014
     79  C        118.3990  -17.8340   -2.9380 C.2   149  GLY149      0.2639
     80  O        119.0880  -18.7970   -3.2970 O.2   149  GLY149     -0.2714
     81  N        118.5210  -17.2720   -1.7330 N.am  150  LYS150     -0.1963
     82  CA       119.5400  -17.7300   -0.7950 C.3   150  LYS150      0.1728
     83  C        119.2760  -19.1600   -0.3390 C.2   150  LYS150      0.2617
     84  O        120.1880  -19.9940   -0.3210 O.2   150  LYS150     -0.2715
     85  CB       119.6060  -16.7930    0.4120 C.3   150  LYS150      0.0311
     86  CG       120.0410  -15.3740    0.0890 C.3   150  LYS150      0.0038
     87  CD       120.2930  -14.5790    1.3620 C.3   150  LYS150      0.0206
     88  CE       119.0490  -14.5230    2.2320 C.3   150  LYS150      0.1093
     89  NZ       117.9150  -13.8520    1.5340 N.3   150  LYS150     -0.1314
     90  N        118.0320  -19.4630    0.0410 N.am  151  THR151     -0.1937
     91  CA       117.7390  -20.7870    0.5750 C.3   151  THR151      0.2028
     92  C        117.7690  -21.8680   -0.4980 C.2   151  THR151      0.2642
     93  O        117.9620  -23.0410   -0.1660 O.2   151  THR151     -0.2714
     94  CB       116.3850  -20.7940    1.2890 C.3   151  THR151      0.1808
     95  OG1      115.3590  -20.3550    0.3920 O.3   151  THR151     -0.2208
     96  CG2      116.4230  -19.8810    2.5060 C.3   151  THR151      0.0379
     97  N        117.5890  -21.5060   -1.7700 N.am  152  VAL152     -0.1977
     98  CA       117.7800  -22.4790   -2.8410 C.3   152  VAL152      0.1596
     99  C        119.2490  -22.8610   -2.9510 C.2   152  VAL152      0.2287
    100  O        119.5880  -24.0380   -3.1190 O.2   152  VAL152     -0.2864
    101  CB       117.2330  -21.9320   -4.1710 C.3   152  VAL152      0.0276
    102  CG1      117.5880  -22.8650   -5.3240 C.3   152  VAL152      0.0022
    103  CG2      115.7360  -21.7580   -4.0770 C.3   152  VAL152      0.0022
    104  N        110.9570  -24.0570    4.8170 N.3   176  GLU176     -0.1231
    105  CA       110.2140  -24.0030    3.5610 C.3   176  GLU176      0.1699
    106  C        109.9450  -25.3970    3.0030 C.2   176  GLU176      0.2592
    107  O        108.7910  -25.7630    2.7580 O.2   176  GLU176     -0.2718
    108  CB       110.9730  -23.1500    2.5400 C.3   176  GLU176      0.0402
    109  CG       110.8940  -21.6520    2.7990 C.3   176  GLU176      0.1161
    110  CD       110.0200  -20.9350    1.7840 C.2   176  GLU176      0.3649
    111  OE1      109.5280  -19.8300    2.0970 O.co2 176  GLU176     -0.2457
    112  OE2      109.8280  -21.4800    0.6740 O.co2 176  GLU176     -0.2457
    113  N        110.9990  -26.1820    2.7980 N.am  177  PHE177     -0.1976
    114  CA       110.8850  -27.5560    2.3380 C.3   177  PHE177      0.1639
    115  C        111.5260  -28.4850    3.3590 C.2   177  PHE177      0.2290
    116  O        112.4960  -28.1200    4.0300 O.2   177  PHE177     -0.2864
    117  CB       111.5520  -27.7460    0.9660 C.3   177  PHE177      0.0560
    118  CG       110.9200  -26.9400   -0.1370 C.ar  177  PHE177     -0.0200
    119  CD1      109.9140  -27.4830   -0.9210 C.ar  177  PHE177     -0.0042
    120  CD2      111.3380  -25.6430   -0.3960 C.ar  177  PHE177     -0.0042
    121  CE1      109.3340  -26.7470   -1.9380 C.ar  177  PHE177     -0.0003
    122  CE2      110.7600  -24.9020   -1.4110 C.ar  177  PHE177     -0.0003
    123  CZ       109.7570  -25.4550   -2.1820 C.ar  177  PHE177     -0.0000
    124  N        124.3360  -12.6520   -3.8520 N.3   270  GLN270     -0.1245
    125  CA       123.5110  -12.9440   -5.0110 C.3   270  GLN270      0.1566
    126  C        122.2700  -12.0680   -5.0200 C.2   270  GLN270      0.2260
    127  O        121.7440  -11.6850   -3.9710 O.2   270  GLN270     -0.2867
    128  CB       123.1140  -14.4220   -5.0630 C.3   270  GLN270      0.0367
    129  CG       122.4030  -14.9360   -3.8320 C.3   270  GLN270      0.0905
    130  CD       122.1500  -16.4280   -3.9120 C.2   270  GLN270      0.2608
    131  OE1      123.0170  -17.2340   -3.5830 O.2   270  GLN270     -0.2717
    132  NE2      120.9610  -16.8020   -4.3630 N.am  270  GLN270     -0.0878
    133  N        118.5160  -11.6800   -7.6030 N.3   272  LEU272     -0.1245
    134  CA       117.6800  -12.2820   -8.6340 C.3   272  LEU272      0.1561
    135  C        117.1960  -11.1940   -9.5800 C.2   272  LEU272      0.2260
    136  O        116.5310  -10.2440   -9.1530 O.2   272  LEU272     -0.2867
    137  CB       116.4950  -13.0290   -8.0240 C.3   272  LEU272      0.0270
    138  CG       116.7900  -14.4090   -7.4310 C.3   272  LEU272      0.0019
    139  CD1      115.5080  -15.0580   -6.9350 C.3   272  LEU272      0.0001
    140  CD2      117.4830  -15.3000   -8.4530 C.3   272  LEU272      0.0001
    141  N        114.2260  -12.7960  -15.9550 N.3   275  ARG275     -0.1245
    142  CA       114.7190  -13.3480  -17.2070 C.3   275  ARG275      0.1563
    143  C        113.8630  -12.8470  -18.3620 C.2   275  ARG275      0.2260
    144  O        112.6320  -12.9050  -18.3000 O.2   275  ARG275     -0.2867
    145  CB       114.7010  -14.8750  -17.1470 C.3   275  ARG275      0.0307
    146  CG       115.1810  -15.5690  -18.4020 C.3   275  ARG275      0.0489
    147  CD       115.0810  -17.0760  -18.2380 C.3   275  ARG275      0.2205
    148  NE       115.8980  -17.5510  -17.1270 N.pl3 275  ARG275     -0.0865
    149  CZ       117.1180  -18.0590  -17.2650 C.cat 275  ARG275      0.5346
    150  NH1      117.7960  -18.4650  -16.1980 N.pl3 275  ARG275      0.1354
    151  NH2      117.6590  -18.1660  -18.4720 N.pl3 275  ARG275      0.1354
    152  N        113.4650  -16.1120  -13.5870 N.3   323  ARG323     -0.1231
    153  CA       114.5100  -15.2380  -13.0800 C.3   323  ARG323      0.1694
    154  C        115.8650  -15.9190  -13.2060 C.2   323  ARG323      0.2592
    155  O        115.9640  -17.1330  -13.4010 O.2   323  ARG323     -0.2718
    156  CB       114.2430  -14.8280  -11.6260 C.3   323  ARG323      0.0321
    157  CG       113.2150  -13.7190  -11.5010 C.3   323  ARG323      0.0489
    158  CD       112.9770  -13.3320  -10.0550 C.3   323  ARG323      0.2205
    159  NE       112.2750  -14.3760   -9.3180 N.pl3 323  ARG323     -0.0865
    160  CZ       111.9140  -14.2730   -8.0430 C.cat 323  ARG323      0.5346
    161  NH1      112.1910  -13.1690   -7.3620 N.pl3 323  ARG323      0.1354
    162  NH2      111.2770  -15.2730   -7.4510 N.pl3 323  ARG323      0.1354
    163  N        116.9120  -15.1050  -13.0970 N.am  324  VAL324     -0.1966
    164  CA       118.2940  -15.5550  -13.2210 C.3   324  VAL324      0.1727
    165  C        119.1060  -14.9030  -12.1100 C.2   324  VAL324      0.2616
    166  O        118.8670  -13.7450  -11.7500 O.2   324  VAL324     -0.2715
    167  CB       118.8720  -15.2220  -14.6150 C.3   324  VAL324      0.0290
    168  CG1      118.6970  -13.7430  -14.9280 C.3   324  VAL324      0.0023
    169  CG2      120.3410  -15.6260  -14.7130 C.3   324  VAL324      0.0023
    170  N        120.0580  -15.6510  -11.5580 N.am  325  GLY325     -0.1955
    171  CA       120.8530  -15.1650  -10.4460 C.3   325  GLY325      0.1869
    172  C        122.1290  -14.4730  -10.9020 C.2   325  GLY325      0.2309
    173  O        122.7970  -14.9150  -11.8350 O.2   325  GLY325     -0.2863
    174  N        125.6980  -13.7200   -9.3830 N.3   327  TYR327     -0.1241
    175  CA       126.4800  -14.2930   -8.2970 C.3   327  TYR327      0.1605
    176  C        127.8330  -13.6090   -8.1590 C.2   327  TYR327      0.2264
    177  O        128.4840  -13.2760   -9.1540 O.2   327  TYR327     -0.2867
    178  CB       126.6900  -15.7960   -8.5040 C.3   327  TYR327      0.0534
    179  CG       125.4090  -16.5950   -8.5140 C.ar  327  TYR327     -0.0201
    180  CD1      124.8820  -17.0780   -9.7030 C.ar  327  TYR327     -0.0009
    181  CD2      124.7210  -16.8580   -7.3360 C.ar  327  TYR327     -0.0009
    182  CE1      123.7080  -17.8070   -9.7200 C.ar  327  TYR327      0.0417
    183  CE2      123.5460  -17.5870   -7.3420 C.ar  327  TYR327      0.0417
    184  CZ       123.0440  -18.0590   -8.5370 C.ar  327  TYR327      0.1957
    185  OH       121.8760  -18.7850   -8.5530 O.3   327  TYR327     -0.2866
@<TRIPOS>BOND
     1   151   149    1
     2   146   147    1
     3   146   145    1
     4   143   144    2
     5   143   142    1
     6   147   148    1
     7   149   148    2
     8   149   150    1
     9   142   145    1
    10   142   141    1
    11    50    51    1
    12    50    49    1
    13   168   167    1
    14   169   167    1
    15   167   164    1
    16    48    49    1
    17    48    47    1
    18   152   153    1
    19   155   154    2
    20   164   163    1
    21   164   165    1
    22   154   163   am
    23   154   153    1
    24    47    44    1
    25    44    45    1
    26    44    43    1
    27   153   156    1
    28    46    45    2
    29    45    52   am
    30    42    40   am
    31   165   166    2
    32   165   170   am
    33   173   172    2
    34   156   157    1
    35   170   171    1
    36   157   158    1
    37    52    53    1
    38    54    55    2
    39    54    53    1
    40    40    41    2
    41    40    39    1
    42   172   171    1
    43    24    23    2
    44    53    56    1
    45    39    38    1
    46   158   159    1
    47    23    22    1
    48    23    25   am
    49   182   180   ar
    50   182   184   ar
    51   180   179   ar
    52   135   136    2
    53   135   134    1
    54    38    35    1
    55    19    22    1
    56    19    18    1
    57    19    20    1
    58   174   175    1
    59   159   160    2
    60    56    57    1
    61   177   176    2
    62    21    20    2
    63   134   137    1
    64   134   133    1
    65    20    26   am
    66    35    34    1
    67    35    36    1
    68   185   184    1
    69   184   183   ar
    70   179   178    1
    71   179   181   ar
    72   178   175    1
    73    59    57    1
    74    57    58    1
    75   140   138    1
    76   175   176    1
    77   160   162    1
    78   160   161    1
    79   137   138    1
    80    34    28   am
    81    29    28    2
    82    36    37    2
    83    26    27    1
    84    28    27    1
    85   138   139    1
    86   183   181   ar
    87    27    30    1
    88     1     2    1
    89     2     5    1
    90     2     3    1
    91    30    31    1
    92   102   101    1
    93     5     6    1
    94   128   125    1
    95   128   129    1
    96   126   125    1
    97   126   127    2
    98   125   124    1
    99    74    73    2
   100    31    32    1
   101    31    33    1
   102   132   130   am
   103     3     4    2
   104   101   103    1
   105   101    98    1
   106    70    69    2
   107    73    72    1
   108    73    77   am
   109   130   129    1
   110   130   131    2
   111    78    77    1
   112    78    79    1
   113    72    75    1
   114    72    71    1
   115    80    79    2
   116    75    76    1
   117   100    99    2
   118    99    98    1
   119    79    81   am
   120    69    71   am
   121    69    68    1
   122    98    97    1
   123   123   121   ar
   124   123   122   ar
   125   121   119   ar
   126    97    92   am
   127    68    67    1
   128    81    82    1
   129   122   120   ar
   130     9     8    1
   131     9    10    2
   132   119   118   ar
   133    82    83    1
   134    82    85    1
   135    63    62    2
   136    92    93    2
   137    92    91    1
   138    67    62   am
   139   120   118   ar
   140    83    84    2
   141    83    90   am
   142     8     7    1
   143     8    11    1
   144   118   117    1
   145    12    13    1
   146    12    11    1
   147    62    61    1
   148    90    91    1
   149    86    85    1
   150    86    87    1
   151    14    13    1
   152    14    15    2
   153    95    94    1
   154    17    15    1
   155    91    94    1
   156   112   110   ar
   157    15    16    1
   158   117   114    1
   159    94    96    1
   160    87    88    1
   161    61    60    1
   162    61    64    1
   163    89    88    1
   164   110   111   ar
   165   110   109    1
   166   114   113    1
   167   114   115    1
   168    66    64    1
   169    65    64    1
   170   108   109    1
   171   108   105    1
   172   107   106    2
   173   113   106   am
   174   106   105    1
   175   115   116    2
   176   105   104    1
