@<TRIPOS>MOLECULE
tmp/5tsoB00.pdb
 83 81 0 0 0
SMALL
GASTEIGER

@<TRIPOS>ATOM
      1  N         21.2700  -14.9890   59.7060 N.3   130  MET130     -0.1230
      2  CA        20.8150  -15.3970   61.0050 C.3   130  MET130      0.1702
      3  C         19.9510  -16.6560   60.9450 C.2   130  MET130      0.2592
      4  O         18.9720  -16.7730   60.1800 O.2   130  MET130     -0.2718
      5  CB        19.9770  -14.2920   61.6620 C.3   130  MET130      0.0401
      6  CG        20.7430  -13.0130   61.9190 C.3   130  MET130      0.0596
      7  SD        22.3020  -13.2430   62.8680 S.3   130  MET130     -0.1393
      8  CE        21.4950  -13.6850   64.4170 C.3   130  MET130      0.0692
      9  N         20.2410  -17.5740   61.8460 N.am  131  GLY131     -0.1957
     10  CA        19.4670  -18.8070   61.9680 C.3   131  GLY131      0.1869
     11  C         20.1210  -19.8790   61.1600 C.2   131  GLY131      0.2309
     12  O         19.6680  -21.0170   61.1960 O.2   131  GLY131     -0.2863
     13  N         25.2040  -17.8410   61.4190 N.3   134  HIS134     -0.1241
     14  CA        25.7830  -16.6980   62.1380 C.3   134  HIS134      0.1621
     15  C         26.8160  -17.0880   63.1850 C.2   134  HIS134      0.2264
     16  O         27.7170  -16.2890   63.5170 O.2   134  HIS134     -0.2867
     17  CB        24.6930  -15.8600   62.8010 C.3   134  HIS134      0.0745
     18  CG        23.8740  -16.6150   63.7770 C.ar  134  HIS134      0.0817
     19  ND1       23.9960  -16.4350   65.1370 N.ar  134  HIS134     -0.2268
     20  CD2       22.9470  -17.5800   63.6040 C.ar  134  HIS134      0.1154
     21  CE1       23.1660  -17.2500   65.7630 C.ar  134  HIS134      0.1986
     22  NE2       22.5180  -17.9570   64.8550 N.ar  134  HIS134     -0.2212
     23  N         13.5500  -23.6810   66.9790 N.3   266  PRO266     -0.2102
     24  CA        14.8340  -22.9900   66.8150 C.3   266  PRO266      0.1504
     25  C         14.8440  -21.8900   65.7380 C.2   266  PRO266      0.2576
     26  O         15.8010  -21.1270   65.7070 O.2   266  PRO266     -0.2718
     27  CB        15.7700  -24.1080   66.3810 C.3   266  PRO266      0.0282
     28  CG        14.8670  -25.0740   65.6450 C.3   266  PRO266      0.0208
     29  CD        13.4690  -24.9180   66.1780 C.3   266  PRO266      0.0893
     30  N         13.8300  -21.8270   64.8460 N.am  267  LEU267     -0.1966
     31  CA        13.7560  -20.6980   63.8540 C.3   267  LEU267      0.1728
     32  C         12.5960  -19.7350   64.1210 C.2   267  LEU267      0.2616
     33  O         12.1690  -18.9530   63.2340 O.2   267  LEU267     -0.2715
     34  CB        13.7840  -21.2330   62.4010 C.3   267  LEU267      0.0311
     35  CG        15.1260  -21.7660   61.9290 C.3   267  LEU267      0.0022
     36  CD1       15.0430  -22.4460   60.5380 C.3   267  LEU267      0.0001
     37  CD2       16.1810  -20.6530   61.9670 C.3   267  LEU267      0.0001
     38  N         12.1160  -19.7300   65.3590 N.am  268  LYS268     -0.1963
     39  CA        11.0870  -18.7830   65.7400 C.3   268  LYS268      0.1728
     40  C         11.5610  -17.3550   65.4730 C.2   268  LYS268      0.2617
     41  O         12.6600  -17.0060   65.8470 O.2   268  LYS268     -0.2715
     42  CB        10.7410  -18.9180   67.2250 C.3   268  LYS268      0.0311
     43  CG         9.6270  -17.9600   67.6280 C.3   268  LYS268      0.0038
     44  CD         8.5120  -18.6700   68.3520 C.3   268  LYS268      0.0206
     45  CE         7.2460  -17.8210   68.4390 C.3   268  LYS268      0.1093
     46  NZ         6.3340  -18.4130   69.4620 N.3   268  LYS268     -0.1314
     47  N         10.7250  -16.5650   64.7900 N.am  269  GLY269     -0.1940
     48  CA        11.0180  -15.1440   64.4820 C.3   269  GLY269      0.2014
     49  C         11.7720  -14.9540   63.1590 C.2   269  GLY269      0.2638
     50  O         11.8620  -13.8330   62.6490 O.2   269  GLY269     -0.2714
     51  N         12.3030  -16.0410   62.6110 N.am  270  ILE270     -0.1977
     52  CA        13.0940  -16.0480   61.3970 C.3   270  ILE270      0.1596
     53  C         12.3640  -16.7520   60.2710 C.2   270  ILE270      0.2287
     54  O         12.1460  -16.1750   59.1700 O.2   270  ILE270     -0.2864
     55  CB        14.4340  -16.6910   61.6820 C.3   270  ILE270      0.0276
     56  CG1       15.1650  -15.7860   62.6710 C.3   270  ILE270      0.0022
     57  CG2       15.2280  -16.9270   60.3850 C.3   270  ILE270      0.0022
     58  CD1       16.6330  -15.6270   62.4200 C.3   270  ILE270      0.0001
     59  N         19.8840   -7.8090   64.2780 N.3   323  ASP323     -0.1239
     60  CA        20.1360   -9.0740   64.9660 C.3   323  ASP323      0.1674
     61  C         21.5780   -9.5050   64.8250 C.2   323  ASP323      0.2266
     62  O         22.1350  -10.0150   65.7870 O.2   323  ASP323     -0.2867
     63  CB        19.2590  -10.2340   64.4080 C.3   323  ASP323      0.1410
     64  CG        17.8020  -10.1150   64.7620 C.2   323  ASP323      0.3668
     65  OD1       17.5010   -9.2980   65.6310 O.co2 323  ASP323     -0.2456
     66  OD2       16.9490  -10.8180   64.1500 O.co2 323  ASP323     -0.2456
     67  N         23.7730   -7.3570   67.0290 N.3   326  VAL326     -0.1231
     68  CA        23.6320   -7.7880   68.4280 C.3   326  VAL326      0.1692
     69  C         24.5040   -9.0450   68.7070 C.2   326  VAL326      0.2592
     70  O         25.2570   -9.1290   69.6610 O.2   326  VAL326     -0.2718
     71  CB        22.1410   -8.0380   68.7410 C.3   326  VAL326      0.0266
     72  CG1       21.9650   -8.6300   70.0930 C.3   326  VAL326      0.0020
     73  CG2       21.4040   -6.7310   68.7190 C.3   326  VAL326      0.0020
     74  N         24.3880  -10.0180   67.8460 N.am  327  HIS327     -0.1976
     75  CA        25.1680  -11.2250   67.9430 C.3   327  HIS327      0.1656
     76  C         26.6460  -10.9220   67.9220 C.2   327  HIS327      0.2291
     77  O         27.3980  -11.4580   68.7310 O.2   327  HIS327     -0.2864
     78  CB        24.8210  -12.1860   66.7950 C.3   327  HIS327      0.0771
     79  CG        25.6870  -13.3910   66.7490 C.ar  327  HIS327      0.0820
     80  ND1       25.5880  -14.4050   67.6780 N.ar  327  HIS327     -0.2267
     81  CD2       26.6740  -13.7510   65.8960 C.ar  327  HIS327      0.1154
     82  CE1       26.4810  -15.3400   67.3980 C.ar  327  HIS327      0.1986
     83  NE2       27.1560  -14.9620   66.3250 N.ar  327  HIS327     -0.2212
@<TRIPOS>BOND
     1    54    53    2
     2     1     2    1
     3     4     3    2
     4    53    52    1
     5    57    55    1
     6    36    35    1
     7     3     2    1
     8     3     9   am
     9     2     5    1
    10    11    12    2
    11    11    10    1
    12    52    55    1
    13    52    51    1
    14    13    14    1
    15     5     6    1
    16    55    56    1
    17     9    10    1
    18     6     7    1
    19    35    37    1
    20    35    34    1
    21    14    17    1
    22    14    15    1
    23    34    31    1
    24    58    56    1
    25    51    49   am
    26    50    49    2
    27    17    18    1
    28     7     8    1
    29    49    48    1
    30    15    16    2
    31    33    32    2
    32    20    18   ar
    33    20    22   ar
    34    18    19   ar
    35    31    32    1
    36    31    30    1
    37    32    38   am
    38    66    64   ar
    39    59    60    1
    40    63    64    1
    41    63    60    1
    42    48    47    1
    43    64    65   ar
    44    47    40   am
    45    61    60    1
    46    61    62    2
    47    30    25   am
    48    22    21   ar
    49    19    21   ar
    50    38    39    1
    51    40    39    1
    52    40    41    2
    53    28    29    1
    54    28    27    1
    55    26    25    2
    56    25    24    1
    57    39    42    1
    58    81    83   ar
    59    81    79   ar
    60    29    23    1
    61    83    82   ar
    62    27    24    1
    63    79    78    1
    64    79    80   ar
    65    78    75    1
    66    24    23    1
    67    67    68    1
    68    42    43    1
    69    82    80   ar
    70    43    44    1
    71    74    75    1
    72    74    69   am
    73    76    75    1
    74    76    77    2
    75    44    45    1
    76    68    69    1
    77    68    71    1
    78    45    46    1
    79    69    70    2
    80    73    71    1
    81    71    72    1
