@<TRIPOS>MOLECULE
tmp/5tspB00.pdb
 154 146 0 0 0
SMALL
GASTEIGER

@<TRIPOS>ATOM
      1  N         21.2680    0.8990   31.5870 N.3    24  ARG24      -0.1231
      2  CA        21.0120   -0.4240   32.1690 C.3    24  ARG24       0.1694
      3  C         20.6190   -1.3900   31.0650 C.2    24  ARG24       0.2591
      4  O         20.2290   -0.9800   29.9710 O.2    24  ARG24      -0.2718
      5  CB        19.8790   -0.3980   33.2040 C.3    24  ARG24       0.0321
      6  CG        20.2390    0.0960   34.6040 C.3    24  ARG24       0.0489
      7  CD        19.3050   -0.4900   35.6400 C.3    24  ARG24       0.2205
      8  NE        19.4780   -1.9370   35.7210 N.pl3  24  ARG24      -0.0865
      9  CZ        18.6820   -2.7590   36.3950 C.cat  24  ARG24       0.5346
     10  NH1       17.6390   -2.2870   37.0610 N.pl3  24  ARG24       0.1354
     11  NH2       18.9310   -4.0610   36.3970 N.pl3  24  ARG24       0.1354
     12  N         20.7180   -2.6760   31.3800 N.am   25  ILE25      -0.1980
     13  CA        20.0780   -3.7740   30.6410 C.3    25  ILE25       0.1595
     14  C         20.8140   -4.1350   29.3560 C.2    25  ILE25       0.2287
     15  O         20.3760   -3.8050   28.2530 O.2    25  ILE25      -0.2864
     16  CB        18.5590   -3.5650   30.3680 C.3    25  ILE25       0.0276
     17  CG1       17.8230   -2.9360   31.5740 C.3    25  ILE25       0.0022
     18  CG2       17.9360   -4.8860   29.9710 C.3    25  ILE25       0.0022
     19  CD1       17.9630   -3.6800   32.8930 C.3    25  ILE25       0.0001
     20  N         18.8960    5.3580   29.8670 N.3    43  ARG43      -0.1245
     21  CA        17.9180    5.7980   30.8530 C.3    43  ARG43       0.1563
     22  C         18.2170    7.2610   31.1730 C.2    43  ARG43       0.2260
     23  O         19.1700    7.5780   31.8880 O.2    43  ARG43      -0.2867
     24  CB        17.9540    4.8810   32.0840 C.3    43  ARG43       0.0307
     25  CG        17.6030    3.4230   31.7350 C.3    43  ARG43       0.0489
     26  CD        17.1470    2.6100   32.9340 C.3    43  ARG43       0.2205
     27  NE        16.6360    1.3090   32.5060 N.pl3  43  ARG43      -0.0865
     28  CZ        15.9820    0.4620   33.2930 C.cat  43  ARG43       0.5346
     29  NH1       15.7900    0.7350   34.5810 N.pl3  43  ARG43       0.1354
     30  NH2       15.5290   -0.6750   32.7900 N.pl3  43  ARG43       0.1354
     31  N         13.2560    2.0390   36.6410 N.3    49  ASP49      -0.1225
     32  CA        12.3980    1.4950   35.5960 C.3    49  ASP49       0.1805
     33  C         11.2710    2.4530   35.2340 C.2    49  ASP49       0.2597
     34  O         10.8250    3.2640   36.0610 O.2    49  ASP49      -0.2718
     35  CB        11.7200    0.1940   36.0440 C.3    49  ASP49       0.1424
     36  CG        12.6530   -0.9970   36.1020 C.2    49  ASP49       0.3668
     37  OD1       12.2070   -2.0170   36.6760 O.co2  49  ASP49      -0.2456
     38  OD2       13.7940   -0.9410   35.5890 O.co2  49  ASP49      -0.2456
     39  N         10.7730    2.3230   34.0110 N.am   50  ALA50      -0.1979
     40  CA         9.4780    2.8800   33.6390 C.3    50  ALA50       0.1597
     41  C          8.4830    2.4800   34.7220 C.2    50  ALA50       0.2287
     42  O          8.5360    1.3510   35.2150 O.2    50  ALA50      -0.2864
     43  CB         9.0490    2.3190   32.2790 C.3    50  ALA50       0.0319
     44  N         12.2010   -0.2910   26.9480 N.3    85  ILE85      -0.1231
     45  CA        12.9390   -0.8860   28.0540 C.3    85  ILE85       0.1692
     46  C         13.0930   -2.3830   27.7950 C.2    85  ILE85       0.2592
     47  O         12.1210   -3.0270   27.3930 O.2    85  ILE85      -0.2718
     48  CB        12.1820   -0.5930   29.4020 C.3    85  ILE85       0.0266
     49  CG1       12.9080   -1.1410   30.6340 C.3    85  ILE85       0.0019
     50  CG2       10.7100   -1.0640   29.3600 C.3    85  ILE85       0.0020
     51  CD1       12.3430   -0.5800   31.9490 C.3    85  ILE85       0.0001
     52  N         14.3120   -2.9040   27.9840 N.am   86  ASP86      -0.1974
     53  CA        14.6430   -4.3410   27.9350 C.3    86  ASP86       0.1709
     54  C         14.7780   -4.8500   26.5050 C.2    86  ASP86       0.2293
     55  O         13.8020   -5.3100   25.9060 O.2    86  ASP86      -0.2864
     56  CB        13.6330   -5.2130   28.7060 C.3    86  ASP86       0.1436
     57  CG        13.6040   -4.9330   30.1880 C.2    86  ASP86       0.3671
     58  OD1       12.5650   -5.2320   30.8180 O.co2  86  ASP86      -0.2456
     59  OD2       14.6020   -4.4210   30.7300 O.co2  86  ASP86      -0.2456
     60  N         10.4620   -3.9050   25.0240 N.3   103  THR103     -0.1218
     61  CA         9.1580   -3.6010   25.5960 C.3   103  THR103      0.1862
     62  C          8.9290   -2.1040   25.5230 C.2   103  THR103      0.2287
     63  O          9.8490   -1.3220   25.7330 O.2   103  THR103     -0.2866
     64  CB         9.0780   -4.0810   27.0520 C.3   103  THR103      0.1770
     65  OG1        9.5230   -5.4430   27.1100 O.3   103  THR103     -0.2211
     66  CG2        7.6510   -3.9830   27.5840 C.3   103  THR103      0.0375
     67  N          6.2450    1.1490   26.7220 N.3   105  PHE105     -0.1241
     68  CA         5.1230    1.6650   27.5170 C.3   105  PHE105      0.1605
     69  C          4.8270    3.1110   27.1420 C.2   105  PHE105      0.2264
     70  O          5.7400    3.9300   27.1070 O.2   105  PHE105     -0.2867
     71  CB         5.4470    1.6920   29.0150 C.3   105  PHE105      0.0534
     72  CG         5.5920    0.3390   29.6550 C.ar  105  PHE105     -0.0203
     73  CD1        4.4720   -0.3980   30.0120 C.ar  105  PHE105     -0.0042
     74  CD2        6.8490   -0.1920   29.9220 C.ar  105  PHE105     -0.0042
     75  CE1        4.6050   -1.6370   30.6280 C.ar  105  PHE105     -0.0003
     76  CE2        6.9820   -1.4350   30.5400 C.ar  105  PHE105     -0.0003
     77  CZ         5.8550   -2.1520   30.8920 C.ar  105  PHE105     -0.0000
     78  N          5.1100   -2.0120   34.6210 N.3   111  PHE111     -0.1241
     79  CA         4.7400   -3.3650   35.0270 C.3   111  PHE111      0.1605
     80  C          3.4900   -3.4130   35.9020 C.2   111  PHE111      0.2264
     81  O          2.5980   -4.2280   35.6810 O.2   111  PHE111     -0.2867
     82  CB         5.9310   -3.9610   35.7790 C.3   111  PHE111      0.0534
     83  CG         5.7220   -5.3660   36.2920 C.ar  111  PHE111     -0.0203
     84  CD1        5.9780   -6.4720   35.4900 C.ar  111  PHE111     -0.0042
     85  CD2        5.3240   -5.5710   37.6000 C.ar  111  PHE111     -0.0042
     86  CE1        5.8210   -7.7600   35.9970 C.ar  111  PHE111     -0.0003
     87  CE2        5.1670   -6.8510   38.1080 C.ar  111  PHE111     -0.0003
     88  CZ         5.4100   -7.9440   37.3030 C.ar  111  PHE111     -0.0000
     89  N          1.0060   -7.5750   31.9300 N.3   218  PHE218     -0.1241
     90  CA         2.3070   -7.2270   31.3700 C.3   218  PHE218      0.1605
     91  C          2.7560   -8.3610   30.4600 C.2   218  PHE218      0.2264
     92  O          2.5800   -9.5320   30.8050 O.2   218  PHE218     -0.2867
     93  CB         3.3070   -7.0450   32.5040 C.3   218  PHE218      0.0534
     94  CG         4.7540   -7.0410   32.0720 C.ar  218  PHE218     -0.0203
     95  CD1        5.3440   -5.8900   31.5780 C.ar  218  PHE218     -0.0042
     96  CD2        5.5310   -8.1850   32.1920 C.ar  218  PHE218     -0.0042
     97  CE1        6.6850   -5.8860   31.2020 C.ar  218  PHE218     -0.0003
     98  CE2        6.8650   -8.1800   31.8280 C.ar  218  PHE218     -0.0003
     99  CZ         7.4440   -7.0260   31.3390 C.ar  218  PHE218     -0.0000
    100  N          8.3490  -12.8150   29.0890 N.3   243  TYR243     -0.1241
    101  CA         7.6030  -13.2330   30.2820 C.3   243  TYR243      0.1605
    102  C          6.3960  -12.3240   30.4350 C.2   243  TYR243      0.2264
    103  O          6.3620  -11.2120   29.8850 O.2   243  TYR243     -0.2867
    104  CB         8.4670  -13.2670   31.5490 C.3   243  TYR243      0.0534
    105  CG         8.9800  -11.9360   32.0580 C.ar  243  TYR243     -0.0201
    106  CD1        8.6150  -11.4670   33.3190 C.ar  243  TYR243     -0.0009
    107  CD2        9.8520  -11.1550   31.2980 C.ar  243  TYR243     -0.0009
    108  CE1        9.0950  -10.2640   33.8060 C.ar  243  TYR243      0.0417
    109  CE2       10.3280   -9.9450   31.7750 C.ar  243  TYR243      0.0417
    110  CZ         9.9580   -9.5120   33.0320 C.ar  243  TYR243      0.1957
    111  OH        10.4290   -8.3110   33.5170 O.3   243  TYR243     -0.2866
    112  N         12.1780  -13.4170   33.8750 N.3   297  GLU297     -0.1245
    113  CA        13.1500  -13.2730   32.8030 C.3   297  GLU297      0.1567
    114  C         13.8490  -14.5930   32.5440 C.2   297  GLU297      0.2260
    115  O         14.0400  -15.4010   33.4510 O.2   297  GLU297     -0.2867
    116  CB        14.1800  -12.2110   33.1630 C.3   297  GLU297      0.0388
    117  CG        13.5910  -10.8140   33.2940 C.3   297  GLU297      0.1160
    118  CD        14.4560   -9.8770   34.1070 C.2   297  GLU297      0.3649
    119  OE1       14.2190   -8.6530   34.0510 O.co2 297  GLU297     -0.2457
    120  OE2       15.3610  -10.3540   34.8210 O.co2 297  GLU297     -0.2457
    121  N         14.9580  -16.8990   35.6850 N.3   313  ARG313     -0.1245
    122  CA        14.8710  -16.1730   36.9370 C.3   313  ARG313      0.1563
    123  C         13.6150  -16.6260   37.6700 C.2   313  ARG313      0.2260
    124  O         12.5580  -16.8230   37.0650 O.2   313  ARG313     -0.2867
    125  CB        14.8360  -14.6710   36.6240 C.3   313  ARG313      0.0307
    126  CG        14.6220  -13.7520   37.8100 C.3   313  ARG313      0.0489
    127  CD        14.7120  -12.3020   37.3870 C.3   313  ARG313      0.2205
    128  NE        14.2700  -11.4060   38.4570 N.pl3 313  ARG313     -0.0865
    129  CZ        14.4340  -10.0860   38.4430 C.cat 313  ARG313      0.5346
    130  NH1       15.0800   -9.4930   37.4480 N.pl3 313  ARG313      0.1354
    131  NH2       13.9830   -9.3610   39.4610 N.pl3 313  ARG313      0.1354
    132  N         23.0430   -9.3840   44.1610 N.3   373  ARG373     -0.1245
    133  CA        23.6090   -9.0860   42.8600 C.3   373  ARG373      0.1563
    134  C         25.0820   -8.7280   43.0080 C.2   373  ARG373      0.2260
    135  O         25.4820   -7.5620   42.9830 O.2   373  ARG373     -0.2867
    136  CB        22.7950   -7.9800   42.2020 C.3   373  ARG373      0.0307
    137  CG        21.4040   -8.4800   41.8670 C.3   373  ARG373      0.0489
    138  CD        20.4740   -7.3990   41.3920 C.3   373  ARG373      0.2205
    139  NE        19.1600   -7.9630   41.0850 N.pl3 373  ARG373     -0.0865
    140  CZ        18.2340   -7.3550   40.3480 C.cat 373  ARG373      0.5346
    141  NH1       18.4730   -6.1540   39.8420 N.pl3 373  ARG373      0.1354
    142  NH2       17.0810   -7.9580   40.1090 N.pl3 373  ARG373      0.1354
    143  N         22.5740   -7.4960   35.7160 N.3   413  TYR413     -0.1241
    144  CA        22.2270   -8.0900   34.4200 C.3   413  TYR413      0.1605
    145  C         23.4850   -8.2470   33.5600 C.2   413  TYR413      0.2264
    146  O         24.4430   -7.4810   33.6950 O.2   413  TYR413     -0.2867
    147  CB        21.1950   -7.2320   33.6790 C.3   413  TYR413      0.0534
    148  CG        19.7670   -7.2730   34.2030 C.ar  413  TYR413     -0.0201
    149  CD1       18.7090   -7.2220   33.3090 C.ar  413  TYR413     -0.0009
    150  CD2       19.4710   -7.3370   35.5700 C.ar  413  TYR413     -0.0009
    151  CE1       17.3950   -7.2430   33.7460 C.ar  413  TYR413      0.0417
    152  CE2       18.1570   -7.3670   36.0170 C.ar  413  TYR413      0.0417
    153  CZ        17.1300   -7.3170   35.1010 C.ar  413  TYR413      0.1957
    154  OH        15.8380   -7.3320   35.5600 O.3   413  TYR413     -0.2866
@<TRIPOS>BOND
     1    60    61    1
     2    62    61    1
     3    62    63    2
     4    61    64    1
     5    55    54    2
     6    54    53    1
     7    67    68    1
     8    44    45    1
     9    64    65    1
    10    64    66    1
    11    70    69    2
    12    69    68    1
    13    47    46    2
    14    68    71    1
    15    46    52   am
    16    46    45    1
    17    53    52    1
    18    53    56    1
    19    45    48    1
    20    15    14    2
    21    56    57    1
    22    71    72    1
    23   100   101    1
    24    14    13    1
    25    50    48    1
    26    48    49    1
    27    72    74   ar
    28    72    73   ar
    29    20    21    1
    30   103   102    2
    31    74    76   ar
    32    18    16    1
    33     4     3    2
    34    73    75   ar
    35    57    59   ar
    36    57    58   ar
    37   101   102    1
    38   101   104    1
    39    16    13    1
    40    16    17    1
    41    91    92    2
    42    91    90    1
    43    76    77   ar
    44    75    77   ar
    45    49    51    1
    46    13    12    1
    47    21    22    1
    48    21    24    1
    49     3    12   am
    50     3     2    1
    51    22    23    2
    52    97    99   ar
    53    97    95   ar
    54   107   109   ar
    55   107   105   ar
    56    99    98   ar
    57    90    89    1
    58    90    93    1
    59   104   105    1
    60    17    19    1
    61    95    94   ar
    62     1     2    1
    63    25    24    1
    64    25    26    1
    65   109   110   ar
    66    98    96   ar
    67   105   106   ar
    68    94    96   ar
    69    94    93    1
    70     2     5    1
    71    43    40    1
    72    27    26    1
    73    27    28    2
    74   114   113    1
    75   114   115    2
    76    30    28    1
    77   113   116    1
    78   113   112    1
    79   110   111    1
    80   110   108   ar
    81   116   117    1
    82     5     6    1
    83    28    29    1
    84   117   118    1
    85   149   151   ar
    86   149   148   ar
    87   106   108   ar
    88   145   146    2
    89   145   144    1
    90    40    39    1
    91    40    41    1
    92   147   148    1
    93   147   144    1
    94   151   153   ar
    95    39    33   am
    96   119   118   ar
    97   118   120   ar
    98   148   150   ar
    99   144   143    1
   100     6     7    1
   101    78    79    1
   102    41    42    2
   103    79    82    1
   104    79    80    1
   105   153   154    1
   106   153   152   ar
   107    33    32    1
   108    33    34    2
   109    84    86   ar
   110    84    83   ar
   111   150   152   ar
   112    38    36   ar
   113    32    35    1
   114    32    31    1
   115     7     8    1
   116    81    80    2
   117   121   122    1
   118     8     9    2
   119    82    83    1
   120    86    88   ar
   121    35    36    1
   122    36    37   ar
   123    83    85   ar
   124     9    11    1
   125     9    10    1
   126   125   122    1
   127   125   126    1
   128   122   123    1
   129   124   123    2
   130    88    87   ar
   131   127   126    1
   132   127   128    1
   133   130   129    1
   134    85    87   ar
   135   129   128    2
   136   129   131    1
   137   141   140    1
   138   142   140    1
   139   140   139    2
   140   139   138    1
   141   138   137    1
   142   137   136    1
   143   136   133    1
   144   133   134    1
   145   133   132    1
   146   135   134    2
