@<TRIPOS>MOLECULE
tmp/5tsqA00.pdb
 136 129 0 0 0
SMALL
GASTEIGER

@<TRIPOS>ATOM
      1  N         13.6210   26.9090   22.6410 N.3    13  ASP13      -0.1225
      2  CA        12.3840   26.7920   23.4090 C.3    13  ASP13       0.1805
      3  C         11.4650   25.7020   22.8470 C.2    13  ASP13       0.2597
      4  O         10.7340   25.0730   23.6140 O.2    13  ASP13      -0.2718
      5  CB        11.6580   28.1440   23.5110 C.3    13  ASP13       0.1424
      6  CG        11.3100   28.7480   22.1700 C.2    13  ASP13       0.3668
      7  OD1       10.2640   29.4410   22.1090 O.co2  13  ASP13      -0.2456
      8  OD2       12.0580   28.5760   21.1740 O.co2  13  ASP13      -0.2456
      9  N         11.4950   25.4370   21.5340 N.am   14  ASP14      -0.1974
     10  CA        10.7980   24.2500   21.0210 C.3    14  ASP14       0.1709
     11  C         11.2640   22.9850   21.7210 C.2    14  ASP14       0.2293
     12  O         10.4590   22.0840   21.9860 O.2    14  ASP14      -0.2864
     13  CB        11.0230   24.0560   19.5150 C.3    14  ASP14       0.1436
     14  CG        10.6320   25.2550   18.6930 C.2    14  ASP14       0.3671
     15  OD1       11.3880   26.2360   18.6880 O.co2  14  ASP14      -0.2456
     16  OD2        9.5620   25.2000   18.0500 O.co2  14  ASP14      -0.2456
     17  N         13.2940   28.5990   12.6570 N.3    38  ASN38      -0.1240
     18  CA        14.4760   28.9990   13.4150 C.3    38  ASN38       0.1653
     19  C         15.7540   28.6530   12.6710 C.2    38  ASN38       0.2266
     20  O         16.7430   29.3890   12.7330 O.2    38  ASN38      -0.2867
     21  CB        14.4890   28.3270   14.7880 C.3    38  ASN38       0.1155
     22  CG        13.5910   29.0260   15.7670 C.2    38  ASN38       0.2627
     23  OD1       13.4750   30.2630   15.7320 O.2    38  ASN38      -0.2716
     24  ND2       12.9600   28.2610   16.6620 N.am   38  ASN38      -0.0877
     25  N         16.9710   32.1670   12.0840 N.3    77  ALA77      -0.1245
     26  CA        17.2890   32.9630   13.2730 C.3    77  ALA77       0.1562
     27  C         18.5400   32.4420   13.9720 C.2    77  ALA77       0.2260
     28  O         18.5150   32.1320   15.1710 O.2    77  ALA77      -0.2867
     29  CB        16.0920   32.9700   14.2250 C.3    77  ALA77       0.0290
     30  N         19.7000   33.9020   17.3440 N.3    80  ILE80      -0.1231
     31  CA        18.9790   33.5630   18.5600 C.3    80  ILE80       0.1692
     32  C         19.1890   32.1050   18.9490 C.2    80  ILE80       0.2592
     33  O         19.3830   31.7980   20.1260 O.2    80  ILE80      -0.2718
     34  CB        17.4730   33.8720   18.4020 C.3    80  ILE80       0.0266
     35  CG1       17.2500   35.3760   18.1960 C.3    80  ILE80       0.0019
     36  CG2       16.6950   33.3750   19.6260 C.3    80  ILE80       0.0020
     37  CD1       17.6270   36.2250   19.3890 C.3    80  ILE80       0.0001
     38  N         19.1540   31.1920   17.9790 N.am   81  HIS81      -0.1976
     39  CA        19.2960   29.7690   18.2760 C.3    81  HIS81       0.1656
     40  C         20.6180   29.1770   17.8000 C.2    81  HIS81       0.2291
     41  O         20.8360   27.9690   17.9580 O.2    81  HIS81      -0.2864
     42  CB        18.1200   28.9940   17.6830 C.3    81  HIS81       0.0771
     43  CG        16.7910   29.4580   18.1880 C.ar   81  HIS81       0.0820
     44  ND1       16.2290   28.9780   19.3530 N.ar   81  HIS81      -0.2267
     45  CD2       15.9230   30.3760   17.6980 C.ar   81  HIS81       0.1154
     46  CE1       15.0560   29.5650   19.5440 C.ar   81  HIS81       0.1986
     47  NE2       14.8460   30.4150   18.5540 N.ar   81  HIS81      -0.2212
     48  N          4.3560   25.5280   17.0550 N.3   125  THR125     -0.1218
     49  CA         5.2660   26.4590   17.7250 C.3   125  THR125      0.1862
     50  C          6.3440   26.9520   16.7710 C.2   125  THR125      0.2287
     51  O          7.3420   27.5110   17.2170 O.2   125  THR125     -0.2866
     52  CB         5.8960   25.8400   18.9850 C.3   125  THR125      0.1770
     53  OG1        6.7950   24.7670   18.6230 O.3   125  THR125     -0.2211
     54  CG2        4.8090   25.3310   19.9430 C.3   125  THR125      0.0375
     55  N          1.8690   28.8580   19.4870 N.3   151  MET151     -0.1245
     56  CA         2.7310   29.9400   19.9480 C.3   151  MET151      0.1570
     57  C          3.0330   30.7900   18.7270 C.2   151  MET151      0.2261
     58  O          3.5920   30.3040   17.7300 O.2   151  MET151     -0.2867
     59  CB         4.0160   29.4310   20.5930 C.3   151  MET151      0.0387
     60  CG         4.7760   30.5740   21.3310 C.3   151  MET151      0.0595
     61  SD         5.7080   31.6110   20.1550 S.3   151  MET151     -0.1393
     62  CE         5.2120   33.2720   20.6890 C.3   151  MET151      0.0692
     63  N          9.0270   40.9160   17.5980 N.3   159  ASN159     -0.1240
     64  CA        10.4540   40.6390   17.7250 C.3   159  ASN159      0.1653
     65  C         11.1090   40.6190   16.3480 C.2   159  ASN159      0.2266
     66  O         12.0950   41.3260   16.1280 O.2   159  ASN159     -0.2867
     67  CB        10.7610   39.3580   18.5370 C.3   159  ASN159      0.1155
     68  CG         9.9600   38.1200   18.1360 C.2   159  ASN159      0.2627
     69  OD1        9.3720   38.0230   17.0530 O.2   159  ASN159     -0.2716
     70  ND2        9.9720   37.1280   19.0300 N.am  159  ASN159     -0.0877
     71  N          5.6340   39.0750   15.2110 N.3   165  GLU165     -0.1231
     72  CA         6.3090   37.9740   15.8780 C.3   165  GLU165      0.1699
     73  C          6.8220   36.9880   14.8290 C.2   165  GLU165      0.2592
     74  O          6.2380   36.8480   13.7510 O.2   165  GLU165     -0.2718
     75  CB         5.3270   37.3130   16.8550 C.3   165  GLU165      0.0402
     76  CG         5.8590   36.1210   17.6480 C.3   165  GLU165      0.1161
     77  CD         5.8430   34.8360   16.8090 C.2   165  GLU165      0.3649
     78  OE1        4.9680   34.7070   15.9060 O.co2 165  GLU165     -0.2457
     79  OE2        6.7740   34.0010   16.9830 O.co2 165  GLU165     -0.2457
     80  N          7.9350   36.3310   15.1580 N.am  166  PHE166     -0.1962
     81  CA         8.7160   35.5350   14.2050 C.3   166  PHE166      0.1771
     82  C          7.8860   34.4640   13.4910 C.2   166  PHE166      0.2619
     83  O          7.9270   34.3590   12.2610 O.2   166  PHE166     -0.2715
     84  CB         9.8830   34.8790   14.9520 C.3   166  PHE166      0.0574
     85  CG        10.7830   34.0640   14.0810 C.ar  166  PHE166     -0.0200
     86  CD1       11.7510   34.6770   13.2990 C.ar  166  PHE166     -0.0042
     87  CD2       10.6860   32.6800   14.0710 C.ar  166  PHE166     -0.0042
     88  CE1       12.6170   33.9230   12.5040 C.ar  166  PHE166     -0.0003
     89  CE2       11.5530   31.9140   13.2640 C.ar  166  PHE166     -0.0003
     90  CZ        12.5000   32.5380   12.4820 C.ar  166  PHE166     -0.0000
     91  N          7.1660   33.6280   14.2410 N.am  167  ASN167     -0.1972
     92  CA         6.4640   32.5150   13.5950 C.3   167  ASN167      0.1688
     93  C          5.4560   33.0010   12.5610 C.2   167  ASN167      0.2292
     94  O          5.2890   32.3670   11.5160 O.2   167  ASN167     -0.2864
     95  CB         5.7620   31.6300   14.6210 C.3   167  ASN167      0.1181
     96  CG         6.7470   30.8880   15.4750 C.2   167  ASN167      0.2629
     97  OD1        7.9260   30.7170   15.0920 O.2   167  ASN167     -0.2716
     98  ND2        6.2870   30.4380   16.6420 N.am  167  ASN167     -0.0877
     99  N          3.3580   36.9720   22.0140 N.3   190  LEU190     -0.1245
    100  CA         4.4390   37.5600   22.8070 C.3   190  LEU190      0.1561
    101  C          3.9110   38.2910   24.0250 C.2   190  LEU190      0.2260
    102  O          4.6490   38.4540   25.0060 O.2   190  LEU190     -0.2867
    103  CB         5.2700   38.5330   21.9720 C.3   190  LEU190      0.0270
    104  CG         5.9810   37.8700   20.7940 C.3   190  LEU190      0.0019
    105  CD1        6.8300   38.9240   20.0640 C.3   190  LEU190      0.0001
    106  CD2        6.8780   36.7490   21.2570 C.3   190  LEU190      0.0001
    107  N         20.7590   30.3950   25.2470 N.3   224  TYR224     -0.1241
    108  CA        19.6000   31.2390   24.9800 C.3   224  TYR224      0.1605
    109  C         19.6030   32.4700   25.8780 C.2   224  TYR224      0.2264
    110  O         19.2670   33.5790   25.4370 O.2   224  TYR224     -0.2867
    111  CB        18.3530   30.3850   25.2090 C.3   224  TYR224      0.0534
    112  CG        17.0480   30.8190   24.6030 C.ar  224  TYR224     -0.0201
    113  CD1       16.9550   31.2030   23.2770 C.ar  224  TYR224     -0.0009
    114  CD2       15.8820   30.7620   25.3570 C.ar  224  TYR224     -0.0009
    115  CE1       15.7210   31.5610   22.7170 C.ar  224  TYR224      0.0417
    116  CE2       14.6750   31.1130   24.8310 C.ar  224  TYR224      0.0417
    117  CZ        14.5820   31.5000   23.5100 C.ar  224  TYR224      0.1957
    118  OH        13.3540   31.8520   23.0120 O.3   224  TYR224     -0.2866
    119  N          9.2540   30.7080   25.0370 N.3   239  HIS239     -0.1226
    120  CA         7.9070   30.9110   24.4950 C.3   239  HIS239      0.1752
    121  C          7.1630   29.5940   24.3250 C.2   239  HIS239      0.2596
    122  O          6.0390   29.4220   24.8140 O.2   239  HIS239     -0.2718
    123  CB         7.9620   31.6000   23.1220 C.3   239  HIS239      0.0759
    124  CG         8.9110   32.7550   23.0240 C.ar  239  HIS239      0.0818
    125  ND1        8.5300   34.0550   23.2950 N.ar  239  HIS239     -0.2268
    126  CD2       10.2040   32.8160   22.6300 C.ar  239  HIS239      0.1154
    127  CE1        9.5520   34.8660   23.0830 C.ar  239  HIS239      0.1986
    128  NE2       10.5850   34.1400   22.6860 N.ar  239  HIS239     -0.2212
    129  N          7.7580   28.6710   23.5750 N.am  240  ASP240     -0.1974
    130  CA         6.9690   27.5930   22.9870 C.3   240  ASP240      0.1709
    131  C          6.3150   26.6550   23.9910 C.2   240  ASP240      0.2293
    132  O          5.1900   26.2100   23.7120 O.2   240  ASP240     -0.2864
    133  CB         7.8350   26.8110   21.9900 C.3   240  ASP240      0.1436
    134  CG         8.1440   27.6230   20.7640 C.2   240  ASP240      0.3671
    135  OD1        7.5010   28.6860   20.5980 O.co2 240  ASP240     -0.2456
    136  OD2        9.0500   27.2280   19.9930 O.co2 240  ASP240     -0.2456
@<TRIPOS>BOND
     1    94    93    2
     2    25    26    1
     3    83    82    2
     4    90    88   ar
     5    90    89   ar
     6    88    86   ar
     7    93    92    1
     8    17    18    1
     9    19    20    2
    10    19    18    1
    11    89    87   ar
    12    26    27    1
    13    26    29    1
    14    86    85   ar
    15    18    21    1
    16    82    81    1
    17    82    91   am
    18    92    91    1
    19    92    95    1
    20    74    73    2
    21    27    28    2
    22    87    85   ar
    23    85    84    1
    24    81    84    1
    25    81    80    1
    26    95    96    1
    27    21    22    1
    28    73    80   am
    29    73    72    1
    30    97    96    2
    31    71    72    1
    32    96    98   am
    33    23    22    2
    34    22    24   am
    35    72    75    1
    36    78    77   ar
    37    66    65    2
    38    65    64    1
    39    50    51    2
    40    50    49    1
    41    77    79   ar
    42    77    76    1
    43    75    76    1
    44    69    68    2
    45    48    49    1
    46    30    31    1
    47    63    64    1
    48    42    43    1
    49    42    39    1
    50    45    43   ar
    51    45    47   ar
    52    49    52    1
    53    64    67    1
    54    58    57    2
    55    40    41    2
    56    40    39    1
    57    38    39    1
    58    38    32   am
    59    16    14   ar
    60    68    67    1
    61    68    70   am
    62    43    44   ar
    63    35    34    1
    64    35    37    1
    65    34    31    1
    66    34    36    1
    67    47    46   ar
    68    31    32    1
    69    53    52    1
    70    15    14   ar
    71    14    13    1
    72    57    56    1
    73    32    33    2
    74    52    54    1
    75    44    46   ar
    76    55    56    1
    77    13    10    1
    78    56    59    1
    79   136   134   ar
    80   105   104    1
    81    61    62    1
    82    61    60    1
    83    59    60    1
    84   135   134   ar
    85   134   133    1
    86   104   106    1
    87   104   103    1
    88    10     9    1
    89    10    11    1
    90     8     6   ar
    91     9     3   am
    92    11    12    2
    93   103   100    1
    94   133   130    1
    95    99   100    1
    96     7     6   ar
    97     6     5    1
    98   126   128   ar
    99   126   124   ar
   100     1     2    1
   101   128   127   ar
   102   115   113   ar
   103   115   117   ar
   104   100   101    1
   105     3     2    1
   106     3     4    2
   107   130   129    1
   108   130   131    1
   109   118   117    1
   110   124   123    1
   111   124   125   ar
   112   127   125   ar
   113   123   120    1
   114   113   112   ar
   115     2     5    1
   116   117   116   ar
   117   129   121   am
   118   132   131    2
   119   101   102    2
   120   121   120    1
   121   121   122    2
   122   120   119    1
   123   112   111    1
   124   112   114   ar
   125   116   114   ar
   126   108   111    1
   127   108   107    1
   128   108   109    1
   129   110   109    2
