@<TRIPOS>MOLECULE
tmp/5tt3A00.pdb
 133 132 0 0 0
SMALL
GASTEIGER

@<TRIPOS>ATOM
      1  N         45.8020   39.5450   78.5070 N.3     2  TRP2       -0.1241
      2  CA        45.5000   38.7100   79.6700 C.3     2  TRP2        0.1605
      3  C         44.6060   39.4110   80.6520 C.2     2  TRP2        0.2264
      4  O         44.7430   40.6010   80.8930 O.2     2  TRP2       -0.2867
      5  CB        46.7750   38.2550   80.3940 C.3     2  TRP2        0.0550
      6  CG        47.5490   39.3220   81.1140 C.ar    2  TRP2        0.0003
      7  CD1       48.5850   40.0480   80.6280 C.ar    2  TRP2        0.0946
      8  CD2       47.3780   39.7350   82.4820 C.ar    2  TRP2        0.0152
      9  NE1       49.0610   40.9110   81.5940 N.ar    2  TRP2       -0.2442
     10  CE2       48.3340   40.7380   82.7400 C.ar    2  TRP2        0.0810
     11  CE3       46.5000   39.3640   83.5040 C.ar    2  TRP2        0.0012
     12  CZ2       48.4350   41.3770   83.9680 C.ar    2  TRP2        0.0191
     13  CZ3       46.6050   39.9990   84.7250 C.ar    2  TRP2        0.0001
     14  CH2       47.5670   40.9950   84.9470 C.ar    2  TRP2        0.0015
     15  N         46.6040   47.0310   84.3720 N.3    63  HIS63      -0.1241
     16  CA        46.5740   45.5710   84.4720 C.3    63  HIS63       0.1621
     17  C         45.8630   45.0860   85.7400 C.2    63  HIS63       0.2264
     18  O         46.4130   44.2920   86.5120 O.2    63  HIS63      -0.2867
     19  CB        47.9750   44.9570   84.3650 C.3    63  HIS63       0.0745
     20  CG        48.5120   44.9230   82.9620 C.ar   63  HIS63       0.0817
     21  ND1       48.0250   44.0560   82.0040 N.ar   63  HIS63      -0.2268
     22  CD2       49.5000   45.6280   82.3610 C.ar   63  HIS63       0.1154
     23  CE1       48.6790   44.2410   80.8720 C.ar   63  HIS63       0.1986
     24  NE2       49.5790   45.1890   81.0620 N.ar   63  HIS63      -0.2212
     25  N         47.8660   50.8830   91.3410 N.3    67  LYS67      -0.1245
     26  CA        49.3030   50.8390   91.5100 C.3    67  LYS67       0.1561
     27  C         49.7670   52.2030   91.9060 C.2    67  LYS67       0.2260
     28  O         49.2750   53.1950   91.3960 O.2    67  LYS67      -0.2867
     29  CB        50.0150   50.3860   90.2380 C.3    67  LYS67       0.0271
     30  CG        51.5300   50.3490   90.3920 C.3    67  LYS67       0.0035
     31  CD        52.2260   49.6810   89.2120 C.3    67  LYS67       0.0206
     32  CE        53.6970   50.1180   89.1030 C.3    67  LYS67       0.1093
     33  NZ        54.5170   49.3940   88.0590 N.3    67  LYS67      -0.1314
     34  N         56.7250   49.8710   93.9260 N.3    87  ASN87      -0.1240
     35  CA        55.3160   50.1980   93.9100 C.3    87  ASN87       0.1653
     36  C         54.5300   49.3620   94.8860 C.2    87  ASN87       0.2266
     37  O         55.0230   48.3680   95.4100 O.2    87  ASN87      -0.2867
     38  CB        54.7360   50.0280   92.5020 C.3    87  ASN87       0.1155
     39  CG        54.5140   48.5710   92.1140 C.2    87  ASN87       0.2627
     40  OD1       53.4630   47.9930   92.3890 O.2    87  ASN87      -0.2716
     41  ND2       55.4930   47.9830   91.4460 N.am   87  ASN87      -0.0877
     42  N         50.6430   47.6600   95.0510 N.3    89  HIS89      -0.1241
     43  CA        49.4240   47.4490   94.3250 C.3    89  HIS89       0.1621
     44  C         48.5960   46.4330   95.0250 C.2    89  HIS89       0.2264
     45  O         49.0340   45.8310   95.9920 O.2    89  HIS89      -0.2867
     46  CB        49.7060   47.0270   92.8990 C.3    89  HIS89       0.0745
     47  CG        50.5610   45.8100   92.7960 C.ar   89  HIS89       0.0817
     48  ND1       51.9320   45.8770   92.7020 N.ar   89  HIS89      -0.2268
     49  CD2       50.2400   44.4970   92.7750 C.ar   89  HIS89       0.1154
     50  CE1       52.4210   44.6550   92.6230 C.ar   89  HIS89       0.1986
     51  NE2       51.4180   43.7990   92.6770 N.ar   89  HIS89      -0.2212
     52  N         45.4500   43.3330   95.3410 N.3    91  HIS91      -0.1241
     53  CA        44.7430   42.1810   94.8230 C.3    91  HIS91       0.1621
     54  C         43.5510   41.8980   95.7130 C.2    91  HIS91       0.2264
     55  O         43.6650   41.9240   96.9350 O.2    91  HIS91      -0.2867
     56  CB        45.6630   40.9640   94.7500 C.3    91  HIS91       0.0745
     57  CG        46.7950   41.1100   93.7810 C.ar   91  HIS91       0.0817
     58  ND1       46.8010   40.4890   92.5510 N.ar   91  HIS91      -0.2268
     59  CD2       47.9640   41.7850   93.8640 C.ar   91  HIS91       0.1154
     60  CE1       47.9220   40.7810   91.9160 C.ar   91  HIS91       0.1986
     61  NE2       48.6440   41.5680   92.6900 N.ar   91  HIS91      -0.2212
     62  N         50.8000   44.4040   97.6570 N.3   108  HIS108     -0.1241
     63  CA        52.1240   43.9050   97.3020 C.3   108  HIS108      0.1621
     64  C         53.1690   44.9780   97.1960 C.2   108  HIS108      0.2264
     65  O         53.0130   45.9310   96.4370 O.2   108  HIS108     -0.2867
     66  CB        52.0930   43.1610   95.9770 C.3   108  HIS108      0.0745
     67  CG        51.3600   41.8690   96.0340 C.ar  108  HIS108      0.0817
     68  ND1       50.9610   41.1960   94.9050 N.ar  108  HIS108     -0.2268
     69  CD2       50.9460   41.1250   97.0850 C.ar  108  HIS108      0.1154
     70  CE1       50.3390   40.0850   95.2560 C.ar  108  HIS108      0.1986
     71  NE2       50.3090   40.0230   96.5740 N.ar  108  HIS108     -0.2212
     72  N         56.4930   45.7400   95.7450 N.3   110  VAL110     -0.1245
     73  CA        57.3870   45.2370   94.7290 C.3   110  VAL110      0.1561
     74  C         58.6960   45.9600   94.8370 C.2   110  VAL110      0.2260
     75  O         58.7470   47.1840   94.8240 O.2   110  VAL110     -0.2867
     76  CB        56.8340   45.4250   93.3380 C.3   110  VAL110      0.0252
     77  CG1       57.8390   44.9220   92.3240 C.3   110  VAL110      0.0019
     78  CG2       55.5290   44.6890   93.2010 C.3   110  VAL110      0.0019
     79  N         59.0550   40.6020   96.5560 N.3   120  VAL120     -0.1245
     80  CA        57.7140   41.1320   96.7960 C.3   120  VAL120      0.1561
     81  C         57.2030   40.7770   98.1650 C.2   120  VAL120      0.2260
     82  O         57.3450   39.6540   98.6430 O.2   120  VAL120     -0.2867
     83  CB        56.6790   40.6390   95.7920 C.3   120  VAL120      0.0252
     84  CG1       55.3640   41.4000   95.9760 C.3   120  VAL120      0.0019
     85  CG2       57.1860   40.8040   94.3700 C.3   120  VAL120      0.0019
     86  N         56.0320   35.7140   89.8950 N.3   166  LEU166     -0.1231
     87  CA        55.1130   36.8410   89.8090 C.3   166  LEU166      0.1693
     88  C         53.7110   36.2890   89.6870 C.2   166  LEU166      0.2593
     89  O         53.5260   35.2300   89.1210 O.2   166  LEU166     -0.2718
     90  CB        55.4640   37.7350   88.6280 C.3   166  LEU166      0.0284
     91  CG        56.8750   38.3200   88.6970 C.3   166  LEU166      0.0019
     92  CD1       57.1700   39.0940   87.4390 C.3   166  LEU166      0.0001
     93  CD2       57.0500   39.2050   89.8970 C.3   166  LEU166      0.0001
     94  N         52.7240   36.9660   90.2490 N.am  167  THR167     -0.1939
     95  CA        51.3690   36.4330   90.1940 C.3   167  THR167      0.2028
     96  C         50.6220   36.8750   88.9560 C.2   167  THR167      0.2642
     97  O         49.4870   36.4740   88.7410 O.2   167  THR167     -0.2714
     98  CB        50.5430   36.8400   91.4060 C.3   167  THR167      0.1808
     99  OG1       50.5540   38.2650   91.5310 O.3   167  THR167     -0.2208
    100  CG2       51.1010   36.2280   92.6440 C.3   167  THR167      0.0379
    101  N         51.2430   37.7100   88.1400 N.am  168  ALA168     -0.1963
    102  CA        50.6040   38.1460   86.9010 C.3   168  ALA168      0.1713
    103  C         51.5480   37.8460   85.7570 C.2   168  ALA168      0.2458
    104  O         52.7500   37.7410   85.9750 O.2   168  ALA168     -0.2730
    105  CB        50.2710   39.6230   86.9520 C.3   168  ALA168      0.0333
    106  N         51.0120   37.6710   84.5420 N.am  169  PRO169     -0.2716
    107  CA        51.9150   37.4500   83.4230 C.3   169  PRO169      0.1521
    108  C         52.9330   38.5800   83.3900 C.2   169  PRO169      0.2440
    109  O         52.5370   39.7120   83.6270 O.2   169  PRO169     -0.2731
    110  CB        50.9750   37.4820   82.2230 C.3   169  PRO169      0.0310
    111  CG        49.6900   37.0060   82.7690 C.3   169  PRO169      0.0237
    112  CD        49.6050   37.5850   84.1290 C.3   169  PRO169      0.0939
    113  N         54.2080   38.3020   83.0790 N.am  170  PRO170     -0.2727
    114  CA        54.8290   37.0880   82.5380 C.3   170  PRO170      0.1402
    115  C         55.1670   35.9580   83.5260 C.2   170  PRO170      0.2269
    116  O         55.8180   34.9950   83.1130 O.2   170  PRO170     -0.2865
    117  CB        56.1280   37.6260   81.9480 C.3   170  PRO170      0.0296
    118  CG        56.4600   38.7930   82.8110 C.3   170  PRO170      0.0237
    119  CD        55.1730   39.4100   83.1850 C.3   170  PRO170      0.0939
    120  N         59.6470   35.9190   98.0190 N.3   177  TRP177     -0.1241
    121  CA        58.3840   36.3680   98.5780 C.3   177  TRP177      0.1605
    122  C         58.4780   36.5260  100.1000 C.2   177  TRP177      0.2264
    123  O         59.1290   35.7300  100.7680 O.2   177  TRP177     -0.2867
    124  CB        57.2690   35.4000   98.1980 C.3   177  TRP177      0.0550
    125  CG        56.6680   35.6310   96.8370 C.ar  177  TRP177      0.0003
    126  CD1       56.9390   34.9350   95.6900 C.ar  177  TRP177      0.0946
    127  CD2       55.6640   36.6020   96.4840 C.ar  177  TRP177      0.0152
    128  NE1       56.1730   35.4150   94.6450 N.ar  177  TRP177     -0.2442
    129  CE2       55.3890   36.4400   95.1070 C.ar  177  TRP177      0.0810
    130  CE3       54.9800   37.5960   97.1970 C.ar  177  TRP177      0.0012
    131  CZ2       54.4600   37.2320   94.4340 C.ar  177  TRP177      0.0191
    132  CZ3       54.0590   38.3790   96.5250 C.ar  177  TRP177      0.0001
    133  CH2       53.8080   38.1910   95.1570 C.ar  177  TRP177      0.0015
@<TRIPOS>BOND
     1     1     2    1
     2     2     5    1
     3     2     3    1
     4     5     6    1
     5     7     6   ar
     6     7     9   ar
     7     3     4    2
     8    23    24   ar
     9    23    21   ar
    10    24    22   ar
    11     6     8   ar
    12     9    10   ar
    13   117   114    1
    14   117   118    1
    15    21    20   ar
    16   110   111    1
    17   110   107    1
    18    22    20   ar
    19     8    10   ar
    20     8    11   ar
    21   114   113    1
    22   114   115    1
    23    10    12   ar
    24   111   112    1
    25   118   119    1
    26    20    19    1
    27   113   119    1
    28   113   108   am
    29   116   115    2
    30   108   107    1
    31   108   109    2
    32   107   106    1
    33    11    13   ar
    34    12    14   ar
    35   112   106    1
    36    19    16    1
    37    15    16    1
    38    16    17    1
    39   106   103   am
    40    13    14   ar
    41    17    18    2
    42   103   104    2
    43   103   102    1
    44   102   105    1
    45   102   101    1
    46    92    91    1
    47    33    32    1
    48   101    96   am
    49    90    91    1
    50    90    87    1
    51    91    93    1
    52    97    96    2
    53    96    95    1
    54    32    31    1
    55    89    88    2
    56    31    30    1
    57    88    87    1
    58    88    94   am
    59    87    86    1
    60    95    94    1
    61    95    98    1
    62    29    30    1
    63    29    26    1
    64    25    26    1
    65    28    27    2
    66    98    99    1
    67    98   100    1
    68    41    39   am
    69    26    27    1
    70    60    58   ar
    71    60    61   ar
    72    39    40    2
    73    39    38    1
    74    77    76    1
    75    38    35    1
    76    58    57   ar
    77    50    51   ar
    78    50    48   ar
    79    51    49   ar
    80    61    59   ar
    81    48    47   ar
    82    49    47   ar
    83    47    46    1
    84    46    43    1
    85    78    76    1
    86    76    73    1
    87    57    59   ar
    88    57    56    1
    89    35    34    1
    90    35    36    1
    91    43    44    1
    92    43    42    1
    93    85    83    1
    94   131   129   ar
    95   131   133   ar
    96   128   129   ar
    97   128   126   ar
    98    73    74    1
    99    73    72    1
   100    56    53    1
   101    53    52    1
   102    53    54    1
   103    75    74    2
   104    36    37    2
   105    68    70   ar
   106    68    67   ar
   107    44    45    2
   108   129   127   ar
   109   133   132   ar
   110    70    71   ar
   111   126   125   ar
   112    54    55    2
   113    83    84    1
   114    83    80    1
   115    66    67    1
   116    66    63    1
   117    67    69   ar
   118    65    64    2
   119   127   125   ar
   120   127   130   ar
   121   132   130   ar
   122    79    80    1
   123    71    69   ar
   124    80    81    1
   125   125   124    1
   126    64    63    1
   127    63    62    1
   128   120   121    1
   129    81    82    2
   130   124   121    1
   131   121   122    1
   132   122   123    2
