@<TRIPOS>MOLECULE
tmp/5tt6A00.pdb
 206 192 0 0 0
SMALL
GASTEIGER

@<TRIPOS>ATOM
      1  N         11.9700   14.4390   19.4860 N.3    38  TYR38      -0.1241
      2  CA        12.9450   14.5390   18.4010 C.3    38  TYR38       0.1605
      3  C         13.7940   13.2770   18.3590 C.2    38  TYR38       0.2264
      4  O         13.8690   12.5200   19.3330 O.2    38  TYR38      -0.2867
      5  CB        13.8680   15.7550   18.5600 C.3    38  TYR38       0.0534
      6  CG        14.6800   15.6820   19.8240 C.ar   38  TYR38      -0.0201
      7  CD1       14.1560   16.1540   21.0220 C.ar   38  TYR38      -0.0009
      8  CD2       15.9520   15.1190   19.8400 C.ar   38  TYR38      -0.0009
      9  CE1       14.8690   16.0810   22.1940 C.ar   38  TYR38       0.0417
     10  CE2       16.6790   15.0260   21.0290 C.ar   38  TYR38       0.0417
     11  CZ        16.1230   15.5180   22.2020 C.ar   38  TYR38       0.1957
     12  OH        16.8060   15.4620   23.3990 O.3    38  TYR38      -0.2866
     13  N         10.9760   18.4620   23.7870 N.3    55  ARG55      -0.1245
     14  CA        11.6540   17.2880   24.3300 C.3    55  ARG55       0.1563
     15  C         10.7160   16.5680   25.3080 C.2    55  ARG55       0.2260
     16  O         11.0020   16.3970   26.4910 O.2    55  ARG55      -0.2867
     17  CB        12.9820   17.6730   24.9910 C.3    55  ARG55       0.0307
     18  CG        13.8630   16.4880   25.3910 C.3    55  ARG55       0.0489
     19  CD        15.0870   16.9550   26.1790 C.3    55  ARG55       0.2205
     20  NE        16.0460   15.8670   26.4010 N.pl3  55  ARG55      -0.0865
     21  CZ        16.1240   15.1770   27.5350 C.cat  55  ARG55       0.5346
     22  NH1       15.2790   15.4580   28.5200 N.pl3  55  ARG55       0.1354
     23  NH2       17.0200   14.2080   27.6790 N.pl3  55  ARG55       0.1354
     24  N         11.6850   19.0170   31.3470 N.3    74  MET74      -0.1245
     25  CA        12.7240   20.0250   31.1720 C.3    74  MET74       0.1570
     26  C         12.9460   20.3630   29.7060 C.2    74  MET74       0.2261
     27  O         12.8190   19.5170   28.8130 O.2    74  MET74      -0.2867
     28  CB        14.0610   19.5550   31.7580 C.3    74  MET74       0.0387
     29  CG        13.9730   19.0160   33.1770 C.3    74  MET74       0.0595
     30  SD        13.2600   17.3650   33.2370 S.3    74  MET74      -0.1393
     31  CE        14.6320   16.4230   32.5320 C.3    74  MET74       0.0692
     32  N         15.4070   21.0580   26.5880 N.3    76  LYS76      -0.1231
     33  CA        16.6610   20.4420   26.1700 C.3    76  LYS76       0.1693
     34  C         17.8400   21.2080   26.7450 C.2    76  LYS76       0.2592
     35  O         17.9140   22.4330   26.6230 O.2    76  LYS76      -0.2718
     36  CB        16.7690   20.4360   24.6440 C.3    76  LYS76       0.0285
     37  CG        18.1290   19.9270   24.1180 C.3    76  LYS76       0.0035
     38  CD        18.1580   18.4010   24.0450 C.3    76  LYS76       0.0206
     39  CE        19.4470   17.8470   23.4150 C.3    76  LYS76       0.1093
     40  NZ        20.5490   17.7140   24.4240 N.3    76  LYS76      -0.1314
     41  N         18.7820   20.4960   27.3540 N.am   77  PHE77      -0.1976
     42  CA        20.0330   21.1440   27.7100 C.3    77  PHE77       0.1639
     43  C         21.1840   20.2670   27.2490 C.2    77  PHE77       0.2290
     44  O         20.9940   19.1200   26.8370 O.2    77  PHE77      -0.2864
     45  CB        20.1270   21.4930   29.2090 C.3    77  PHE77       0.0560
     46  CG        19.7760   20.3700   30.1500 C.ar   77  PHE77      -0.0200
     47  CD1       20.7640   19.6170   30.7410 C.ar   77  PHE77      -0.0042
     48  CD2       18.4630   20.1300   30.5030 C.ar   77  PHE77      -0.0042
     49  CE1       20.4480   18.6020   31.6400 C.ar   77  PHE77      -0.0003
     50  CE2       18.1480   19.1260   31.3910 C.ar   77  PHE77      -0.0003
     51  CZ        19.1490   18.3640   31.9570 C.ar   77  PHE77      -0.0000
     52  N         23.7710   18.9880   40.7510 N.3    98  LEU98      -0.1231
     53  CA        22.8530   17.9090   41.0850 C.3    98  LEU98       0.1693
     54  C         23.4690   16.6040   40.5870 C.2    98  LEU98       0.2593
     55  O         24.0610   16.5700   39.5050 O.2    98  LEU98      -0.2718
     56  CB        21.4870   18.1690   40.4250 C.3    98  LEU98       0.0284
     57  CG        20.7240   19.4520   40.8670 C.3    98  LEU98       0.0019
     58  CD1       19.3570   19.5260   40.2110 C.3    98  LEU98       0.0001
     59  CD2       20.5430   19.5380   42.4070 C.3    98  LEU98       0.0001
     60  N         23.3760   15.5450   41.3840 N.am   99  THR99      -0.1939
     61  CA        23.7380   14.2310   40.8720 C.3    99  THR99       0.2028
     62  C         22.9800   13.9770   39.5780 C.2    99  THR99       0.2642
     63  O         21.7650   14.1840   39.5070 O.2    99  THR99      -0.2714
     64  CB        23.4020   13.1380   41.8910 C.3    99  THR99       0.1808
     65  OG1       24.1280   13.3670   43.1040 O.3    99  THR99      -0.2208
     66  CG2       23.7800   11.7680   41.3460 C.3    99  THR99       0.0379
     67  N         23.7030   13.5920   38.5320 N.am  100  MET100     -0.1962
     68  CA        23.0620   13.1420   37.3040 C.3   100  MET100      0.1736
     69  C         22.7490   11.6570   37.4330 C.2   100  MET100      0.2616
     70  O         23.6590   10.8190   37.4550 O.2   100  MET100     -0.2715
     71  CB        23.9360   13.3980   36.0840 C.3   100  MET100      0.0427
     72  CG        23.1680   13.1970   34.7970 C.3   100  MET100      0.0599
     73  SD        24.0180   13.8610   33.3260 S.3   100  MET100     -0.1393
     74  CE        22.6410   13.7900   32.2000 C.3   100  MET100      0.0692
     75  N         21.4660   11.3350   37.4960 N.am  101  GLU101     -0.1977
     76  CA        21.0300    9.9610   37.6750 C.3   101  GLU101      0.1602
     77  C         20.9050    9.3160   36.3040 C.2   101  GLU101      0.2287
     78  O         20.5480    9.9760   35.3260 O.2   101  GLU101     -0.2864
     79  CB        19.6880    9.9000   38.4140 C.3   101  GLU101      0.0415
     80  CG        19.6440   10.3010   39.9140 C.3   101  GLU101      0.1163
     81  CD        20.5540    9.5340   40.8380 C.2   101  GLU101      0.3649
     82  OE1       20.7580   10.0460   41.9580 O.co2 101  GLU101     -0.2457
     83  OE2       21.0740    8.4490   40.4520 O.co2 101  GLU101     -0.2457
     84  N         13.8790    9.1310   31.8500 N.3   105  LEU105     -0.1245
     85  CA        13.0690   10.2280   32.3720 C.3   105  LEU105      0.1561
     86  C         11.5920    9.8500   32.4320 C.2   105  LEU105      0.2260
     87  O         11.0470    9.2680   31.4850 O.2   105  LEU105     -0.2867
     88  CB        13.2320   11.4650   31.4860 C.3   105  LEU105      0.0270
     89  CG        12.2100   12.5840   31.6960 C.3   105  LEU105      0.0019
     90  CD1       12.5650   13.3460   32.9720 C.3   105  LEU105      0.0001
     91  CD2       12.1630   13.5520   30.4950 C.3   105  LEU105      0.0001
     92  N          9.8840    9.8040   28.2540 N.3   120  LYS120     -0.1245
     93  CA        10.1300   10.9460   27.3720 C.3   120  LYS120      0.1561
     94  C          9.2150   10.9070   26.1530 C.2   120  LYS120      0.2260
     95  O          8.5550   11.9030   25.8270 O.2   120  LYS120     -0.2867
     96  CB        11.5980   11.0000   26.9330 C.3   120  LYS120      0.0271
     97  CG        11.9230   12.2710   26.1080 C.3   120  LYS120      0.0035
     98  CD        13.4140   12.4810   25.9200 C.3   120  LYS120      0.0206
     99  CE        14.0140   11.3720   25.0890 C.3   120  LYS120      0.1093
    100  NZ        15.4670   11.2070   25.3930 N.3   120  LYS120     -0.1314
    101  N         13.9460   10.6550   37.4870 N.3   160  GLU160     -0.1245
    102  CA        14.6550    9.5690   36.8180 C.3   160  GLU160      0.1567
    103  C         14.1160    8.2290   37.2970 C.2   160  GLU160      0.2260
    104  O         14.1470    7.9310   38.4990 O.2   160  GLU160     -0.2867
    105  CB        16.1570    9.6250   37.0610 C.3   160  GLU160      0.0388
    106  CG        16.9060    8.8450   35.9840 C.3   160  GLU160      0.1160
    107  CD        17.0850    9.6070   34.6590 C.2   160  GLU160      0.3649
    108  OE1       17.9990    9.2460   33.8750 O.co2 160  GLU160     -0.2457
    109  OE2       16.3390   10.5950   34.4290 O.co2 160  GLU160     -0.2457
    110  N         13.8140   14.9230   40.3450 N.3   180  LEU180     -0.1231
    111  CA        14.8930   15.8350   39.9850 C.3   180  LEU180      0.1693
    112  C         14.4920   17.3060   40.0060 C.2   180  LEU180      0.2592
    113  O         15.3110   18.1440   40.3900 O.2   180  LEU180     -0.2718
    114  CB        15.4440   15.4840   38.5960 C.3   180  LEU180      0.0284
    115  CG        15.6450   13.9700   38.3480 C.3   180  LEU180      0.0019
    116  CD1       15.9010   13.6700   36.8910 C.3   180  LEU180      0.0001
    117  CD2       16.7910   13.4400   39.2090 C.3   180  LEU180      0.0001
    118  N         13.2540   17.6260   39.6290 N.am  181  ASN181     -0.1974
    119  CA        12.7630   18.9950   39.5370 C.3   181  ASN181      0.1688
    120  C         11.2550   18.9510   39.3280 C.2   181  ASN181      0.2292
    121  O         10.6870   17.9100   38.9880 O.2   181  ASN181     -0.2864
    122  CB        13.4420   19.7550   38.3920 C.3   181  ASN181      0.1181
    123  CG        13.3300   19.0230   37.0860 C.2   181  ASN181      0.2629
    124  OD1       12.2400   18.9240   36.5050 O.2   181  ASN181     -0.2716
    125  ND2       14.4570   18.5150   36.6000 N.am  181  ASN181     -0.0877
    126  N         16.7990   14.1840   44.2320 N.3   207  VAL207     -0.1245
    127  CA        18.1930   14.0000   43.8420 C.3   207  VAL207      0.1561
    128  C         19.1330   14.8060   44.7480 C.2   207  VAL207      0.2260
    129  O         18.7620   15.8580   45.2950 O.2   207  VAL207     -0.2867
    130  CB        18.3610   14.3990   42.3650 C.3   207  VAL207      0.0252
    131  CG1       18.1140   15.8910   42.1950 C.3   207  VAL207      0.0019
    132  CG2       19.7260   13.9930   41.8640 C.3   207  VAL207      0.0019
    133  N         27.7330    9.0970   36.2560 N.3   228  GLU228     -0.1245
    134  CA        27.5000    9.7270   34.9720 C.3   228  GLU228      0.1567
    135  C         28.0520   11.1390   34.9750 C.2   228  GLU228      0.2260
    136  O         28.7410   11.5380   34.0290 O.2   228  GLU228     -0.2867
    137  CB        26.0150    9.7380   34.6130 C.3   228  GLU228      0.0388
    138  CG        25.7530   10.5290   33.3420 C.3   228  GLU228      0.1160
    139  CD        24.3860   10.2840   32.7550 C.2   228  GLU228      0.3649
    140  OE1       23.5080    9.7750   33.4750 O.co2 228  GLU228     -0.2457
    141  OE2       24.1970   10.5840   31.5540 O.co2 228  GLU228     -0.2457
    142  N         24.3850   17.6630   36.8340 N.3   231  VAL231     -0.1245
    143  CA        23.6140   18.6810   36.1300 C.3   231  VAL231      0.1561
    144  C         23.8060   19.9820   36.8860 C.2   231  VAL231      0.2260
    145  O         23.4720   20.0750   38.0760 O.2   231  VAL231     -0.2867
    146  CB        22.1240   18.3200   36.0360 C.3   231  VAL231      0.0252
    147  CG1       21.3160   19.4900   35.4540 C.3   231  VAL231      0.0019
    148  CG2       21.9210   17.0600   35.2190 C.3   231  VAL231      0.0019
    149  N         20.3240   25.1400   32.6720 N.3   239  HIS239     -0.1241
    150  CA        21.1310   23.9770   33.0260 C.3   239  HIS239      0.1621
    151  C         22.1780   23.6630   31.9590 C.2   239  HIS239      0.2264
    152  O         22.0460   24.0230   30.7850 O.2   239  HIS239     -0.2867
    153  CB        20.3080   22.6910   33.1830 C.3   239  HIS239      0.0745
    154  CG        19.0180   22.8490   33.9200 C.ar  239  HIS239      0.0817
    155  ND1       17.8270   23.1140   33.2780 N.ar  239  HIS239     -0.2268
    156  CD2       18.7160   22.6990   35.2330 C.ar  239  HIS239      0.1154
    157  CE1       16.8530   23.1640   34.1700 C.ar  239  HIS239      0.1986
    158  NE2       17.3680   22.9210   35.3630 N.ar  239  HIS239     -0.2212
    159  N         24.8930   19.9030   31.4510 N.3   241  LYS241     -0.1245
    160  CA        25.3660   18.6650   32.0480 C.3   241  LYS241      0.1561
    161  C         26.8750   18.5740   31.8960 C.2   241  LYS241      0.2260
    162  O         27.4630   19.1750   30.9920 O.2   241  LYS241     -0.2867
    163  CB        24.6820   17.4470   31.4180 C.3   241  LYS241      0.0271
    164  CG        24.0840   17.7150   30.0580 C.3   241  LYS241      0.0035
    165  CD        23.3610   16.5110   29.4740 C.3   241  LYS241      0.0206
    166  CE        22.6610   16.9280   28.2030 C.3   241  LYS241      0.1093
    167  NZ        21.7050   15.9040   27.7420 N.3   241  LYS241     -0.1314
    168  N         29.5530   15.2190   32.0940 N.3   243  LYS243     -0.1245
    169  CA        29.7280   13.7850   32.2650 C.3   243  LYS243      0.1561
    170  C         31.1940   13.4350   32.4880 C.2   243  LYS243      0.2260
    171  O         32.0990   14.1200   32.0030 O.2   243  LYS243     -0.2867
    172  CB        29.1950   12.9970   31.0610 C.3   243  LYS243      0.0271
    173  CG        27.8330   13.4580   30.5900 C.3   243  LYS243      0.0035
    174  CD        27.0690   12.3680   29.8850 C.3   243  LYS243      0.0206
    175  CE        25.6770   12.8660   29.5410 C.3   243  LYS243      0.1093
    176  NZ        24.8270   11.7600   29.0360 N.3   243  LYS243     -0.1314
    177  N         29.4940    4.7990   27.3910 N.3   251  HIS251     -0.1241
    178  CA        28.2630    5.1300   26.6870 C.3   251  HIS251      0.1621
    179  C         28.4650    5.2570   25.1760 C.2   251  HIS251      0.2264
    180  O         27.4860    5.1730   24.4240 O.2   251  HIS251     -0.2867
    181  CB        27.6930    6.4240   27.2760 C.3   251  HIS251      0.0745
    182  CG        26.2510    6.6580   26.9610 C.ar  251  HIS251      0.0817
    183  ND1       25.3030    5.6550   27.0150 N.ar  251  HIS251     -0.2268
    184  CD2       25.5870    7.7880   26.6220 C.ar  251  HIS251      0.1154
    185  CE1       24.1220    6.1560   26.6980 C.ar  251  HIS251      0.1986
    186  NE2       24.2660    7.4490   26.4620 N.ar  251  HIS251     -0.2212
    187  N         22.9310    8.0810   19.1190 N.3   270  GLY270     -0.1225
    188  CA        22.6020    9.2540   19.9100 C.3   270  GLY270      0.1811
    189  C         23.5750    9.5940   21.0180 C.2   270  GLY270      0.2280
    190  O         23.2230   10.3560   21.9280 O.2   270  GLY270     -0.2866
    191  N         26.8220   13.4260   20.9780 N.3   273  ASP273     -0.1225
    192  CA        26.7600   14.6950   21.7050 C.3   273  ASP273      0.1805
    193  C         27.6440   14.6670   22.9450 C.2   273  ASP273      0.2597
    194  O         28.2860   15.6700   23.2790 O.2   273  ASP273     -0.2718
    195  CB        25.3110   15.0130   22.0910 C.3   273  ASP273      0.1424
    196  CG        24.6770   13.9230   22.9690 C.2   273  ASP273      0.3668
    197  OD1       25.1870   12.7740   22.9960 O.co2 273  ASP273     -0.2456
    198  OD2       23.6550   14.2250   23.6230 O.co2 273  ASP273     -0.2456
    199  N         27.6770   13.5370   23.6580 N.am  274  ASP274     -0.1974
    200  CA        28.5490   13.4430   24.8250 C.3   274  ASP274      0.1709
    201  C         30.0070   13.2210   24.4330 C.2   274  ASP274      0.2293
    202  O         30.9130   13.7580   25.0820 O.2   274  ASP274     -0.2864
    203  CB        28.1040   12.3230   25.7790 C.3   274  ASP274      0.1436
    204  CG        26.6110   12.4090   26.1850 C.2   274  ASP274      0.3671
    205  OD1       26.0890   13.5390   26.2830 O.co2 274  ASP274     -0.2456
    206  OD2       25.9920   11.3530   26.4930 O.co2 274  ASP274     -0.2456
@<TRIPOS>BOND
     1     3     2    1
     2     3     4    2
     3     2     5    1
     4     2     1    1
     5     5     6    1
     6   187   188    1
     7     6     8   ar
     8     6     7   ar
     9     8    10   ar
    10   188   189    1
    11   191   192    1
    12   189   190    2
    13     7     9   ar
    14    10    11   ar
    15   192   195    1
    16   192   193    1
    17   195   196    1
    18     9    11   ar
    19    11    12    1
    20   193   194    2
    21   193   199   am
    22   196   197   ar
    23   196   198   ar
    24    39    38    1
    25    39    40    1
    26   199   200    1
    27    13    14    1
    28    38    37    1
    29    37    36    1
    30    14    17    1
    31    14    15    1
    32   180   179    2
    33   201   200    1
    34   201   202    2
    35    36    33    1
    36   200   203    1
    37    17    18    1
    38    99   100    1
    39    99    98    1
    40   179   178    1
    41    15    16    2
    42    18    19    1
    43   203   204    1
    44    95    94    2
    45    98    97    1
    46    97    96    1
    47    94    93    1
    48    33    32    1
    49    33    34    1
    50    19    20    1
    51   204   205   ar
    52   204   206   ar
    53    20    21    2
    54   186   184   ar
    55   186   185   ar
    56   184   182   ar
    57    35    34    2
    58   178   181    1
    59   178   177    1
    60   185   183   ar
    61    34    41   am
    62    44    43    2
    63    96    93    1
    64   182   183   ar
    65   182   181    1
    66    43    42    1
    67    41    42    1
    68    93    92    1
    69    21    23    1
    70    21    22    1
    71    42    45    1
    72   167   166    1
    73   166   165    1
    74    27    26    2
    75   176   175    1
    76    45    46    1
    77   165   164    1
    78   175   174    1
    79    26    25    1
    80   174   173    1
    81   164   163    1
    82    46    48   ar
    83    46    47   ar
    84    91    89    1
    85    48    50   ar
    86   173   172    1
    87    47    49   ar
    88   152   151    2
    89   162   161    2
    90   172   169    1
    91    25    24    1
    92    25    28    1
    93    50    51   ar
    94   163   160    1
    95   159   160    1
    96    87    86    2
    97    88    89    1
    98    88    85    1
    99   141   139   ar
   100    49    51   ar
   101    89    90    1
   102    28    29    1
   103    84    85    1
   104   161   160    1
   105   151   150    1
   106   171   170    2
   107   168   169    1
   108    74    73    1
   109   169   170    1
   110    85    86    1
   111    31    30    1
   112   149   150    1
   113   139   138    1
   114   139   140   ar
   115   150   153    1
   116    29    30    1
   117   153   154    1
   118   155   154   ar
   119   155   157   ar
   120    73    72    1
   121   138   137    1
   122   108   107   ar
   123   154   156   ar
   124   136   135    2
   125   157   158   ar
   126   109   107   ar
   127   137   134    1
   128   107   106    1
   129    72    71    1
   130   134   135    1
   131   134   133    1
   132   148   146    1
   133   156   158   ar
   134    78    77    2
   135   147   146    1
   136   106   105    1
   137   146   143    1
   138    71    68    1
   139   143   142    1
   140   143   144    1
   141    77    76    1
   142   124   123    2
   143   125   123   am
   144   102   105    1
   145   102   103    1
   146   102   101    1
   147   144   145    2
   148   116   115    1
   149   123   122    1
   150   103   104    2
   151    68    69    1
   152    68    67    1
   153    69    70    2
   154    69    75   am
   155    75    76    1
   156    76    79    1
   157   115   114    1
   158   115   117    1
   159   122   119    1
   160    79    80    1
   161    67    62   am
   162   114   111    1
   163   121   120    2
   164   120   119    1
   165    55    54    2
   166    63    62    2
   167   119   118    1
   168    62    61    1
   169   118   112   am
   170    80    81    1
   171   111   112    1
   172   111   110    1
   173   112   113    2
   174    58    57    1
   175    56    57    1
   176    56    53    1
   177    83    81   ar
   178    54    53    1
   179    54    60   am
   180    52    53    1
   181    81    82   ar
   182    57    59    1
   183    61    60    1
   184    61    64    1
   185    66    64    1
   186   132   130    1
   187    64    65    1
   188   131   130    1
   189   130   127    1
   190   127   126    1
   191   127   128    1
   192   128   129    2
