@<TRIPOS>MOLECULE
tmp/5tt7A00.pdb
 136 129 0 0 0
SMALL
GASTEIGER

@<TRIPOS>ATOM
      1  N          0.6860    3.0230    8.2260 N.3    20  LEU20      -0.1231
      2  CA         1.1430    2.4750    9.5070 C.3    20  LEU20       0.1693
      3  C          1.6900    1.0550    9.3330 C.2    20  LEU20       0.2593
      4  O          2.6450    0.6700   10.0070 O.2    20  LEU20      -0.2718
      5  CB         0.0040    2.4630   10.5320 C.3    20  LEU20       0.0284
      6  CG        -0.5620    3.8180   10.9680 C.3    20  LEU20       0.0019
      7  CD1       -1.8780    3.6320   11.7080 C.3    20  LEU20       0.0001
      8  CD2        0.4350    4.5820   11.8300 C.3    20  LEU20       0.0001
      9  N          1.0760    0.2830    8.4370 N.am   21  GLY21      -0.1942
     10  CA         1.4820   -1.1010    8.1910 C.3    21  GLY21       0.2014
     11  C          0.5530   -1.8160    7.2290 C.2    21  GLY21       0.2639
     12  O         -0.5210   -1.3030    6.9050 O.2    21  GLY21      -0.2714
     13  N          0.9670   -2.9970    6.7710 N.am   22  SER22      -0.1949
     14  CA         0.1690   -3.8010    5.8360 C.3    22  SER22       0.1924
     15  C          0.6520   -5.2470    5.7830 C.2    22  SER22       0.2314
     16  O          0.8850   -5.8670    6.8190 O.2    22  SER22      -0.2863
     17  CB         0.2050   -3.1900    4.4320 C.3    22  SER22       0.2116
     18  OG         1.5330   -3.0750    3.9580 O.3    22  SER22      -0.2180
     19  N         -3.1180   -0.4350    6.6580 N.3    25  VAL25      -0.1245
     20  CA        -3.6150    0.3300    7.8070 C.3    25  VAL25       0.1561
     21  C         -3.0160    1.7340    7.7830 C.2    25  VAL25       0.2260
     22  O         -1.7940    1.8860    7.6740 O.2    25  VAL25      -0.2867
     23  CB        -3.2870   -0.3560    9.1490 C.3    25  VAL25       0.0252
     24  CG1       -3.8450    0.4540   10.3210 C.3    25  VAL25       0.0019
     25  CG2       -3.8520   -1.7720    9.1750 C.3    25  VAL25       0.0019
     26  N         -7.5200    4.4980   13.3690 N.3    40  ALA40      -0.1245
     27  CA        -6.7320    3.6490   12.4750 C.3    40  ALA40       0.1562
     28  C         -7.6980    3.0510   11.4730 C.2    40  ALA40       0.2260
     29  O         -8.7540    2.5430   11.8610 O.2    40  ALA40      -0.2867
     30  CB        -6.0410    2.5500   13.2560 C.3    40  ALA40       0.0290
     31  N         -9.6270   -3.7930   20.6500 N.3    68  VAL68      -0.1245
     32  CA        -9.7580   -2.6060   19.8040 C.3    68  VAL68       0.1561
     33  C        -11.2190   -2.4880   19.3400 C.2    68  VAL68       0.2260
     34  O        -11.7780   -3.4420   18.8220 O.2    68  VAL68      -0.2867
     35  CB        -8.8300   -2.6590   18.5680 C.3    68  VAL68       0.0252
     36  CG1       -9.1590   -1.5390   17.5860 C.3    68  VAL68       0.0019
     37  CG2       -7.3570   -2.5990   18.9820 C.3    68  VAL68       0.0019
     38  N        -11.2420    2.0960   13.0100 N.3    83  MET83      -0.1230
     39  CA       -11.0490    1.5360   14.3580 C.3    83  MET83       0.1702
     40  C        -10.3760    2.5530   15.2800 C.2    83  MET83       0.2592
     41  O         -9.8130    3.5320   14.8090 O.2    83  MET83      -0.2718
     42  CB       -10.1610    0.2960   14.2780 C.3    83  MET83       0.0401
     43  CG       -10.7060   -0.8200   13.4010 C.3    83  MET83       0.0596
     44  SD        -9.4550   -2.0760   13.0710 S.3    83  MET83      -0.1393
     45  CE        -8.4560   -1.2560   11.8270 C.3    83  MET83       0.0692
     46  N        -10.4400    2.3010   16.5900 N.am   84  GLU84      -0.1966
     47  CA        -9.6590    3.0520   17.5920 C.3    84  GLU84       0.1733
     48  C         -8.1770    3.0400   17.2320 C.2    84  GLU84       0.2616
     49  O         -7.6730    2.0320   16.7400 O.2    84  GLU84      -0.2715
     50  CB        -9.7660    2.4070   18.9810 C.3    84  GLU84       0.0429
     51  CG       -11.0850    2.5590   19.7040 C.3    84  GLU84       0.1163
     52  CD       -11.0460    1.9400   21.1040 C.2    84  GLU84       0.3649
     53  OE1      -10.5920    0.7740   21.2480 O.co2  84  GLU84      -0.2457
     54  OE2      -11.4870    2.6120   22.0640 O.co2  84  GLU84      -0.2457
     55  N         -7.4910    4.1450   17.5120 N.am   85  MET85      -0.1963
     56  CA        -6.0550    4.2700   17.2730 C.3    85  MET85       0.1736
     57  C         -5.2940    3.8650   18.5340 C.2    85  MET85       0.2616
     58  O         -5.5830    4.3620   19.6150 O.2    85  MET85      -0.2715
     59  CB        -5.7040    5.7180   16.8980 C.3    85  MET85       0.0427
     60  CG        -4.2230    5.9830   16.6520 C.3    85  MET85       0.0599
     61  SD        -3.6460    5.2150   15.1360 S.3    85  MET85      -0.1393
     62  CE        -1.9580    4.8080   15.5710 C.3    85  MET85       0.0692
     63  N         -4.3280    2.9610   18.3790 N.am   86  ALA86      -0.1963
     64  CA        -3.3810    2.6160   19.4420 C.3    86  ALA86       0.1728
     65  C         -2.0290    3.2040   19.0350 C.2    86  ALA86       0.2616
     66  O         -1.2960    2.6140   18.2480 O.2    86  ALA86      -0.2715
     67  CB        -3.3070    1.1090   19.6130 C.3    86  ALA86       0.0334
     68  N         -1.7240    4.3820   19.5760 N.am   87  GLU87      -0.1963
     69  CA        -0.6280    5.2350   19.0970 C.3    87  GLU87       0.1733
     70  C          0.7770    4.6390   19.2080 C.2    87  GLU87       0.2616
     71  O          1.6400    4.9600   18.3930 O.2    87  GLU87      -0.2715
     72  CB        -0.6320    6.5810   19.8420 C.3    87  GLU87       0.0429
     73  CG        -1.8920    7.4280   19.6640 C.3    87  GLU87       0.1163
     74  CD        -1.9730    8.1690   18.3450 C.2    87  GLU87       0.3649
     75  OE1       -2.9580    8.9160   18.1680 O.co2  87  GLU87      -0.2457
     76  OE2       -1.0810    8.0100   17.4880 O.co2  87  GLU87      -0.2457
     77  N          1.0200    3.8060   20.2180 N.am   88  LEU88      -0.1963
     78  CA         2.3580    3.2370   20.4180 C.3    88  LEU88       0.1728
     79  C          2.6100    1.9670   19.6100 C.2    88  LEU88       0.2617
     80  O          3.7310    1.4680   19.5880 O.2    88  LEU88      -0.2715
     81  CB         2.6230    2.9820   21.9010 C.3    88  LEU88       0.0311
     82  CG         2.4770    4.1690   22.8580 C.3    88  LEU88       0.0022
     83  CD1        3.2370    3.8560   24.1410 C.3    88  LEU88       0.0001
     84  CD2        2.9240    5.5000   22.2700 C.3    88  LEU88       0.0001
     85  N          1.5730    1.4390   18.9650 N.am   89  GLY89      -0.1941
     86  CA         1.7390    0.4040   17.9700 C.3    89  GLY89       0.1998
     87  C          1.8970   -1.0040   18.5180 C.2    89  GLY89       0.2480
     88  O          1.6530   -1.2450   19.7130 O.2    89  GLY89      -0.2729
     89  N          2.2980   -1.9450   17.6420 N.am   90  PRO90      -0.2726
     90  CA         2.3830   -3.3630   17.9870 C.3    90  PRO90       0.1402
     91  C          3.3820   -3.6620   19.0930 C.2    90  PRO90       0.2269
     92  O          4.4610   -3.0640   19.1390 O.2    90  PRO90      -0.2865
     93  CB         2.8320   -4.0200   16.6820 C.3    90  PRO90       0.0296
     94  CG         2.4310   -3.0610   15.6160 C.3    90  PRO90       0.0237
     95  CD         2.6370   -1.7210   16.2270 C.3    90  PRO90       0.0939
     96  N          2.5300   -9.1810   17.4360 N.3   133  ARG133     -0.1231
     97  CA         2.2480   -8.2080   16.3690 C.3   133  ARG133      0.1694
     98  C          0.7950   -7.6850   16.3500 C.2   133  ARG133      0.2592
     99  O          0.5330   -6.6240   15.7870 O.2   133  ARG133     -0.2718
    100  CB         2.6130   -8.7890   14.9940 C.3   133  ARG133      0.0321
    101  CG         1.7470   -9.9640   14.5530 C.3   133  ARG133      0.0489
    102  CD         2.1460  -10.5100   13.1940 C.3   133  ARG133      0.2205
    103  NE         1.3720  -11.7140   12.9100 N.pl3 133  ARG133     -0.0865
    104  CZ         1.6280  -12.9310   13.3950 C.cat 133  ARG133      0.5346
    105  NH1        2.6770  -13.1640   14.1870 N.pl3 133  ARG133      0.1354
    106  NH2        0.8290  -13.9420   13.0700 N.pl3 133  ARG133      0.1354
    107  N         -0.1350   -8.4450   16.9320 N.am  134  ASN134     -0.1974
    108  CA        -1.5610   -8.0930   16.9850 C.3   134  ASN134      0.1688
    109  C         -2.0590   -7.6610   18.3640 C.2   134  ASN134      0.2292
    110  O         -3.2700   -7.6410   18.6230 O.2   134  ASN134     -0.2864
    111  CB        -2.3750   -9.2670   16.4620 C.3   134  ASN134      0.1181
    112  CG        -2.0740   -9.5630   15.0160 C.2   134  ASN134      0.2629
    113  OD1       -1.7110   -8.6670   14.2600 O.2   134  ASN134     -0.2716
    114  ND2       -2.2140  -10.8190   14.6210 N.am  134  ASN134     -0.0877
    115  N         -1.7460   -4.2820   20.4990 N.3   136  LEU136     -0.1245
    116  CA        -1.4240   -2.8930   20.2290 C.3   136  LEU136      0.1561
    117  C         -1.4750   -2.0660   21.5030 C.2   136  LEU136      0.2260
    118  O         -2.3890   -2.2210   22.3110 O.2   136  LEU136     -0.2867
    119  CB        -2.4220   -2.3370   19.2420 C.3   136  LEU136      0.0270
    120  CG        -2.2010   -2.6280   17.7610 C.3   136  LEU136      0.0019
    121  CD1       -1.7310   -4.0280   17.3990 C.3   136  LEU136      0.0001
    122  CD2       -3.5070   -2.3070   17.0960 C.3   136  LEU136      0.0001
    123  N         -5.9940   -6.7460   18.7090 N.3   146  SER146     -0.1202
    124  CA        -6.3880   -6.2300   17.4060 C.3   146  SER146      0.2020
    125  C         -6.3830   -7.3340   16.3590 C.2   146  SER146      0.2618
    126  O         -6.1290   -8.5050   16.6740 O.2   146  SER146     -0.2717
    127  CB        -5.4060   -5.1350   17.0010 C.3   146  SER146      0.2103
    128  OG        -5.7920   -4.4960   15.7950 O.3   146  SER146     -0.2182
    129  N         -6.6770   -6.9440   15.1190 N.am  147  ASP147     -0.1973
    130  CA        -6.4930   -7.7830   13.9310 C.3   147  ASP147      0.1709
    131  C         -7.3310   -9.0600   13.9370 C.2   147  ASP147      0.2293
    132  O         -6.8090  -10.1760   14.0700 O.2   147  ASP147     -0.2864
    133  CB        -5.0060   -8.0800   13.7240 C.3   147  ASP147      0.1436
    134  CG        -4.1940   -6.8180   13.4680 C.2   147  ASP147      0.3671
    135  OD1       -4.0840   -6.4000   12.2970 O.co2 147  ASP147     -0.2456
    136  OD2       -3.6510   -6.2510   14.4320 O.co2 147  ASP147     -0.2456
@<TRIPOS>BOND
     1    18    17    1
     2    17    14    1
     3    15    14    1
     4    15    16    2
     5    14    13    1
     6    19    20    1
     7    13    11   am
     8    12    11    2
     9    11    10    1
    10    22    21    2
    11    21    20    1
    12    20    23    1
    13    10     9    1
    14     1     2    1
    15     9     3   am
    16    23    25    1
    17    23    24    1
    18     3     2    1
    19     3     4    2
    20     2     5    1
    21     5     6    1
    22     6     7    1
    23     6     8    1
    24    28    29    2
    25    28    27    1
    26    45    44    1
    27   135   134   ar
    28    27    30    1
    29    27    26    1
    30   103   102    1
    31   103   104    2
    32    38    39    1
    33   106   104    1
    34    44    43    1
    35   102   101    1
    36   104   105    1
    37    43    42    1
    38   134   133    1
    39   134   136   ar
    40   133   130    1
    41   130   131    1
    42   130   129    1
    43   131   132    2
    44   113   112    2
    45    42    39    1
    46    39    40    1
    47   101   100    1
    48   114   112   am
    49    41    40    2
    50   100    97    1
    51   112   111    1
    52   129   125   am
    53    61    62    1
    54    61    60    1
    55    40    46   am
    56    94    95    1
    57    94    93    1
    58    99    98    2
    59   128   127    1
    60    95    89    1
    61    98    97    1
    62    98   107   am
    63   125   126    2
    64   125   124    1
    65    97    96    1
    66   111   108    1
    67    46    47    1
    68    60    59    1
    69    93    90    1
    70    49    48    2
    71    59    56    1
    72   107   108    1
    73   108   109    1
    74   127   124    1
    75   122   120    1
    76    48    55   am
    77    48    47    1
    78    56    55    1
    79    56    57    1
    80   121   120    1
    81   124   123    1
    82    76    74   ar
    83    36    35    1
    84    47    50    1
    85    89    90    1
    86    89    87   am
    87   120   119    1
    88    86    87    1
    89    86    85    1
    90    90    91    1
    91    75    74   ar
    92    66    65    2
    93    74    73    1
    94   109   110    2
    95    63    57   am
    96    63    64    1
    97    71    70    2
    98    87    88    2
    99    57    58    2
   100    35    37    1
   101    35    32    1
   102    34    33    2
   103    85    79   am
   104    50    51    1
   105    65    64    1
   106    65    68   am
   107    91    92    2
   108    69    70    1
   109    69    68    1
   110    69    72    1
   111    70    77   am
   112   119   116    1
   113    33    32    1
   114    64    67    1
   115    80    79    2
   116    79    78    1
   117    73    72    1
   118    51    52    1
   119    32    31    1
   120    77    78    1
   121   116   115    1
   122   116   117    1
   123    78    81    1
   124    52    53   ar
   125    52    54   ar
   126   117   118    2
   127    81    82    1
   128    84    82    1
   129    82    83    1
