@<TRIPOS>MOLECULE
tmp/5tt8H00.pdb
 134 130 0 0 0
SMALL
GASTEIGER

@<TRIPOS>ATOM
      1  N         33.6010  -43.1540 -161.9690 N.3    64  LYS64      -0.1245
      2  CA        32.2550  -43.2470 -161.4400 C.3    64  LYS64       0.1561
      3  C         31.7620  -44.6600 -161.2400 C.2    64  LYS64       0.2260
      4  O         32.0130  -45.5280 -162.0380 O.2    64  LYS64      -0.2867
      5  CB        31.2960  -42.4720 -162.3450 C.3    64  LYS64       0.0271
      6  CG        29.9140  -42.2980 -161.7530 C.3    64  LYS64       0.0035
      7  CD        28.9250  -41.6850 -162.7340 C.3    64  LYS64       0.0206
      8  CE        29.2260  -40.1760 -162.8890 C.3    64  LYS64       0.1093
      9  NZ        28.3540  -39.3760 -163.8130 N.3    64  LYS64      -0.1314
     10  N         22.2510  -42.4380 -156.7490 N.3    83  ASP83      -0.1225
     11  CA        22.5600  -42.8540 -158.0980 C.3    83  ASP83       0.1805
     12  C         23.9960  -43.3230 -158.3270 C.2    83  ASP83       0.2597
     13  O         24.2420  -44.3910 -158.8820 O.2    83  ASP83      -0.2718
     14  CB        22.2780  -41.6770 -159.0160 C.3    83  ASP83       0.1424
     15  CG        22.6530  -41.9620 -160.4350 C.2    83  ASP83       0.3668
     16  OD1       21.8060  -42.4850 -161.2000 O.co2  83  ASP83      -0.2456
     17  OD2       23.8140  -41.6630 -160.7800 O.co2  83  ASP83      -0.2456
     18  N         24.9380  -42.5360 -157.8370 N.am   84  ASN84      -0.1974
     19  CA        26.3510  -42.8120 -158.0350 C.3    84  ASN84       0.1688
     20  C         27.2360  -42.0240 -157.1020 C.2    84  ASN84       0.2292
     21  O         26.7960  -41.0840 -156.4550 O.2    84  ASN84      -0.2864
     22  CB        26.7660  -42.4990 -159.4880 C.3    84  ASN84       0.1181
     23  CG        26.9890  -41.0040 -159.7420 C.2    84  ASN84       0.2629
     24  OD1       28.0930  -40.4690 -159.5920 O.2    84  ASN84      -0.2716
     25  ND2       25.9300  -40.3280 -160.1260 N.am   84  ASN84      -0.0877
     26  N         31.0250  -40.2010 -157.7240 N.3    86  HIS86      -0.1241
     27  CA        32.0780  -39.9710 -158.6870 C.3    86  HIS86       0.1621
     28  C         33.0690  -39.0370 -158.0570 C.2    86  HIS86       0.2264
     29  O         32.8560  -38.5540 -156.9550 O.2    86  HIS86      -0.2867
     30  CB        31.5460  -39.4150 -160.0040 C.3    86  HIS86       0.0745
     31  CG        30.8060  -38.1170 -159.8810 C.ar   86  HIS86       0.0817
     32  ND1       29.4580  -38.0500 -159.6080 N.ar   86  HIS86      -0.2268
     33  CD2       31.2260  -36.8360 -160.0210 C.ar   86  HIS86       0.1154
     34  CE1       29.0780  -36.7840 -159.5940 C.ar   86  HIS86       0.1986
     35  NE2       30.1320  -36.0270 -159.8410 N.ar   86  HIS86      -0.2212
     36  N         36.2710  -35.9810 -158.1250 N.3    88  HIS88      -0.1241
     37  CA        36.8360  -34.7990 -158.7330 C.3    88  HIS88       0.1621
     38  C         38.1990  -34.5940 -158.1100 C.2    88  HIS88       0.2264
     39  O         38.3390  -34.5580 -156.8960 O.2    88  HIS88      -0.2867
     40  CB        35.9320  -33.6020 -158.4750 C.3    88  HIS88       0.0745
     41  CG        34.5680  -33.7610 -159.0450 C.ar   88  HIS88       0.0817
     42  ND1       34.2320  -33.3420 -160.3150 N.ar   88  HIS88      -0.2268
     43  CD2       33.4710  -34.3690 -158.5510 C.ar   88  HIS88       0.1154
     44  CE1       32.9640  -33.6300 -160.5450 C.ar   88  HIS88       0.1986
     45  NE2       32.4840  -34.2620 -159.4910 N.ar   88  HIS88      -0.2212
     46  N         31.4020  -37.4490 -154.8700 N.3   105  HIS105     -0.1241
     47  CA        30.0540  -36.8730 -154.9690 C.3   105  HIS105      0.1621
     48  C         28.9520  -37.9190 -154.8950 C.2   105  HIS105      0.2264
     49  O         28.8380  -38.7700 -155.7650 O.2   105  HIS105     -0.2867
     50  CB        29.8920  -36.0900 -156.2720 C.3   105  HIS105      0.0745
     51  CG        30.4660  -34.7100 -156.2340 C.ar  105  HIS105      0.0817
     52  ND1       30.5310  -33.9070 -157.3500 N.ar  105  HIS105     -0.2268
     53  CD2       30.9700  -33.9790 -155.2150 C.ar  105  HIS105      0.1154
     54  CE1       31.0800  -32.7510 -157.0250 C.ar  105  HIS105      0.1986
     55  NE2       31.3570  -32.7700 -155.7340 N.ar  105  HIS105     -0.2212
     56  N         25.3000  -38.7390 -155.4030 N.3   107  VAL107     -0.1245
     57  CA        24.2530  -38.1430 -156.2050 C.3   107  VAL107      0.1561
     58  C         22.8440  -38.6970 -155.9190 C.2   107  VAL107      0.2260
     59  O         22.5880  -39.8890 -156.1010 O.2   107  VAL107     -0.2867
     60  CB        24.6210  -38.3340 -157.7000 C.3   107  VAL107      0.0252
     61  CG1       23.6510  -37.6090 -158.6020 C.3   107  VAL107      0.0019
     62  CG2       26.0220  -37.7980 -157.9580 C.3   107  VAL107      0.0019
     63  N         18.3530  -38.3370 -156.1450 N.3   109  LYS109     -0.1245
     64  CA        17.1760  -37.8550 -156.8870 C.3   109  LYS109      0.1561
     65  C         15.8550  -38.3070 -156.2800 C.2   109  LYS109      0.2260
     66  O         15.7570  -39.3990 -155.7510 O.2   109  LYS109     -0.2867
     67  CB        17.2350  -38.3130 -158.3410 C.3   109  LYS109      0.0271
     68  CG        16.1160  -37.7840 -159.1980 C.3   109  LYS109      0.0035
     69  CD        16.2270  -38.2610 -160.6520 C.3   109  LYS109      0.0206
     70  CE        15.8990  -39.7480 -160.8100 C.3   109  LYS109      0.1093
     71  NZ        15.4910  -40.0810 -162.2120 N.3   109  LYS109     -0.1314
     72  N         17.5460  -32.7100 -157.1470 N.3   115  LEU115     -0.1245
     73  CA        18.8910  -33.2110 -156.9910 C.3   115  LEU115      0.1561
     74  C         19.4000  -32.9930 -155.5800 C.2   115  LEU115      0.2260
     75  O         19.1680  -31.9510 -154.9630 O.2   115  LEU115     -0.2867
     76  CB        19.8240  -32.5240 -157.9830 C.3   115  LEU115      0.0270
     77  CG        19.5360  -32.9460 -159.4150 C.3   115  LEU115      0.0019
     78  CD1       20.4680  -32.2300 -160.4130 C.3   115  LEU115      0.0001
     79  CD2       19.6190  -34.4580 -159.5150 C.3   115  LEU115      0.0001
     80  N         23.2060  -33.6570 -153.8250 N.3   117  VAL117     -0.1245
     81  CA        24.5330  -34.2030 -154.0010 C.3   117  VAL117      0.1561
     82  C         25.3840  -33.9950 -152.7670 C.2   117  VAL117      0.2260
     83  O         25.4950  -32.8850 -152.2450 O.2   117  VAL117     -0.2867
     84  CB        25.2350  -33.5910 -155.2300 C.3   117  VAL117      0.0252
     85  CG1       26.5510  -34.2960 -155.4980 C.3   117  VAL117      0.0019
     86  CG2       24.3520  -33.7360 -156.4360 C.3   117  VAL117      0.0019
     87  N         24.7850  -28.7610 -161.0630 N.3   166  LEU166     -0.1231
     88  CA        25.7170  -29.8070 -161.4550 C.3   166  LEU166      0.1693
     89  C         27.0630  -29.1610 -161.8120 C.2   166  LEU166      0.2593
     90  O         27.0940  -28.0980 -162.4330 O.2   166  LEU166     -0.2718
     91  CB        25.1720  -30.5750 -162.6490 C.3   166  LEU166      0.0284
     92  CG        24.0120  -31.4950 -162.2780 C.3   166  LEU166      0.0019
     93  CD1       23.6210  -32.4400 -163.4150 C.3   166  LEU166      0.0001
     94  CD2       24.3340  -32.2420 -160.9910 C.3   166  LEU166      0.0001
     95  N         28.1740  -29.8030 -161.4630 N.am  167  THR167     -0.1939
     96  CA        29.4810  -29.1950 -161.7360 C.3   167  THR167      0.2028
     97  C         29.9610  -29.5500 -163.1380 C.2   167  THR167      0.2642
     98  O         31.0390  -29.1240 -163.5510 O.2   167  THR167     -0.2714
     99  CB        30.5550  -29.6100 -160.7320 C.3   167  THR167      0.1808
    100  OG1       30.8050  -31.0130 -160.8310 O.3   167  THR167     -0.2208
    101  CG2       30.1350  -29.2430 -159.3350 C.3   167  THR167      0.0379
    102  N         29.2040  -30.4060 -163.8270 N.am  168  ALA168     -0.1963
    103  CA        29.4950  -30.7530 -165.2230 C.3   168  ALA168      0.1713
    104  C         28.3480  -30.3610 -166.1650 C.2   168  ALA168      0.2458
    105  O         27.1960  -30.3650 -165.7530 O.2   168  ALA168     -0.2730
    106  CB        29.7750  -32.2410 -165.3380 C.3   168  ALA168      0.0333
    107  N         28.6530  -30.0420 -167.4380 N.am  169  PRO169     -0.2716
    108  CA        27.5460  -29.7340 -168.3450 C.3   169  PRO169      0.1521
    109  C         26.5400  -30.8820 -168.3610 C.2   169  PRO169      0.2440
    110  O         26.9560  -32.0360 -168.2680 O.2   169  PRO169     -0.2731
    111  CB        28.2350  -29.5630 -169.6940 C.3   169  PRO169      0.0310
    112  CG        29.5990  -29.1630 -169.3720 C.3   169  PRO169      0.0237
    113  CD        29.9580  -29.8890 -168.1050 C.3   169  PRO169      0.0939
    114  N         25.2400  -30.5830 -168.5030 N.am  170  PRO170     -0.2727
    115  CA        24.5770  -29.3000 -168.7680 C.3   170  PRO170      0.1402
    116  C         24.4670  -28.3110 -167.6060 C.2   170  PRO170      0.2269
    117  O         23.6890  -27.3710 -167.7120 O.2   170  PRO170     -0.2865
    118  CB        23.1690  -29.7280 -169.1840 C.3   170  PRO170      0.0296
    119  CG        22.9440  -31.0340 -168.5400 C.3   170  PRO170      0.0237
    120  CD        24.2810  -31.6970 -168.4130 C.3   170  PRO170      0.0939
    121  N         23.1240  -28.7040 -152.0920 N.3   177  TRP177     -0.1241
    122  CA        24.4820  -29.1650 -151.8560 C.3   177  TRP177      0.1605
    123  C         24.7920  -29.3240 -150.3800 C.2   177  TRP177      0.2264
    124  O         24.6120  -28.3900 -149.6010 O.2   177  TRP177     -0.2867
    125  CB        25.4670  -28.1870 -152.4680 C.3   177  TRP177      0.0550
    126  CG        25.7280  -28.4740 -153.8930 C.ar  177  TRP177      0.0003
    127  CD1       25.2040  -27.8140 -154.9650 C.ar  177  TRP177      0.0946
    128  CD2       26.5810  -29.4950 -154.4270 C.ar  177  TRP177      0.0152
    129  NE1       25.6710  -28.3610 -156.1280 N.ar  177  TRP177     -0.2442
    130  CE2       26.5180  -29.3950 -155.8290 C.ar  177  TRP177      0.0810
    131  CE3       27.3970  -30.4760 -153.8580 C.ar  177  TRP177      0.0012
    132  CZ2       27.2300  -30.2440 -156.6690 C.ar  177  TRP177      0.0191
    133  CZ3       28.1010  -31.3130 -154.6920 C.ar  177  TRP177      0.0001
    134  CH2       28.0160  -31.1920 -156.0820 C.ar  177  TRP177      0.0015
@<TRIPOS>BOND
     1   111   112    1
     2   111   108    1
     3   112   113    1
     4   118   115    1
     5   118   119    1
     6   115   114    1
     7   115   116    1
     8   119   120    1
     9   114   120    1
    10   114   109   am
    11   109   108    1
    12   109   110    2
    13   108   107    1
    14   113   107    1
    15   117   116    2
    16   107   104   am
    17   104   105    2
    18   104   103    1
    19   106   103    1
    20   103   102    1
    21   102    97   am
    22     9     8    1
    23    98    97    2
    24    93    92    1
    25    97    96    1
    26     8     7    1
    27     7     6    1
    28    91    92    1
    29    91    88    1
    30    90    89    2
    31     5     6    1
    32     5     2    1
    33    92    94    1
    34    71    70    1
    35     4     3    2
    36     1     2    1
    37    89    95   am
    38    89    88    1
    39    96    95    1
    40    96    99    1
    41    88    87    1
    42     2     3    1
    43    16    15   ar
    44   100    99    1
    45    70    69    1
    46    17    15   ar
    47    99   101    1
    48    69    68    1
    49    44    42   ar
    50    44    45   ar
    51    15    14    1
    52    78    77    1
    53    42    41   ar
    54    25    23   am
    55    33    31   ar
    56    33    35   ar
    57    30    31    1
    58    30    27    1
    59    31    32   ar
    60    35    34   ar
    61    23    24    2
    62    23    22    1
    63    32    34   ar
    64    79    77    1
    65    45    43   ar
    66    22    19    1
    67    77    76    1
    68    68    67    1
    69    41    43   ar
    70    41    40    1
    71    14    11    1
    72    13    12    2
    73    37    40    1
    74    37    36    1
    75    37    38    1
    76    27    28    1
    77    27    26    1
    78    61    60    1
    79    67    64    1
    80    12    11    1
    81    12    18   am
    82    38    39    2
    83    11    10    1
    84    28    29    2
    85    19    18    1
    86    19    20    1
    87    76    73    1
    88    62    60    1
    89    60    57    1
    90    52    54   ar
    91    52    51   ar
    92    72    73    1
    93    20    21    2
    94    54    55   ar
    95    73    74    1
    96    64    65    1
    97    64    63    1
    98   132   134   ar
    99   132   130   ar
   100    86    84    1
   101    65    66    2
   102    50    51    1
   103    50    47    1
   104    51    53   ar
   105    57    58    1
   106    57    56    1
   107   129   130   ar
   108   129   127   ar
   109    59    58    2
   110   134   133   ar
   111   130   128   ar
   112    49    48    2
   113    55    53   ar
   114    74    75    2
   115    85    84    1
   116    84    81    1
   117    47    48    1
   118    47    46    1
   119   127   126   ar
   120   133   131   ar
   121   128   126   ar
   122   128   131   ar
   123    81    80    1
   124    81    82    1
   125   126   125    1
   126    82    83    2
   127   125   122    1
   128   121   122    1
   129   122   123    1
   130   123   124    2
