@<TRIPOS>MOLECULE
tmp/5ttdA00.pdb
 235 229 0 0 0
SMALL
GASTEIGER

@<TRIPOS>ATOM
      1  N         61.0110  -11.2450   29.5410 N.3    11  ASN11      -0.1240
      2  CA        60.5870   -9.8690   29.7100 C.3    11  ASN11       0.1653
      3  C         59.1910   -9.7630   30.2640 C.2    11  ASN11       0.2266
      4  O         58.3140  -10.5860   29.9690 O.2    11  ASN11      -0.2867
      5  CB        60.6640   -9.1110   28.3860 C.3    11  ASN11       0.1155
      6  CG        60.8150   -7.6030   28.5820 C.2    11  ASN11       0.2627
      7  OD1       61.5210   -7.1350   29.4720 O.2    11  ASN11      -0.2716
      8  ND2       60.1810   -6.8510   27.7340 N.am   11  ASN11      -0.0877
      9  N         56.7210   -7.8890   29.6130 N.3    13  ASP13      -0.1225
     10  CA        55.6280   -7.7110   28.6800 C.3    13  ASP13       0.1805
     11  C         55.1250   -9.0470   28.0940 C.2    13  ASP13       0.2597
     12  O         54.0740   -9.0760   27.4510 O.2    13  ASP13      -0.2718
     13  CB        55.9800   -6.6800   27.5640 C.3    13  ASP13       0.1424
     14  CG        57.3190   -6.9930   26.7980 C.2    13  ASP13       0.3668
     15  OD1       57.9720   -8.0480   27.0510 O.co2  13  ASP13      -0.2456
     16  OD2       57.7450   -6.1420   25.9580 O.co2  13  ASP13      -0.2456
     17  N         55.8430  -10.1470   28.3060 N.am   14  LYS14      -0.1979
     18  CA        55.4370  -11.4110   27.6900 C.3    14  LYS14       0.1596
     19  C         54.6280  -12.2380   28.6630 C.2    14  LYS14       0.2287
     20  O         54.4480  -11.8500   29.8160 O.2    14  LYS14      -0.2864
     21  CB        56.6330  -12.2470   27.2170 C.3    14  LYS14       0.0298
     22  CG        57.7540  -11.4760   26.5300 C.3    14  LYS14       0.0038
     23  CD        57.3720  -11.0590   25.1490 C.3    14  LYS14       0.0206
     24  CE        58.6010  -10.4760   24.4800 C.3    14  LYS14       0.1093
     25  NZ        58.2330   -9.3450   23.6380 N.3    14  LYS14      -0.1314
     26  N         65.2810   -4.7110   32.6210 N.3    41  LYS41      -0.1245
     27  CA        66.5440   -4.6870   31.8900 C.3    41  LYS41       0.1561
     28  C         67.3230   -6.0120   31.9880 C.2    41  LYS41       0.2260
     29  O         68.5490   -6.0520   32.1300 O.2    41  LYS41      -0.2867
     30  CB        67.3620   -3.4780   32.3630 C.3    41  LYS41       0.0271
     31  CG        66.7560   -2.1390   31.9440 C.3    41  LYS41       0.0035
     32  CD        67.0670   -1.8430   30.4710 C.3    41  LYS41       0.0206
     33  CE        66.1530   -0.7970   29.8460 C.3    41  LYS41       0.1093
     34  NZ        66.2170   -0.8860   28.3560 N.3    41  LYS41      -0.1314
     35  N         68.0480   -8.1530   29.7000 N.3    43  GLU43      -0.1231
     36  CA        68.9790   -8.2910   28.6070 C.3    43  GLU43       0.1699
     37  C         70.3230   -7.6380   28.9300 C.2    43  GLU43       0.2592
     38  O         71.3450   -8.0680   28.3960 O.2    43  GLU43      -0.2718
     39  CB        68.4230   -7.6790   27.3140 C.3    43  GLU43       0.0402
     40  CG        68.4110   -6.1460   27.2840 C.3    43  GLU43       0.1161
     41  CD        67.2990   -5.5030   28.1050 C.2    43  GLU43       0.3649
     42  OE1       66.7050   -6.1830   28.9670 O.co2  43  GLU43      -0.2457
     43  OE2       66.9940   -4.3130   27.8590 O.co2  43  GLU43      -0.2457
     44  N         70.3000   -6.5910   29.7620 N.am   44  GLU44      -0.1979
     45  CA        71.5340   -5.9360   30.2360 C.3    44  GLU44       0.1602
     46  C         72.1030   -6.6310   31.4540 C.2    44  GLU44       0.2287
     47  O         73.3110   -6.7320   31.5810 O.2    44  GLU44      -0.2864
     48  CB        71.2980   -4.4690   30.5850 C.3    44  GLU44       0.0415
     49  CG        71.1100   -3.5660   29.3740 C.3    44  GLU44       0.1163
     50  CD        70.7160   -2.1330   29.7410 C.2    44  GLU44       0.3649
     51  OE1       70.6720   -1.8110   30.9580 O.co2  44  GLU44      -0.2457
     52  OE2       70.4540   -1.3240   28.8040 O.co2  44  GLU44      -0.2457
     53  N         64.8210  -13.6300   25.0250 N.3    60  TRP60      -0.1227
     54  CA        64.8890  -12.2890   24.4420 C.3    60  TRP60       0.1737
     55  C         64.7860  -12.4380   22.9130 C.2    60  TRP60       0.2595
     56  O         64.9230  -13.5370   22.3450 O.2    60  TRP60      -0.2718
     57  CB        66.1970  -11.5620   24.8020 C.3    60  TRP60       0.0564
     58  CG        66.0950  -10.0710   24.5930 C.ar   60  TRP60       0.0003
     59  CD1       66.5520   -9.3600   23.5230 C.ar   60  TRP60       0.0946
     60  CD2       65.4330   -9.1320   25.4470 C.ar   60  TRP60       0.0152
     61  NE1       66.2190   -8.0390   23.6650 N.ar   60  TRP60      -0.2442
     62  CE2       65.5240   -7.8730   24.8330 C.ar   60  TRP60       0.0810
     63  CE3       64.7590   -9.2410   26.6650 C.ar   60  TRP60       0.0012
     64  CZ2       64.9610   -6.7190   25.3950 C.ar   60  TRP60       0.0191
     65  CZ3       64.2270   -8.0900   27.2510 C.ar   60  TRP60       0.0001
     66  CH2       64.3340   -6.8430   26.6160 C.ar   60  TRP60       0.0015
     67  N         64.4970  -11.3510   22.2300 N.am   61  ALA61      -0.1980
     68  CA        64.6360  -11.3620   20.7830 C.3    61  ALA61       0.1597
     69  C         66.0840  -11.7810   20.4310 C.2    61  ALA61       0.2287
     70  O         67.0440  -11.5480   21.1880 O.2    61  ALA61      -0.2864
     71  CB        64.2920  -10.0050   20.2020 C.3    61  ALA61       0.0319
     72  N         68.2760  -10.6860   18.4860 N.3    63  ASP63      -0.1225
     73  CA        69.3220   -9.7140   18.1940 C.3    63  ASP63       0.1805
     74  C         70.3890   -9.6360   19.2740 C.2    63  ASP63       0.2597
     75  O         71.4980   -9.2210   18.9760 O.2    63  ASP63      -0.2718
     76  CB        68.7690   -8.3110   17.8680 C.3    63  ASP63       0.1424
     77  CG        68.0100   -7.6750   19.0280 C.2    63  ASP63       0.3668
     78  OD1       66.9920   -8.2710   19.5060 O.co2  63  ASP63      -0.2456
     79  OD2       68.4110   -6.5560   19.4250 O.co2  63  ASP63      -0.2456
     80  N         70.0890  -10.0440   20.5080 N.am   64  ARG64      -0.1979
     81  CA        71.0280   -9.8710   21.6210 C.3    64  ARG64       0.1597
     82  C         71.9960  -11.0450   21.7360 C.2    64  ARG64       0.2287
     83  O         73.0350  -10.9650   22.3920 O.2    64  ARG64      -0.2864
     84  CB        70.2560   -9.7420   22.9340 C.3    64  ARG64       0.0334
     85  CG        69.9340   -8.3020   23.3230 C.3    64  ARG64       0.0492
     86  CD        71.1760   -7.7910   23.9940 C.3    64  ARG64       0.2205
     87  NE        71.0650   -6.5040   24.6230 N.pl3  64  ARG64      -0.0865
     88  CZ        72.0340   -5.9960   25.3800 C.cat  64  ARG64       0.5346
     89  NH1       73.1630   -6.6910   25.5900 N.pl3  64  ARG64       0.1354
     90  NH2       71.8700   -4.8130   25.9410 N.pl3  64  ARG64       0.1354
     91  N         58.0070  -11.7560   16.0090 N.3   109  GLU109     -0.1245
     92  CA        57.3730  -10.5660   16.5090 C.3   109  GLU109      0.1567
     93  C         57.5910   -9.4560   15.5020 C.2   109  GLU109      0.2260
     94  O         58.7320   -9.1800   15.1500 O.2   109  GLU109     -0.2867
     95  CB        58.0560  -10.1120   17.8170 C.3   109  GLU109      0.0388
     96  CG        58.1680  -11.1790   18.9160 C.3   109  GLU109      0.1160
     97  CD        58.8800  -10.7040   20.1920 C.2   109  GLU109      0.3649
     98  OE1       59.7970   -9.8470   20.1280 O.co2 109  GLU109     -0.2457
     99  OE2       58.5250  -11.2210   21.2840 O.co2 109  GLU109     -0.2457
    100  N         55.2120    4.3630   22.0790 N.3   148  ASN148     -0.1240
    101  CA        56.4580    4.5090   22.8310 C.3   148  ASN148      0.1653
    102  C         57.6180    5.1770   22.0460 C.2   148  ASN148      0.2266
    103  O         58.2060    4.5860   21.1790 O.2   148  ASN148     -0.2867
    104  CB        56.8730    3.1270   23.3470 C.3   148  ASN148      0.1155
    105  CG        58.1040    3.1680   24.2650 C.2   148  ASN148      0.2627
    106  OD1       58.5650    4.2190   24.6660 O.2   148  ASN148     -0.2716
    107  ND2       58.6420    1.9960   24.5800 N.am  148  ASN148     -0.0877
    108  N         62.0060    4.0430   23.2030 N.3   151  GLU151     -0.1231
    109  CA        62.7370    2.8710   22.7650 C.3   151  GLU151      0.1684
    110  C         62.8190    2.8670   21.2370 C.2   151  GLU151      0.2434
    111  O         61.8040    2.8570   20.5470 O.2   151  GLU151     -0.2733
    112  CB        62.0350    1.6110   23.2610 C.3   151  GLU151      0.0402
    113  CG        62.2900    1.2570   24.7230 C.3   151  GLU151      0.1161
    114  CD        63.7510    0.9260   25.0240 C.2   151  GLU151      0.3649
    115  OE1       64.4280    0.1850   24.2340 O.co2 151  GLU151     -0.2457
    116  OE2       64.2350    1.4180   26.0700 O.co2 151  GLU151     -0.2457
    117  N         64.0260    2.8450   20.6940 N.am  152  PRO152     -0.2718
    118  CA        64.1800    2.9540   19.2330 C.3   152  PRO152      0.1535
    119  C         63.5420    1.8070   18.4140 C.2   152  PRO152      0.2599
    120  O         63.2990    1.9740   17.2260 O.2   152  PRO152     -0.2715
    121  CB        65.7000    3.0110   19.0500 C.3   152  PRO152      0.0310
    122  CG        66.2440    2.2670   20.2370 C.3   152  PRO152      0.0237
    123  CD        65.3110    2.5910   21.3790 C.3   152  PRO152      0.0939
    124  N         63.2510    0.6690   19.0380 N.am  153  TYR153     -0.1960
    125  CA        62.4550   -0.3770   18.3810 C.3   153  TYR153      0.1771
    126  C         61.1860    0.2080   17.7430 C.2   153  TYR153      0.2619
    127  O         60.7950   -0.2170   16.6680 O.2   153  TYR153     -0.2715
    128  CB        62.0530   -1.4110   19.4030 C.3   153  TYR153      0.0574
    129  CG        61.3470   -2.6710   18.8840 C.ar  153  TYR153     -0.0198
    130  CD1       62.0030   -3.5750   18.0710 C.ar  153  TYR153     -0.0009
    131  CD2       60.0680   -2.9640   19.2720 C.ar  153  TYR153     -0.0009
    132  CE1       61.3700   -4.7260   17.6270 C.ar  153  TYR153      0.0417
    133  CE2       59.4380   -4.1080   18.8530 C.ar  153  TYR153      0.0417
    134  CZ        60.1020   -4.9910   18.0250 C.ar  153  TYR153      0.1957
    135  OH        59.4850   -6.1530   17.6370 O.3   153  TYR153     -0.2866
    136  N         60.5320    1.1360   18.4370 N.am  154  PHE154     -0.1974
    137  CA        59.2590    1.6750   18.0070 C.3   154  PHE154      0.1639
    138  C         59.3480    2.7790   16.9580 C.2   154  PHE154      0.2290
    139  O         58.3830    2.9800   16.1780 O.2   154  PHE154     -0.2864
    140  CB        58.4280    2.1620   19.2130 C.3   154  PHE154      0.0560
    141  CG        57.9900    1.0480   20.1250 C.ar  154  PHE154     -0.0200
    142  CD1       58.8500    0.5580   21.0990 C.ar  154  PHE154     -0.0042
    143  CD2       56.7610    0.4750   19.9840 C.ar  154  PHE154     -0.0042
    144  CE1       58.4790   -0.4840   21.9290 C.ar  154  PHE154     -0.0003
    145  CE2       56.3690   -0.5680   20.8120 C.ar  154  PHE154     -0.0003
    146  CZ        57.2390   -1.0590   21.7780 C.ar  154  PHE154     -0.0000
    147  N         56.1590    3.5160   27.0350 N.3   208  TYR208     -0.1241
    148  CA        55.3150    2.3500   26.8310 C.3   208  TYR208      0.1605
    149  C         53.9960    2.4630   27.5960 C.2   208  TYR208      0.2264
    150  O         52.9240    2.3530   27.0060 O.2   208  TYR208     -0.2867
    151  CB        56.0570    1.0480   27.2290 C.3   208  TYR208      0.0534
    152  CG        55.3310   -0.1750   26.7690 C.ar  208  TYR208     -0.0201
    153  CD1       55.5620   -0.6990   25.4970 C.ar  208  TYR208     -0.0009
    154  CD2       54.3850   -0.8190   27.5920 C.ar  208  TYR208     -0.0009
    155  CE1       54.8750   -1.8020   25.0420 C.ar  208  TYR208      0.0417
    156  CE2       53.6970   -1.9400   27.1440 C.ar  208  TYR208      0.0417
    157  CZ        53.9410   -2.4170   25.8520 C.ar  208  TYR208      0.1957
    158  OH        53.2860   -3.5320   25.3530 O.3   208  TYR208     -0.2866
    159  N         52.0950   -9.0400   21.9480 N.3   228  TRP228     -0.1241
    160  CA        52.0210   -9.1700   23.3890 C.3   228  TRP228      0.1605
    161  C         51.0140   -8.1870   23.9670 C.2   228  TRP228      0.2264
    162  O         50.4580   -8.4470   25.0070 O.2   228  TRP228     -0.2867
    163  CB        53.4080   -8.9890   24.0350 C.3   228  TRP228      0.0550
    164  CG        54.0400   -7.6830   23.6430 C.ar  228  TRP228      0.0003
    165  CD1       53.7650   -6.4580   24.1630 C.ar  228  TRP228      0.0946
    166  CD2       54.9650   -7.4720   22.5770 C.ar  228  TRP228      0.0152
    167  NE1       54.5100   -5.4960   23.5240 N.ar  228  TRP228     -0.2442
    168  CE2       55.2500   -6.0950   22.5380 C.ar  228  TRP228      0.0810
    169  CE3       55.6030   -8.3260   21.6580 C.ar  228  TRP228      0.0012
    170  CZ2       56.1380   -5.5390   21.6120 C.ar  228  TRP228      0.0191
    171  CZ3       56.4710   -7.7830   20.7300 C.ar  228  TRP228      0.0001
    172  CH2       56.7470   -6.3940   20.7240 C.ar  228  TRP228      0.0015
    173  N         61.8780   -9.2200   15.3240 N.3   258  GLY258     -0.1225
    174  CA        62.5180  -10.0800   16.2980 C.3   258  GLY258      0.1811
    175  C         61.9160  -11.4690   16.3450 C.2   258  GLY258      0.2280
    176  O         60.7350  -11.6230   16.1680 O.2   258  GLY258     -0.2866
    177  N         61.6360  -14.1270   19.1400 N.3   260  LEU260     -0.1245
    178  CA        61.7890  -14.3750   20.5450 C.3   260  LEU260      0.1561
    179  C         62.4740  -15.7170   20.6380 C.2   260  LEU260      0.2260
    180  O         62.0050  -16.6860   20.0300 O.2   260  LEU260     -0.2867
    181  CB        60.4360  -14.4040   21.2430 C.3   260  LEU260      0.0270
    182  CG        60.4710  -14.8130   22.7190 C.3   260  LEU260      0.0019
    183  CD1       61.1030  -13.7170   23.5620 C.3   260  LEU260      0.0001
    184  CD2       59.0780  -15.1560   23.2700 C.3   260  LEU260      0.0001
    185  N         66.1410   -8.8340   12.2870 N.3   328  MET328     -0.1245
    186  CA        67.3200   -8.1740   12.8160 C.3   328  MET328      0.1570
    187  C         68.5120   -9.0920   12.6300 C.2   328  MET328      0.2261
    188  O         68.3700  -10.3240   12.6480 O.2   328  MET328     -0.2867
    189  CB        67.1810   -7.8850   14.3070 C.3   328  MET328      0.0387
    190  CG        66.2250   -6.7640   14.5920 C.3   328  MET328      0.0595
    191  SD        66.0200   -6.5040   16.3630 S.3   328  MET328     -0.1393
    192  CE        64.8740   -7.7900   16.8300 C.3   328  MET328      0.0692
    193  N         73.8730   -4.2180   19.8610 N.3   335  SER335     -0.1217
    194  CA        73.7670   -3.4130   21.0960 C.3   335  SER335      0.1889
    195  C         74.2090   -1.9590   20.9140 C.2   335  SER335      0.2288
    196  O         73.5570   -1.0070   21.3640 O.2   335  SER335     -0.2866
    197  CB        74.6180   -4.0520   22.2240 C.3   335  SER335      0.2089
    198  OG        73.8150   -4.9150   23.0080 O.3   335  SER335     -0.2183
    199  N         71.7010   -0.1070   18.6860 N.3   338  TRP338     -0.1227
    200  CA        70.5430    0.3210   19.4290 C.3   338  TRP338      0.1737
    201  C         70.7880    1.4930   20.4100 C.2   338  TRP338      0.2595
    202  O         69.9790    2.4600   20.4450 O.2   338  TRP338     -0.2718
    203  CB        69.9100   -0.8760   20.1580 C.3   338  TRP338      0.0564
    204  CG        69.1140   -1.8760   19.2920 C.ar  338  TRP338      0.0003
    205  CD1       69.3190   -3.2140   19.2140 C.ar  338  TRP338      0.0946
    206  CD2       67.9850   -1.5960   18.4590 C.ar  338  TRP338      0.0152
    207  NE1       68.3990   -3.7800   18.3890 N.ar  338  TRP338     -0.2442
    208  CE2       67.5650   -2.8100   17.9110 C.ar  338  TRP338      0.0810
    209  CE3       67.2920   -0.4270   18.1160 C.ar  338  TRP338      0.0012
    210  CZ2       66.5170   -2.8990   17.0270 C.ar  338  TRP338      0.0191
    211  CZ3       66.2350   -0.5160   17.2580 C.ar  338  TRP338      0.0001
    212  CH2       65.8480   -1.7510   16.7280 C.ar  338  TRP338      0.0015
    213  N         71.8320    1.4400   21.2350 N.am  339  TYR339     -0.1976
    214  CA        72.1090    2.6030   22.1120 C.3   339  TYR339      0.1639
    215  C         72.3800    3.8670   21.2830 C.2   339  TYR339      0.2290
    216  O         72.0000    4.9660   21.6890 O.2   339  TYR339     -0.2864
    217  CB        73.2580    2.3690   23.1070 C.3   339  TYR339      0.0560
    218  CG        72.9660    1.3300   24.1690 C.ar  339  TYR339     -0.0198
    219  CD1       72.0430    1.5730   25.1760 C.ar  339  TYR339     -0.0009
    220  CD2       73.6280    0.1120   24.1690 C.ar  339  TYR339     -0.0009
    221  CE1       71.7840    0.6250   26.1420 C.ar  339  TYR339      0.0417
    222  CE2       73.3720   -0.8390   25.1260 C.ar  339  TYR339      0.0417
    223  CZ        72.4530   -0.5780   26.1010 C.ar  339  TYR339      0.1957
    224  OH        72.2000   -1.5360   27.0360 O.3   339  TYR339     -0.2866
    225  N         68.8880    5.0240   20.0290 N.3   342  ARG342     -0.1245
    226  CA        68.1640    5.5150   21.2140 C.3   342  ARG342      0.1563
    227  C         68.6260    6.9220   21.5890 C.2   342  ARG342      0.2260
    228  O         67.8310    7.8380   21.8230 O.2   342  ARG342     -0.2867
    229  CB        68.4050    4.5730   22.3850 C.3   342  ARG342      0.0307
    230  CG        67.7870    5.0310   23.6760 C.3   342  ARG342      0.0489
    231  CD        68.0100    4.0250   24.7960 C.3   342  ARG342      0.2205
    232  NE        66.7800    3.9790   25.5860 N.pl3 342  ARG342     -0.0865
    233  CZ        66.4590    4.8430   26.5480 C.cat 342  ARG342      0.5346
    234  NH1       67.3190    5.8030   26.9210 N.pl3 342  ARG342      0.1354
    235  NH2       65.2770    4.7410   27.1570 N.pl3 342  ARG342      0.1354
@<TRIPOS>BOND
     1   185   186    1
     2   187   188    2
     3   187   186    1
     4   186   189    1
     5   189   190    1
     6   190   191    1
     7    94    93    2
     8   173   174    1
     9    93    92    1
    10    91    92    1
    11   176   175    2
    12   139   138    2
    13   174   175    1
    14   191   192    1
    15    92    95    1
    16   127   126    2
    17   212   210   ar
    18   212   211   ar
    19   138   137    1
    20   210   208   ar
    21   120   119    2
    22   211   209   ar
    23   132   134   ar
    24   132   130   ar
    25   135   134    1
    26   126   125    1
    27   126   136   am
    28    95    96    1
    29    76    73    1
    30    76    77    1
    31   208   207   ar
    32   208   206   ar
    33   137   136    1
    34   137   140    1
    35   134   133   ar
    36   130   129   ar
    37   209   206   ar
    38    73    72    1
    39    73    74    1
    40   125   124    1
    41   125   128    1
    42   207   205   ar
    43   119   124   am
    44   119   118    1
    45   206   204   ar
    46   199   200    1
    47   133   131   ar
    48   129   131   ar
    49   129   128    1
    50    96    97    1
    51    75    74    2
    52    77    79   ar
    53    77    78   ar
    54   121   118    1
    55   121   122    1
    56   177   178    1
    57   140   141    1
    58   205   204   ar
    59   118   117    1
    60    74    80   am
    61   204   203    1
    62   200   203    1
    63   200   201    1
    64   193   194    1
    65   143   141   ar
    66   143   145   ar
    67   225   226    1
    68   180   179    2
    69   141   142   ar
    70    98    97   ar
    71    97    99   ar
    72    71    68    1
    73   122   123    1
    74   201   202    2
    75   201   213   am
    76    69    68    1
    77    69    70    2
    78    80    81    1
    79   178   179    1
    80   178   181    1
    81   111   110    2
    82   117   110   am
    83   117   123    1
    84   172   171   ar
    85   172   170   ar
    86   171   169   ar
    87    68    67    1
    88   145   146   ar
    89   195   194    1
    90   195   196    2
    91   194   197    1
    92   142   144   ar
    93   103   102    2
    94   226   227    1
    95   226   229    1
    96   213   214    1
    97   110   109    1
    98   181   182    1
    99   215   216    2
   100   215   214    1
   101   227   228    2
   102   170   168   ar
   103    81    82    1
   104    81    84    1
   105   169   166   ar
   106    82    83    2
   107   146   144   ar
   108   159   160    1
   109   102   101    1
   110   100   101    1
   111   214   217    1
   112   197   198    1
   113    67    55   am
   114    56    55    2
   115   229   230    1
   116   168   166   ar
   117   168   167   ar
   118   166   164   ar
   119   182   184    1
   120   182   183    1
   121   109   108    1
   122   109   112    1
   123   101   104    1
   124    55    54    1
   125    84    85    1
   126   217   218    1
   127   112   113    1
   128    85    86    1
   129   104   105    1
   130   160   161    1
   131   160   163    1
   132    59    61   ar
   133    59    58   ar
   134   167   165   ar
   135    25    24    1
   136   164   163    1
   137   164   165   ar
   138    61    62   ar
   139   230   231    1
   140   161   162    2
   141    86    87    1
   142   218   220   ar
   143   218   219   ar
   144   220   222   ar
   145   115   114   ar
   146   105   107   am
   147   105   106    2
   148    54    57    1
   149    54    53    1
   150    24    23    1
   151    58    57    1
   152    58    60   ar
   153    87    88    2
   154   113   114    1
   155   231   232    1
   156    62    64   ar
   157    62    60   ar
   158   114   116   ar
   159   155   153   ar
   160   155   157   ar
   161   222   223   ar
   162    23    22    1
   163   219   221   ar
   164   158   157    1
   165    88    89    1
   166    88    90    1
   167    64    66   ar
   168    60    63   ar
   169   153   152   ar
   170   232   233    2
   171   157   156   ar
   172    16    14   ar
   173   223   221   ar
   174   223   224    1
   175    22    21    1
   176   233   234    1
   177   233   235    1
   178    66    65   ar
   179    63    65   ar
   180   152   151    1
   181   152   154   ar
   182    14    15   ar
   183    14    13    1
   184   148   147    1
   185   148   151    1
   186   148   149    1
   187   150   149    2
   188   156   154   ar
   189    21    18    1
   190    40    39    1
   191    40    41    1
   192    39    36    1
   193    12    11    2
   194    13    10    1
   195    18    17    1
   196    18    19    1
   197     8     6   am
   198    43    41   ar
   199    11    17   am
   200    11    10    1
   201    41    42   ar
   202    34    33    1
   203     5     6    1
   204     5     2    1
   205    38    37    2
   206     6     7    2
   207    36    37    1
   208    36    35    1
   209    19    20    2
   210    10     9    1
   211    52    50   ar
   212    37    44   am
   213    49    50    1
   214    49    48    1
   215     1     2    1
   216     2     3    1
   217    50    51   ar
   218    44    45    1
   219    33    32    1
   220     4     3    2
   221    45    48    1
   222    45    46    1
   223    32    31    1
   224    46    47    2
   225    27    28    1
   226    27    30    1
   227    27    26    1
   228    31    30    1
   229    28    29    2
