@<TRIPOS>MOLECULE
tmp/5ttdB00.pdb
 223 217 0 0 0
SMALL
GASTEIGER

@<TRIPOS>ATOM
      1  N         63.6770   49.1430   -6.7050 N.3     8  ASN8       -0.1240
      2  CA        64.8950   48.7710   -6.0300 C.3     8  ASN8        0.1653
      3  C         65.2260   47.3300   -6.3040 C.2     8  ASN8        0.2266
      4  O         64.3340   46.4950   -6.4690 O.2     8  ASN8       -0.2867
      5  CB        64.7710   49.0060   -4.5210 C.3     8  ASN8        0.1155
      6  CG        66.1210   49.0830   -3.8200 C.2     8  ASN8        0.2627
      7  OD1       67.0230   49.8210   -4.2260 O.2     8  ASN8       -0.2716
      8  ND2       66.2510   48.3360   -2.7640 N.am    8  ASN8       -0.0877
      9  N         66.2600   44.9320   -4.4620 N.3    10  ASP10      -0.1225
     10  CA        65.8100   43.8700   -3.5190 C.3    10  ASP10       0.1805
     11  C         64.3630   43.3950   -3.7240 C.2    10  ASP10       0.2597
     12  O         63.9060   42.4120   -3.1260 O.2    10  ASP10      -0.2718
     13  CB        66.0870   44.2560   -2.0600 C.3    10  ASP10       0.1424
     14  CG        65.4190   45.5750   -1.6270 C.2    10  ASP10       0.3668
     15  OD1       64.7290   46.2450   -2.4340 O.co2  10  ASP10      -0.2456
     16  OD2       65.6150   45.9490   -0.4470 O.co2  10  ASP10      -0.2456
     17  N         63.6510   44.0600   -4.6230 N.am   11  LYS11      -0.1979
     18  CA        62.2490   43.7560   -4.8920 C.3    11  LYS11       0.1596
     19  C         62.0810   42.9050   -6.1170 C.2    11  LYS11       0.2287
     20  O         63.0300   42.6850   -6.8680 O.2    11  LYS11      -0.2864
     21  CB        61.4720   45.0570   -5.0860 C.3    11  LYS11       0.0298
     22  CG        61.5830   46.0030   -3.9100 C.3    11  LYS11       0.0038
     23  CD        60.9970   45.3730   -2.6640 C.3    11  LYS11       0.0206
     24  CE        60.7910   46.3470   -1.5210 C.3    11  LYS11       0.1093
     25  NZ        62.0170   47.0310   -1.0810 N.3    11  LYS11      -0.1314
     26  N         71.1020   53.3420   -5.8950 N.3    38  LYS38      -0.1245
     27  CA        70.8060   54.6650   -5.3300 C.3    38  LYS38       0.1561
     28  C         69.6770   55.3510   -6.0940 C.2    38  LYS38       0.2260
     29  O         69.7140   56.5710   -6.3320 O.2    38  LYS38      -0.2867
     30  CB        72.0620   55.5620   -5.3420 C.3    38  LYS38       0.0271
     31  CG        73.2480   55.0290   -4.5420 C.3    38  LYS38       0.0035
     32  CD        72.8440   54.7880   -3.0930 C.3    38  LYS38       0.0206
     33  CE        74.0330   54.6090   -2.1600 C.3    38  LYS38       0.1093
     34  NZ        73.5810   54.6240   -0.7410 N.3    38  LYS38      -0.1314
     35  N         66.7310   56.1540   -5.3050 N.3    40  GLU40      -0.1231
     36  CA        66.0530   57.2020   -4.5500 C.3    40  GLU40       0.1699
     37  C         66.7620   58.5750   -4.5280 C.2    40  GLU40       0.2592
     38  O         66.1030   59.5950   -4.3050 O.2    40  GLU40      -0.2718
     39  CB        65.7480   56.7180   -3.1300 C.3    40  GLU40       0.0402
     40  CG        66.8850   56.7780   -2.1270 C.3    40  GLU40       0.1161
     41  CD        67.9770   55.7450   -2.3800 C.2    40  GLU40       0.3649
     42  OE1       67.9260   55.0750   -3.4440 O.co2  40  GLU40      -0.2457
     43  OE2       68.8850   55.6210   -1.5160 O.co2  40  GLU40      -0.2457
     44  N         68.0830   58.5900   -4.7170 N.am   41  GLU41      -0.1979
     45  CA        68.8670   59.8290   -4.8190 C.3    41  GLU41       0.1602
     46  C         68.9930   60.2240   -6.2840 C.2    41  GLU41       0.2287
     47  O         68.9310   61.3970   -6.6360 O.2    41  GLU41      -0.2864
     48  CB        70.2720   59.6450   -4.2420 C.3    41  GLU41       0.0415
     49  CG        70.3550   59.0810   -2.8260 C.3    41  GLU41       0.1163
     50  CD        71.8040   58.9440   -2.3160 C.2    41  GLU41       0.3649
     51  OE1       72.7200   58.6670   -3.1300 O.co2  41  GLU41      -0.2457
     52  OE2       72.0380   59.1080   -1.0950 O.co2  41  GLU41      -0.2457
     53  N         59.2750   53.1550   -4.5880 N.3    54  TRP54      -0.1227
     54  CA        60.0310   53.2020   -3.3510 C.3    54  TRP54       0.1737
     55  C         59.0470   53.1890   -2.1750 C.2    54  TRP54       0.2595
     56  O         57.8290   53.4150   -2.3490 O.2    54  TRP54      -0.2718
     57  CB        60.8800   54.4590   -3.2770 C.3    54  TRP54       0.0564
     58  CG        61.9920   54.3820   -2.2430 C.ar   54  TRP54       0.0003
     59  CD1       61.9930   54.9300   -0.9890 C.ar   54  TRP54       0.0946
     60  CD2       63.2620   53.7230   -2.3910 C.ar   54  TRP54       0.0152
     61  NE1       63.1710   54.6530   -0.3540 N.ar   54  TRP54      -0.2442
     62  CE2       63.9720   53.9170   -1.1930 C.ar   54  TRP54       0.0810
     63  CE3       63.8620   52.9930   -3.4180 C.ar   54  TRP54       0.0012
     64  CZ2       65.2630   53.3940   -0.9910 C.ar   54  TRP54       0.0191
     65  CZ3       65.1370   52.4810   -3.2150 C.ar   54  TRP54       0.0001
     66  CH2       65.8220   52.6880   -2.0130 C.ar   54  TRP54       0.0015
     67  N         59.5420   52.9380   -0.9730 N.am   55  ALA55      -0.1980
     68  CA        58.6720   53.1140    0.1750 C.3    55  ALA55       0.1597
     69  C         58.1800   54.5660    0.2330 C.2    55  ALA55       0.2287
     70  O         58.8710   55.5010   -0.2200 O.2    55  ALA55      -0.2864
     71  CB        59.3570   52.7060    1.4690 C.3    55  ALA55       0.0319
     72  N         58.1200   56.9010    2.2940 N.3    57  ASP57      -0.1225
     73  CA        58.7960   57.9310    3.1180 C.3    57  ASP57       0.1805
     74  C         59.5990   58.9490    2.3190 C.2    57  ASP57       0.2597
     75  O         59.8390   60.0600    2.7770 O.2    57  ASP57      -0.2718
     76  CB        59.7030   57.3050    4.2000 C.3    57  ASP57       0.1424
     77  CG        60.8950   56.5400    3.6200 C.2    57  ASP57       0.3668
     78  OD1       60.6260   55.4720    3.0060 O.co2  57  ASP57      -0.2456
     79  OD2       62.0830   56.9890    3.7920 O.co2  57  ASP57      -0.2456
     80  N         60.0220   58.5660    1.1280 N.am   58  ARG58      -0.1979
     81  CA        60.7430   59.4640    0.2570 C.3    58  ARG58       0.1597
     82  C         59.8200   60.3740   -0.5830 C.2    58  ARG58       0.2287
     83  O         60.3030   61.3420   -1.1730 O.2    58  ARG58      -0.2864
     84  CB        61.6360   58.6350   -0.6800 C.3    58  ARG58       0.0334
     85  CG        63.0600   58.4190   -0.1710 C.3    58  ARG58       0.0492
     86  CD        63.8730   59.6550   -0.4750 C.3    58  ARG58       0.2205
     87  NE        65.3130   59.4990   -0.2870 N.pl3  58  ARG58      -0.0865
     88  CZ        66.2110   60.3730   -0.7400 C.cat  58  ARG58       0.5346
     89  NH1       65.8240   61.4600   -1.4080 N.pl3  58  ARG58       0.1354
     90  NH2       67.5030   60.1600   -0.5390 N.pl3  58  ARG58       0.1354
     91  N         55.3940   46.8320    4.3630 N.3   103  GLU103     -0.1245
     92  CA        56.6100   46.1430    4.6940 C.3   103  GLU103      0.1567
     93  C         56.9940   46.4380    6.1300 C.2   103  GLU103      0.2260
     94  O         57.0650   47.6050    6.5290 O.2   103  GLU103     -0.2867
     95  CB        57.7480   46.6860    3.8410 C.3   103  GLU103      0.0388
     96  CG        57.5120   46.6500    2.3530 C.3   103  GLU103      0.1160
     97  CD        58.5610   47.4420    1.5980 C.2   103  GLU103      0.3649
     98  OE1       59.3600   48.1870    2.2230 O.co2 103  GLU103     -0.2457
     99  OE2       58.5900   47.2930    0.3710 O.co2 103  GLU103     -0.2457
    100  N         72.0500   43.5450    8.3950 N.3   142  ASN142     -0.1240
    101  CA        72.6770   44.6940    7.7780 C.3   142  ASN142      0.1653
    102  C         72.8770   45.8630    8.7320 C.2   142  ASN142      0.2266
    103  O         71.9340   46.5090    9.1300 O.2   142  ASN142     -0.2867
    104  CB        71.8030   45.1360    6.6050 C.3   142  ASN142      0.1155
    105  CG        72.4170   46.2520    5.7860 C.2   142  ASN142      0.2627
    106  OD1       73.5630   46.6660    6.0020 O.2   142  ASN142     -0.2716
    107  ND2       71.6540   46.7230    4.8010 N.am  142  ASN142     -0.0877
    108  N         72.6390   50.0890    6.9230 N.3   145  GLU145     -0.1231
    109  CA        71.4370   50.8860    6.6780 C.3   145  GLU145      0.1684
    110  C         70.6370   51.0180    7.9590 C.2   145  GLU145      0.2434
    111  O         70.3080   50.0150    8.5920 O.2   145  GLU145     -0.2733
    112  CB        70.5880   50.2460    5.5850 C.3   145  GLU145      0.0402
    113  CG        71.1910   50.3840    4.1920 C.3   145  GLU145      0.1161
    114  CD        71.1140   51.7840    3.6170 C.2   145  GLU145      0.3649
    115  OE1       70.2740   52.5890    4.0870 O.co2 145  GLU145     -0.2457
    116  OE2       71.8990   52.0710    2.6790 O.co2 145  GLU145     -0.2457
    117  N         70.3300   52.2600    8.3560 N.am  146  PRO146     -0.2718
    118  CA        69.6530   52.5010    9.6400 C.3   146  PRO146      0.1535
    119  C         68.2920   51.8240    9.8030 C.2   146  PRO146      0.2599
    120  O         67.9000   51.4860   10.9130 O.2   146  PRO146     -0.2715
    121  CB        69.4950   54.0080    9.6830 C.3   146  PRO146      0.0310
    122  CG        69.8860   54.5140    8.3590 C.3   146  PRO146      0.0237
    123  CD        70.7430   53.5060    7.7030 C.3   146  PRO146      0.0939
    124  N         67.5790   51.6400    8.7020 N.am  147  TYR147     -0.1960
    125  CA        66.3370   50.9380    8.7200 C.3   147  TYR147      0.1771
    126  C         66.4200   49.6770    9.5600 C.2   147  TYR147      0.2619
    127  O         65.4650   49.3310   10.2220 O.2   147  TYR147     -0.2715
    128  CB        65.9760   50.5830    7.2760 C.3   147  TYR147      0.0574
    129  CG        64.6740   49.8700    7.0570 C.ar  147  TYR147     -0.0198
    130  CD1       63.4560   50.5330    7.1560 C.ar  147  TYR147     -0.0009
    131  CD2       64.6590   48.5480    6.6690 C.ar  147  TYR147     -0.0009
    132  CE1       62.2450   49.8830    6.8920 C.ar  147  TYR147      0.0417
    133  CE2       63.4660   47.8830    6.4160 C.ar  147  TYR147      0.0417
    134  CZ        62.2550   48.5500    6.5210 C.ar  147  TYR147      0.1957
    135  OH        61.0860   47.8470    6.2520 O.3   147  TYR147     -0.2866
    136  N         67.5530   48.9670    9.5150 N.am  148  PHE148     -0.1974
    137  CA        67.6230   47.6530   10.1440 C.3   148  PHE148      0.1639
    138  C         67.9070   47.7140   11.6360 C.2   148  PHE148      0.2290
    139  O         67.5620   46.7780   12.3630 O.2   148  PHE148     -0.2864
    140  CB        68.6670   46.7600    9.4620 C.3   148  PHE148      0.0560
    141  CG        68.2850   46.3510    8.0740 C.ar  148  PHE148     -0.0200
    142  CD1       68.6110   47.1510    6.9910 C.ar  148  PHE148     -0.0042
    143  CD2       67.5880   45.1870    7.8520 C.ar  148  PHE148     -0.0042
    144  CE1       68.2230   46.8130    5.7240 C.ar  148  PHE148     -0.0003
    145  CE2       67.2100   44.8310    6.5800 C.ar  148  PHE148     -0.0003
    146  CZ        67.5300   45.6420    5.5170 C.ar  148  PHE148     -0.0000
    147  N         60.7720   40.5660    1.2790 N.3   222  TRP222     -0.1241
    148  CA        61.5010   40.4230    0.0180 C.3   222  TRP222      0.1605
    149  C         62.6050   39.3620    0.1170 C.2   222  TRP222      0.2264
    150  O         62.9760   38.7680   -0.8970 O.2   222  TRP222     -0.2867
    151  CB        62.0910   41.7610   -0.4280 C.3   222  TRP222      0.0550
    152  CG        62.9170   42.3660    0.5940 C.ar  222  TRP222      0.0003
    153  CD1       64.2220   42.0750    0.8580 C.ar  222  TRP222      0.0946
    154  CD2       62.5170   43.3500    1.5420 C.ar  222  TRP222      0.0152
    155  NE1       64.6640   42.8240    1.9140 N.ar  222  TRP222     -0.2442
    156  CE2       63.6380   43.6210    2.3530 C.ar  222  TRP222      0.0810
    157  CE3       61.3190   44.0500    1.7770 C.ar  222  TRP222      0.0012
    158  CZ2       63.6090   44.5540    3.3850 C.ar  222  TRP222      0.0191
    159  CZ3       61.2800   44.9800    2.8240 C.ar  222  TRP222      0.0001
    160  CH2       62.4210   45.2180    3.6120 C.ar  222  TRP222      0.0015
    161  N         57.1740   50.6140    6.0780 N.3   252  GLY252     -0.1225
    162  CA        57.1280   51.2310    4.7590 C.3   252  GLY252      0.1811
    163  C         55.9480   50.7050    3.9630 C.2   252  GLY252      0.2280
    164  O         55.5530   49.5500    4.0880 O.2   252  GLY252     -0.2866
    165  N         55.3830   50.2810    0.1710 N.3   254  LEU254     -0.1245
    166  CA        56.0040   50.3290   -1.1450 C.3   254  LEU254      0.1561
    167  C         54.9920   50.9950   -2.0780 C.2   254  LEU254      0.2260
    168  O         53.8810   50.5170   -2.2170 O.2   254  LEU254     -0.2867
    169  CB        56.3480   48.9200   -1.6600 C.3   254  LEU254      0.0270
    170  CG        56.8180   48.8130   -3.1320 C.3   254  LEU254      0.0019
    171  CD1       58.2120   49.3910   -3.3120 C.3   254  LEU254      0.0001
    172  CD2       56.7830   47.3880   -3.6400 C.3   254  LEU254      0.0001
    173  N         56.0640   55.0650    8.6690 N.3   322  MET322     -0.1245
    174  CA        56.9950   56.1840    8.6100 C.3   322  MET322      0.1570
    175  C         56.2320   57.4270    8.2110 C.2   322  MET322      0.2261
    176  O         55.2620   57.3290    7.4940 O.2   322  MET322     -0.2867
    177  CB        58.0990   55.9580    7.5620 C.3   322  MET322      0.0387
    178  CG        59.1340   54.8960    7.9140 C.3   322  MET322      0.0595
    179  SD        60.3560   54.6480    6.6050 S.3   322  MET322     -0.1393
    180  CE        59.4850   53.5510    5.5030 C.3   322  MET322      0.0692
    181  N         64.5680   62.3280    4.6250 N.3   329  SER329     -0.1217
    182  CA        65.8910   62.0650    4.0560 C.3   329  SER329      0.1889
    183  C         66.9870   62.4730    5.0220 C.2   329  SER329      0.2288
    184  O         67.9000   61.6940    5.2790 O.2   329  SER329     -0.2866
    185  CB        66.0870   62.8130    2.7500 C.3   329  SER329      0.2089
    186  OG        64.9100   62.7250    1.9990 O.3   329  SER329     -0.2183
    187  N         67.2470   60.1400    8.0010 N.3   332  TRP332     -0.1227
    188  CA        67.8290   58.8570    7.6800 C.3   332  TRP332      0.1737
    189  C         69.3380   58.9820    7.4730 C.2   332  TRP332      0.2595
    190  O         70.0960   58.1590    7.9790 O.2   332  TRP332     -0.2718
    191  CB        67.1620   58.2520    6.4350 C.3   332  TRP332      0.0564
    192  CG        65.8740   57.4940    6.6510 C.ar  332  TRP332      0.0003
    193  CD1       64.7280   57.6300    5.9270 C.ar  332  TRP332      0.0946
    194  CD2       65.6230   56.4480    7.5910 C.ar  332  TRP332      0.0152
    195  NE1       63.7840   56.7320    6.3570 N.ar  332  TRP332     -0.2442
    196  CE2       64.3140   55.9920    7.3730 C.ar  332  TRP332      0.0810
    197  CE3       66.3870   55.8290    8.5780 C.ar  332  TRP332      0.0012
    198  CZ2       63.7480   54.9780    8.1210 C.ar  332  TRP332      0.0191
    199  CZ3       65.8090   54.8150    9.3220 C.ar  332  TRP332      0.0001
    200  CH2       64.5090   54.4060    9.0940 C.ar  332  TRP332      0.0015
    201  N         69.7720   60.0050    6.7400 N.am  333  TYR333     -0.1976
    202  CA        71.2110   60.2980    6.6260 C.3   333  TYR333      0.1639
    203  C         71.8290   60.4690    7.9930 C.2   333  TYR333      0.2290
    204  O         72.8360   59.8450    8.3100 O.2   333  TYR333     -0.2864
    205  CB        71.4830   61.5510    5.8000 C.3   333  TYR333      0.0560
    206  CG        71.2650   61.3390    4.3250 C.ar  333  TYR333     -0.0198
    207  CD1       71.9760   60.3660    3.6300 C.ar  333  TYR333     -0.0009
    208  CD2       70.3490   62.1150    3.6150 C.ar  333  TYR333     -0.0009
    209  CE1       71.7720   60.1650    2.2700 C.ar  333  TYR333      0.0417
    210  CE2       70.1460   61.9250    2.2600 C.ar  333  TYR333      0.0417
    211  CZ        70.8550   60.9490    1.5990 C.ar  333  TYR333      0.1957
    212  OH        70.6440   60.7630    0.2600 O.3   333  TYR333     -0.2866
    213  N         72.1570   57.2490    9.7780 N.3   336  ARG336     -0.1245
    214  CA        73.0390   56.2870    9.1210 C.3   336  ARG336      0.1563
    215  C         74.4580   56.5250    9.6040 C.2   336  ARG336      0.2260
    216  O         75.1460   55.5900   10.0240 O.2   336  ARG336     -0.2867
    217  CB        72.9820   56.3710    7.5810 C.3   336  ARG336      0.0307
    218  CG        74.1830   55.6980    6.9260 C.3   336  ARG336      0.0489
    219  CD        74.0380   55.3840    5.4500 C.3   336  ARG336      0.2205
    220  NE        74.0740   56.5650    4.5850 N.pl3 336  ARG336     -0.0865
    221  CZ        74.1130   56.5190    3.2470 C.cat 336  ARG336      0.5346
    222  NH1       74.1220   55.3440    2.6020 N.pl3 336  ARG336      0.1354
    223  NH2       74.1340   57.6510    2.5410 N.pl3 336  ARG336      0.1354
@<TRIPOS>BOND
     1    20    19    2
     2     1     2    1
     3    47    46    2
     4     4     3    2
     5    29    28    2
     6     3     2    1
     7    46    45    1
     8    19    18    1
     9    28    27    1
    10     2     5    1
    11    26    27    1
    12    30    27    1
    13    30    31    1
    14    35    36    1
    15    21    18    1
    16    21    22    1
    17    18    17    1
    18    45    44    1
    19    45    48    1
    20    44    37   am
    21    17    11   am
    22    53    54    1
    23    36    37    1
    24    36    39    1
    25    31    32    1
    26    37    38    2
    27     5     6    1
    28     9    10    1
    29    48    49    1
    30     7     6    2
    31    22    23    1
    32     6     8   am
    33    11    10    1
    34    11    12    2
    35   172   170    1
    36    10    13    1
    37    42    41   ar
    38    63    65   ar
    39    63    60   ar
    40    54    57    1
    41    54    55    1
    42   171   170    1
    43    57    58    1
    44    65    66   ar
    45   170   169    1
    46    51    50   ar
    47    39    40    1
    48    32    33    1
    49    49    50    1
    50    23    24    1
    51    15    14   ar
    52    60    58   ar
    53    60    62   ar
    54    41    40    1
    55    41    43   ar
    56    56    55    2
    57    50    52   ar
    58    58    59   ar
    59   168   167    2
    60    55    67   am
    61    33    34    1
    62   167   166    1
    63    13    14    1
    64    66    64   ar
    65   169   166    1
    66    14    16   ar
    67    24    25    1
    68    89    88    1
    69    62    64   ar
    70    62    61   ar
    71    83    82    2
    72   166   165    1
    73    59    61   ar
    74    67    68    1
    75   150   149    2
    76    88    90    1
    77    88    87    2
    78    84    85    1
    79    84    81    1
    80    82    81    1
    81    86    87    1
    82    86    85    1
    83   151   148    1
    84   151   152    1
    85    70    69    2
    86   148   149    1
    87   148   147    1
    88    68    69    1
    89    68    71    1
    90    81    80    1
    91   212   211    1
    92    99    97   ar
    93   152   153   ar
    94   152   154   ar
    95   153   155   ar
    96    80    74   am
    97   154   157   ar
    98   154   156   ar
    99    97    98   ar
   100    97    96    1
   101   211   210   ar
   102   211   209   ar
   103   157   159   ar
   104   155   156   ar
   105   186   185    1
   106   210   208   ar
   107   209   207   ar
   108    72    73    1
   109    74    75    2
   110    74    73    1
   111    96    95    1
   112   156   158   ar
   113   223   221    1
   114   222   221    1
   115   116   114   ar
   116   185   182    1
   117   159   160   ar
   118    78    77   ar
   119    73    76    1
   120   221   220    2
   121   158   160   ar
   122   208   206   ar
   123   114   115   ar
   124   114   113    1
   125    77    79   ar
   126    77    76    1
   127   207   206   ar
   128    95    92    1
   129   163   164    2
   130   163   162    1
   131   182   181    1
   132   182   183    1
   133   113   112    1
   134   206   205    1
   135    91    92    1
   136   220   219    1
   137    92    93    1
   138   162   161    1
   139   107   105   am
   140   183   184    2
   141   219   218    1
   142   180   179    1
   143   146   144   ar
   144   146   145   ar
   145   112   109    1
   146   144   142   ar
   147   105   106    2
   148   105   104    1
   149   205   202    1
   150   193   195   ar
   151   193   192   ar
   152    93    94    2
   153   135   134    1
   154   195   196   ar
   155   133   134   ar
   156   133   131   ar
   157   191   192    1
   158   191   188    1
   159   134   132   ar
   160   145   143   ar
   161   179   178    1
   162   104   101    1
   163   202   201    1
   164   202   203    1
   165   192   194   ar
   166   131   129   ar
   167   109   108    1
   168   109   110    1
   169   201   189   am
   170   132   130   ar
   171   218   217    1
   172   142   141   ar
   173   129   130   ar
   174   129   128    1
   175   128   125    1
   176   196   194   ar
   177   196   198   ar
   178   189   188    1
   179   189   190    2
   180   176   175    2
   181   177   178    1
   182   177   174    1
   183   217   214    1
   184   194   197   ar
   185   188   187    1
   186   123   117    1
   187   123   122    1
   188   101   100    1
   189   101   102    1
   190   143   141   ar
   191   110   117   am
   192   110   111    2
   193   203   204    2
   194   141   140    1
   195   198   200   ar
   196   175   174    1
   197   117   118    1
   198   122   121    1
   199   197   199   ar
   200   174   173    1
   201   124   125    1
   202   124   119   am
   203   125   126    1
   204   102   103    2
   205   200   199   ar
   206   214   215    1
   207   214   213    1
   208   140   137    1
   209   136   126   am
   210   136   137    1
   211   126   127    2
   212   215   216    2
   213   118   121    1
   214   118   119    1
   215   119   120    2
   216   137   138    1
   217   138   139    2
