@<TRIPOS>MOLECULE
tmp/5ttfB01.pdb
 147 141 0 0 0
SMALL
GASTEIGER

@<TRIPOS>ATOM
      1  N        -15.4730  -16.5480   58.0450 N.3   157  ASP157     -0.1239
      2  CA       -16.3100  -17.7540   58.2980 C.3   157  ASP157      0.1674
      3  C        -17.3480  -17.4910   59.3840 C.2   157  ASP157      0.2266
      4  O        -18.4790  -17.9410   59.2700 O.2   157  ASP157     -0.2867
      5  CB       -15.4640  -18.9650   58.6820 C.3   157  ASP157      0.1410
      6  CG       -16.2870  -20.2420   58.7780 C.2   157  ASP157      0.3668
      7  OD1      -17.4310  -20.3470   58.2080 O.co2 157  ASP157     -0.2456
      8  OD2      -15.7520  -21.2260   59.3070 O.co2 157  ASP157     -0.2456
      9  N        -20.1690  -15.6020   57.6470 N.3   160  ALA160     -0.1231
     10  CA       -20.8200  -16.5950   56.7590 C.3   160  ALA160      0.1694
     11  C        -21.7010  -17.5710   57.5510 C.2   160  ALA160      0.2592
     12  O        -22.7730  -17.9850   57.0820 O.2   160  ALA160     -0.2718
     13  CB       -19.7810  -17.3770   55.9750 C.3   160  ALA160      0.0304
     14  N        -21.2290  -17.9230   58.7460 N.am  161  ASP161     -0.1960
     15  CA       -21.9750  -18.7760   59.6850 C.3   161  ASP161      0.1840
     16  C        -23.3420  -18.2280   60.1450 C.2   161  ASP161      0.2622
     17  O        -24.1820  -19.0160   60.5720 O.2   161  ASP161     -0.2715
     18  CB       -21.1070  -19.0840   60.9060 C.3   161  ASP161      0.1450
     19  CG       -21.5970  -20.2460   61.7390 C.2   161  ASP161      0.3671
     20  OD1      -22.5600  -20.9180   61.4070 O.co2 161  ASP161     -0.2456
     21  OD2      -20.9220  -20.5970   62.7100 O.co2 161  ASP161     -0.2456
     22  N        -23.5710  -16.9110   60.0690 N.am  162  VAL162     -0.1963
     23  CA       -24.8720  -16.3150   60.4370 C.3   162  VAL162      0.1727
     24  C        -25.5840  -15.6090   59.2830 C.2   162  VAL162      0.2616
     25  O        -26.5460  -14.8730   59.5130 O.2   162  VAL162     -0.2715
     26  CB       -24.7620  -15.3530   61.6540 C.3   162  VAL162      0.0290
     27  CG1      -24.1090  -16.0760   62.8280 C.3   162  VAL162      0.0023
     28  CG2      -24.0190  -14.0530   61.3090 C.3   162  VAL162      0.0023
     29  N        -25.1300  -15.8380   58.0480 N.am  163  ARG163     -0.1963
     30  CA       -25.8040  -15.2830   56.8740 C.3   163  ARG163      0.1729
     31  C        -26.9830  -16.1790   56.5000 C.2   163  ARG163      0.2616
     32  O        -26.8400  -17.3960   56.4320 O.2   163  ARG163     -0.2715
     33  CB       -24.8220  -15.1560   55.7080 C.3   163  ARG163      0.0348
     34  CG       -23.7820  -14.0550   55.9370 C.3   163  ARG163      0.0492
     35  CD       -24.0170  -12.8460   55.0560 C.3   163  ARG163      0.2205
     36  NE       -23.2710  -11.6690   55.5050 N.pl3 163  ARG163     -0.0865
     37  CZ       -22.7570  -10.7210   54.7140 C.cat 163  ARG163      0.5346
     38  NH1      -22.8540  -10.7930   53.3900 N.pl3 163  ARG163      0.1354
     39  NH2      -22.1240   -9.6880   55.2680 N.pl3 163  ARG163      0.1354
     40  N        -28.1370  -15.5610   56.2560 N.am  164  GLU164     -0.1977
     41  CA       -29.3690  -16.2840   55.9340 C.3   164  GLU164      0.1602
     42  C        -29.2650  -16.9900   54.5810 C.2   164  GLU164      0.2287
     43  O        -29.4300  -18.2140   54.4910 O.2   164  GLU164     -0.2864
     44  CB       -30.5610  -15.3150   55.9160 C.3   164  GLU164      0.0415
     45  CG       -30.6840  -14.4070   57.1450 C.3   164  GLU164      0.1163
     46  CD       -30.9460  -15.1550   58.4460 C.2   164  GLU164      0.3649
     47  OE1      -31.5720  -16.2330   58.4200 O.co2 164  GLU164     -0.2457
     48  OE2      -30.5370  -14.6570   59.5070 O.co2 164  GLU164     -0.2457
     49  N        -27.1290  -18.4280   51.8640 N.3   166  ASP166     -0.1239
     50  CA       -25.8050  -18.9650   51.5260 C.3   166  ASP166      0.1674
     51  C        -25.7150  -19.5150   50.0760 C.2   166  ASP166      0.2266
     52  O        -24.8480  -20.3310   49.7880 O.2   166  ASP166     -0.2867
     53  CB       -25.3500  -20.0100   52.5530 C.3   166  ASP166      0.1410
     54  CG       -26.2910  -21.2060   52.6590 C.2   166  ASP166      0.3668
     55  OD1      -27.4000  -21.1730   52.0880 O.co2 166  ASP166     -0.2456
     56  OD2      -25.9100  -22.1690   53.3470 O.co2 166  ASP166     -0.2456
     57  N        -22.1240  -18.2330   47.9280 N.3   169  LEU169     -0.1231
     58  CA       -20.9330  -18.2090   48.7830 C.3   169  LEU169      0.1693
     59  C        -19.8480  -19.0440   48.1520 C.2   169  LEU169      0.2592
     60  O        -20.1190  -20.1520   47.6760 O.2   169  LEU169     -0.2718
     61  CB       -21.2270  -18.7790   50.1640 C.3   169  LEU169      0.0284
     62  CG       -21.8620  -17.9310   51.2570 C.3   169  LEU169      0.0019
     63  CD1      -21.9440  -18.7510   52.5310 C.3   169  LEU169      0.0001
     64  CD2      -21.0640  -16.6670   51.5320 C.3   169  LEU169      0.0001
     65  N        -18.6230  -18.5180   48.1840 N.am  170  PHE170     -0.1962
     66  CA       -17.4320  -19.2390   47.7340 C.3   170  PHE170      0.1771
     67  C        -16.3980  -19.2490   48.8470 C.2   170  PHE170      0.2619
     68  O        -16.0310  -18.2010   49.3370 O.2   170  PHE170     -0.2715
     69  CB       -16.8430  -18.6020   46.4770 C.3   170  PHE170      0.0574
     70  CG       -15.8600  -19.4940   45.7570 C.ar  170  PHE170     -0.0200
     71  CD1      -14.5720  -19.6360   46.2190 C.ar  170  PHE170     -0.0042
     72  CD2      -16.2360  -20.1860   44.6010 C.ar  170  PHE170     -0.0042
     73  CE1      -13.6610  -20.4490   45.5670 C.ar  170  PHE170     -0.0003
     74  CE2      -15.3380  -21.0050   43.9580 C.ar  170  PHE170     -0.0003
     75  CZ       -14.0540  -21.1500   44.4480 C.ar  170  PHE170     -0.0000
     76  N        -15.9270  -20.4420   49.2160 N.am  171  ASP171     -0.1971
     77  CA       -15.0150  -20.6230   50.3460 C.3   171  ASP171      0.1709
     78  C        -13.5690  -20.4120   49.9560 C.2   171  ASP171      0.2293
     79  O        -13.0930  -20.9970   48.9830 O.2   171  ASP171     -0.2864
     80  CB       -15.1640  -22.0270   50.9240 C.3   171  ASP171      0.1436
     81  CG       -16.4510  -22.2120   51.7380 C.2   171  ASP171      0.3671
     82  OD1      -17.1450  -21.2320   52.0690 O.co2 171  ASP171     -0.2456
     83  OD2      -16.7800  -23.3700   52.0340 O.co2 171  ASP171     -0.2456
     84  N        -10.5350  -19.1980   58.2680 N.3   176  VAL176     -0.1245
     85  CA       -10.9190  -19.1760   56.8470 C.3   176  VAL176      0.1561
     86  C        -11.8250  -17.9970   56.5050 C.2   176  VAL176      0.2260
     87  O        -12.5290  -17.4540   57.3780 O.2   176  VAL176     -0.2867
     88  CB       -11.6840  -20.4570   56.4510 C.3   176  VAL176      0.0252
     89  CG1      -10.7690  -21.6670   56.4750 C.3   176  VAL176      0.0019
     90  CG2      -12.9160  -20.6500   57.3360 C.3   176  VAL176      0.0019
     91  N        -14.5150  -16.1770   53.1990 N.3   178  CYS178     -0.1235
     92  CA       -15.4160  -16.4490   52.0750 C.3   178  CYS178      0.1677
     93  C        -15.7020  -15.2060   51.2240 C.2   178  CYS178      0.2270
     94  O        -15.5950  -14.0670   51.7040 O.2   178  CYS178     -0.2867
     95  CB       -16.7360  -16.9890   52.5890 C.3   178  CYS178      0.0956
     96  SG       -16.5570  -18.3340   53.7760 S.3   178  CYS178     -0.0801
     97  N        -19.7620  -26.3380   42.2310 N.3   234  TYR234     -0.1241
     98  CA       -19.9960  -25.7460   43.5580 C.3   234  TYR234      0.1605
     99  C        -19.3900  -26.5260   44.6910 C.2   234  TYR234      0.2264
    100  O        -18.9480  -25.9300   45.6710 O.2   234  TYR234     -0.2867
    101  CB       -21.5020  -25.5750   43.8360 C.3   234  TYR234      0.0534
    102  CG       -22.2550  -24.5170   43.0310 C.ar  234  TYR234     -0.0201
    103  CD1      -21.6650  -23.8020   41.9990 C.ar  234  TYR234     -0.0009
    104  CD2      -23.6050  -24.2800   43.2920 C.ar  234  TYR234     -0.0009
    105  CE1      -22.3740  -22.8510   41.2920 C.ar  234  TYR234      0.0417
    106  CE2      -24.3200  -23.3520   42.5880 C.ar  234  TYR234      0.0417
    107  CZ       -23.7180  -22.6320   41.6060 C.ar  234  TYR234      0.1957
    108  OH       -24.4590  -21.6940   40.9450 O.3   234  TYR234     -0.2866
    109  N        -19.6810  -29.1730   49.9870 N.3   237  ARG237     -0.1231
    110  CA       -20.2760  -28.3880   51.0740 C.3   237  ARG237      0.1694
    111  C        -21.6060  -27.7590   50.6550 C.2   237  ARG237      0.2592
    112  O        -22.5580  -27.7550   51.4420 O.2   237  ARG237     -0.2718
    113  CB       -19.3380  -27.2920   51.5830 C.3   237  ARG237      0.0321
    114  CG       -19.9570  -26.4820   52.7220 C.3   237  ARG237      0.0489
    115  CD       -18.9220  -25.6390   53.4390 C.3   237  ARG237      0.2205
    116  NE       -17.8760  -26.4840   54.0090 N.pl3 237  ARG237     -0.0865
    117  CZ       -16.6400  -26.0920   54.3320 C.cat 237  ARG237      0.5346
    118  NH1      -16.2370  -24.8270   54.1730 N.pl3 237  ARG237      0.1354
    119  NH2      -15.7900  -26.9890   54.8320 N.pl3 237  ARG237      0.1354
    120  N        -21.6440  -27.1920   49.4370 N.am  238  PHE238     -0.1976
    121  CA       -22.8740  -26.6410   48.8710 C.3   238  PHE238      0.1639
    122  C        -23.9880  -27.6780   48.8350 C.2   238  PHE238      0.2290
    123  O        -25.0910  -27.4250   49.3280 O.2   238  PHE238     -0.2864
    124  CB       -22.6530  -26.0830   47.4530 C.3   238  PHE238      0.0560
    125  CG       -23.8830  -25.4660   46.8340 C.ar  238  PHE238     -0.0200
    126  CD1      -24.8060  -26.2580   46.1190 C.ar  238  PHE238     -0.0042
    127  CD2      -24.1300  -24.0860   46.9290 C.ar  238  PHE238     -0.0042
    128  CE1      -25.9440  -25.6940   45.5500 C.ar  238  PHE238     -0.0003
    129  CE2      -25.2640  -23.5210   46.3510 C.ar  238  PHE238     -0.0003
    130  CZ       -26.1850  -24.3230   45.6650 C.ar  238  PHE238     -0.0000
    131  N        -25.5820  -29.2010   52.0830 N.3   241  ILE241     -0.1231
    132  CA       -26.5680  -28.3060   52.6800 C.3   241  ILE241      0.1692
    133  C        -27.8480  -28.1740   51.8340 C.2   241  ILE241      0.2591
    134  O        -28.9510  -28.1430   52.3830 O.2   241  ILE241     -0.2718
    135  CB       -25.9440  -26.9080   52.9680 C.3   241  ILE241      0.0266
    136  CG1      -24.8170  -27.0600   54.0190 C.3   241  ILE241      0.0019
    137  CG2      -27.0300  -25.9130   53.4110 C.3   241  ILE241      0.0020
    138  CD1      -23.9260  -25.8350   54.1800 C.3   241  ILE241      0.0001
    139  N        -27.7170  -28.0730   50.5090 N.am  242  LYS242     -0.1980
    140  CA       -28.8510  -27.7040   49.6680 C.3   242  LYS242      0.1596
    141  C        -29.6660  -28.8670   49.0920 C.2   242  LYS242      0.2287
    142  O        -30.7910  -28.6280   48.6590 O.2   242  LYS242     -0.2864
    143  CB       -28.3920  -26.8090   48.5230 C.3   242  LYS242      0.0298
    144  CG       -27.8360  -25.4670   48.9740 C.3   242  LYS242      0.0038
    145  CD       -28.9150  -24.5850   49.5820 C.3   242  LYS242      0.0206
    146  CE       -28.4400  -23.1440   49.7300 C.3   242  LYS242      0.1093
    147  NZ       -29.5640  -22.2170   50.0130 N.3   242  LYS242     -0.1314
@<TRIPOS>BOND
     1   108   107    1
     2   105   107   ar
     3   105   103   ar
     4   107   106   ar
     5   103   102   ar
     6    97    98    1
     7   106   104   ar
     8   102   104   ar
     9   102   101    1
    10    98   101    1
    11    98    99    1
    12    74    75   ar
    13    74    72   ar
    14    75    73   ar
    15    72    70   ar
    16    99   100    2
    17   128   130   ar
    18   128   126   ar
    19    73    71   ar
    20   130   129   ar
    21    70    71   ar
    22    70    69    1
    23   126   125   ar
    24   129   127   ar
    25    69    66    1
    26   125   127   ar
    27   125   124    1
    28   124   121    1
    29    60    59    2
    30    66    65    1
    31    66    67    1
    32    57    58    1
    33    59    65   am
    34    59    58    1
    35   143   144    1
    36   143   140    1
    37   142   141    2
    38    58    61    1
    39   122   121    1
    40   122   123    2
    41    67    76   am
    42    67    68    2
    43   121   120    1
    44   144   145    1
    45    79    78    2
    46   141   140    1
    47    76    77    1
    48   120   111   am
    49   145   146    1
    50   140   139    1
    51   146   147    1
    52    52    51    2
    53    78    77    1
    54   109   110    1
    55    51    50    1
    56    61    62    1
    57    77    80    1
    58   139   133   am
    59   111   110    1
    60   111   112    2
    61    80    81    1
    62   110   113    1
    63    93    94    2
    64    93    92    1
    65    62    64    1
    66    62    63    1
    67    50    49    1
    68    50    53    1
    69   113   114    1
    70    81    83   ar
    71    81    82   ar
    72   133   134    2
    73   133   132    1
    74    92    95    1
    75    92    91    1
    76   131   132    1
    77    55    54   ar
    78    53    54    1
    79    95    96    1
    80    54    56   ar
    81   132   135    1
    82   114   115    1
    83   135   137    1
    84   135   136    1
    85    38    37    1
    86   115   116    1
    87   116   117    2
    88   136   138    1
    89   118   117    1
    90   117   119    1
    91    43    42    2
    92    42    41    1
    93    37    39    1
    94    37    36    2
    95    35    36    1
    96    35    34    1
    97    33    34    1
    98    33    30    1
    99    44    41    1
   100    44    45    1
   101    41    40    1
   102    13    10    1
   103    40    31   am
   104    32    31    2
   105    88    89    1
   106    88    85    1
   107    88    90    1
   108    31    30    1
   109    86    85    1
   110    86    87    2
   111    10    11    1
   112    10     9    1
   113    85    84    1
   114    30    29    1
   115    12    11    2
   116    45    46    1
   117    11    14   am
   118     1     2    1
   119    29    24   am
   120     7     6   ar
   121     2     5    1
   122     2     3    1
   123    47    46   ar
   124    46    48   ar
   125     5     6    1
   126    14    15    1
   127     6     8   ar
   128     4     3    2
   129    24    25    2
   130    24    23    1
   131    15    16    1
   132    15    18    1
   133    22    16   am
   134    22    23    1
   135    16    17    2
   136    23    26    1
   137    18    19    1
   138    28    26    1
   139    20    19   ar
   140    26    27    1
   141    19    21   ar
