@<TRIPOS>MOLECULE
tmp/5ttgA01.pdb
 155 148 0 0 0
SMALL
GASTEIGER

@<TRIPOS>ATOM
      1  N         -6.9450  -15.8730   -9.3940 N.3   157  ASP157     -0.1239
      2  CA        -6.6600  -15.8980   -7.9480 C.3   157  ASP157      0.1674
      3  C         -7.7730  -16.5610   -7.1350 C.2   157  ASP157      0.2266
      4  O         -7.4860  -17.2950   -6.1810 O.2   157  ASP157     -0.2867
      5  CB        -6.3460  -14.4970   -7.3980 C.3   157  ASP157      0.1410
      6  CG        -7.3850  -13.4200   -7.7730 C.2   157  ASP157      0.3668
      7  OD1       -8.4140  -13.7050   -8.4230 O.co2 157  ASP157     -0.2456
      8  OD2       -7.1290  -12.2410   -7.4300 O.co2 157  ASP157     -0.2456
      9  N         -7.4280  -20.2790   -7.6030 N.3   160  ALA160     -0.1231
     10  CA        -6.2810  -20.7560   -6.8440 C.3   160  ALA160      0.1694
     11  C         -6.6310  -20.8800   -5.3510 C.2   160  ALA160      0.2592
     12  O         -6.2010  -21.8300   -4.6830 O.2   160  ALA160     -0.2718
     13  CB        -5.0840  -19.8400   -7.0400 C.3   160  ALA160      0.0304
     14  N         -7.4710  -19.9680   -4.8680 N.am  161  ASP161     -0.1960
     15  CA        -7.8520  -19.9420   -3.4450 C.3   161  ASP161      0.1840
     16  C         -8.6650  -21.1660   -2.9960 C.2   161  ASP161      0.2622
     17  O         -8.7370  -21.4390   -1.7950 O.2   161  ASP161     -0.2715
     18  CB        -8.6050  -18.6390   -3.1120 C.3   161  ASP161      0.1450
     19  CG        -8.5640  -18.2900   -1.6270 C.2   161  ASP161      0.3671
     20  OD1       -7.4780  -18.3630   -1.0080 O.co2 161  ASP161     -0.2456
     21  OD2       -9.6320  -17.9370   -1.0800 O.co2 161  ASP161     -0.2456
     22  N         -9.2530  -21.9040   -3.9400 N.am  162  VAL162     -0.1963
     23  CA       -10.0290  -23.1190   -3.6390 C.3   162  VAL162      0.1727
     24  C         -9.3730  -24.3990   -4.1520 C.2   162  VAL162      0.2616
     25  O        -10.0320  -25.4330   -4.2810 O.2   162  VAL162     -0.2715
     26  CB       -11.4970  -23.0000   -4.1300 C.3   162  VAL162      0.0290
     27  CG1      -12.1310  -21.7410   -3.5490 C.3   162  VAL162      0.0023
     28  CG2      -11.6240  -22.9990   -5.6550 C.3   162  VAL162      0.0023
     29  N         -8.0760  -24.3590   -4.4330 N.am  163  ARG163     -0.1963
     30  CA        -7.3690  -25.5890   -4.7800 C.3   163  ARG163      0.1729
     31  C         -6.5590  -26.0690   -3.5970 C.2   163  ARG163      0.2616
     32  O         -6.0000  -25.2590   -2.8710 O.2   163  ARG163     -0.2715
     33  CB        -6.5080  -25.3860   -6.0140 C.3   163  ARG163      0.0348
     34  CG        -7.4020  -25.2620   -7.2320 C.3   163  ARG163      0.0492
     35  CD        -6.6400  -25.3020   -8.5260 C.3   163  ARG163      0.2205
     36  NE        -7.5690  -25.1650   -9.6410 N.pl3 163  ARG163     -0.0865
     37  CZ        -7.2730  -25.4210  -10.9100 C.cat 163  ARG163      0.5346
     38  NH1       -6.0450  -25.8190  -11.2480 N.pl3 163  ARG163      0.1354
     39  NH2       -8.2110  -25.2540  -11.8480 N.pl3 163  ARG163      0.1354
     40  N         -6.5070  -27.3850   -3.4180 N.am  164  GLU164     -0.1977
     41  CA        -5.8020  -27.9730   -2.2730 C.3   164  GLU164      0.1602
     42  C         -4.2760  -27.9000   -2.4260 C.2   164  GLU164      0.2287
     43  O         -3.5850  -27.5430   -1.4660 O.2   164  GLU164     -0.2864
     44  CB        -6.2810  -29.4020   -1.9840 C.3   164  GLU164      0.0415
     45  CG        -6.1810  -30.3840   -3.0630 C.3   164  GLU164      0.1163
     46  CD        -7.2510  -30.4030   -4.1220 C.2   164  GLU164      0.3649
     47  OE1       -8.0210  -29.4620   -4.3160 O.co2 164  GLU164     -0.2457
     48  OE2       -7.3140  -31.5050   -4.7860 O.co2 164  GLU164     -0.2457
     49  N         -1.0060  -26.1820   -3.7730 N.3   166  ASP166     -0.1239
     50  CA        -0.4900  -24.8790   -4.2010 C.3   166  ASP166      0.1674
     51  C          1.0310  -24.9040   -4.4340 C.2   166  ASP166      0.2266
     52  O          1.6370  -23.8470   -4.5990 O.2   166  ASP166     -0.2867
     53  CB        -0.8830  -23.7800   -3.2040 C.3   166  ASP166      0.1410
     54  CG        -0.3620  -24.0230   -1.7700 C.2   166  ASP166      0.3668
     55  OD1        0.0730  -25.1430   -1.4600 O.co2 166  ASP166     -0.2456
     56  OD2       -0.4020  -23.0770   -0.9590 O.co2 166  ASP166     -0.2456
     57  N          2.3710  -23.5750   -8.2300 N.3   169  LEU169     -0.1231
     58  CA         1.6920  -22.3240   -8.5860 C.3   169  LEU169      0.1693
     59  C          2.7010  -21.2260   -8.8590 C.2   169  LEU169      0.2592
     60  O          3.6460  -21.0500   -8.0960 O.2   169  LEU169     -0.2718
     61  CB         0.7620  -21.8580   -7.4610 C.3   169  LEU169      0.0284
     62  CG        -0.6970  -22.2580   -7.5670 C.3   169  LEU169      0.0019
     63  CD1       -1.3910  -21.9340   -6.2550 C.3   169  LEU169      0.0001
     64  CD2       -1.3460  -21.5240   -8.7400 C.3   169  LEU169      0.0001
     65  N          2.4890  -20.4790   -9.9400 N.am  170  PHE170     -0.1962
     66  CA         3.2760  -19.2940  -10.2450 C.3   170  PHE170      0.1771
     67  C          2.3420  -18.0900  -10.3320 C.2   170  PHE170      0.2619
     68  O          1.3900  -18.0950  -11.1260 O.2   170  PHE170     -0.2715
     69  CB         4.0570  -19.4640  -11.5530 C.3   170  PHE170      0.0574
     70  CG         5.1530  -18.4790  -11.7020 C.ar  170  PHE170     -0.0200
     71  CD1        4.8680  -17.1630  -12.0150 C.ar  170  PHE170     -0.0042
     72  CD2        6.4840  -18.8400  -11.4570 C.ar  170  PHE170     -0.0042
     73  CE1        5.8740  -16.2220  -12.1080 C.ar  170  PHE170     -0.0003
     74  CE2        7.4930  -17.9000  -11.5590 C.ar  170  PHE170     -0.0003
     75  CZ         7.1890  -16.5920  -11.8720 C.ar  170  PHE170     -0.0000
     76  N          2.6020  -17.0620   -9.5210 N.am  171  ASP171     -0.1971
     77  CA         1.7770  -15.8530   -9.5010 C.3   171  ASP171      0.1709
     78  C          2.1700  -14.9150  -10.6220 C.2   171  ASP171      0.2293
     79  O          3.3510  -14.5600  -10.7560 O.2   171  ASP171     -0.2864
     80  CB         1.9450  -15.0950   -8.1650 C.3   171  ASP171      0.1436
     81  CG         1.3950  -15.8510   -6.9790 C.2   171  ASP171      0.3671
     82  OD1        0.4360  -16.6270   -7.1430 O.co2 171  ASP171     -0.2456
     83  OD2        1.9330  -15.6690   -5.8540 O.co2 171  ASP171     -0.2456
     84  N          1.0940  -11.7400  -11.1480 N.3   173  ASP173     -0.1239
     85  CA         1.2860  -10.3600  -10.7000 C.3   173  ASP173      0.1674
     86  C          1.1050  -10.3050   -9.1900 C.2   173  ASP173      0.2266
     87  O          0.0300  -10.6200   -8.6960 O.2   173  ASP173     -0.2867
     88  CB         0.2910   -9.4590  -11.4290 C.3   173  ASP173      0.1410
     89  CG         0.2870   -8.0360  -10.9170 C.2   173  ASP173      0.3668
     90  OD1        1.3720   -7.4310  -10.8120 O.co2 173  ASP173     -0.2456
     91  OD2       -0.8150   -7.5160  -10.6440 O.co2 173  ASP173     -0.2456
     92  N         -5.8490  -10.6300  -10.1840 N.3   178  VAL178     -0.1245
     93  CA        -4.5970  -11.2700  -10.6100 C.3   178  VAL178      0.1561
     94  C         -4.7900  -12.7460  -10.9380 C.2   178  VAL178      0.2260
     95  O         -5.8150  -13.3480  -10.6020 O.2   178  VAL178     -0.2867
     96  CB        -3.4700  -11.0810   -9.5750 C.3   178  VAL178      0.0252
     97  CG1       -3.3170   -9.5960   -9.2400 C.3   178  VAL178      0.0019
     98  CG2       -3.7040  -11.9070   -8.3160 C.3   178  VAL178      0.0019
     99  N         -2.7970  -16.7590  -11.9930 N.3   180  CYS180     -0.1235
    100  CA        -1.7360  -17.7060  -11.6890 C.3   180  CYS180      0.1677
    101  C         -1.6190  -18.7160  -12.8160 C.2   180  CYS180      0.2270
    102  O         -2.5830  -18.9540  -13.5550 O.2   180  CYS180     -0.2867
    103  CB        -2.0450  -18.5060  -10.4370 C.3   180  CYS180      0.0956
    104  SG        -2.4000  -17.4860   -8.9930 S.3   180  CYS180     -0.0801
    105  N         11.4970  -19.3630   -5.9580 N.3   236  TYR236     -0.1241
    106  CA        10.0410  -19.4260   -5.7630 C.3   236  TYR236      0.1605
    107  C          9.4130  -18.1770   -5.1620 C.2   236  TYR236      0.2264
    108  O          8.2210  -17.9320   -5.3580 O.2   236  TYR236     -0.2867
    109  CB         9.6580  -20.6330   -4.8950 C.3   236  TYR236      0.0534
    110  CG         9.8170  -22.0250   -5.4750 C.ar  236  TYR236     -0.0201
    111  CD1       10.4470  -22.2780   -6.7010 C.ar  236  TYR236     -0.0009
    112  CD2        9.3780  -23.1300   -4.7480 C.ar  236  TYR236     -0.0009
    113  CE1       10.5920  -23.5860   -7.1700 C.ar  236  TYR236      0.0417
    114  CE2        9.5090  -24.4210   -5.2140 C.ar  236  TYR236      0.0417
    115  CZ        10.1200  -24.6490   -6.4310 C.ar  236  TYR236      0.1957
    116  OH        10.2390  -25.9370   -6.8620 O.3   236  TYR236     -0.2866
    117  N          6.0280  -15.5000   -1.1330 N.3   239  ARG239     -0.1231
    118  CA         4.7050  -16.0730   -0.8540 C.3   239  ARG239      0.1694
    119  C          4.8150  -17.5720   -0.6340 C.2   239  ARG239      0.2592
    120  O          4.2330  -18.1060    0.3090 O.2   239  ARG239     -0.2718
    121  CB         3.6810  -15.7630   -1.9500 C.3   239  ARG239      0.0321
    122  CG         2.3300  -16.4170   -1.6780 C.3   239  ARG239      0.0489
    123  CD         1.1840  -15.8150   -2.4750 C.3   239  ARG239      0.2205
    124  NE         0.9490  -14.4120   -2.1310 N.pl3 239  ARG239     -0.0865
    125  CZ         1.2150  -13.3440   -2.8990 C.cat 239  ARG239      0.5346
    126  NH1        1.7250  -13.4520   -4.1310 N.pl3 239  ARG239      0.1354
    127  NH2        0.9530  -12.1260   -2.4230 N.pl3 239  ARG239      0.1354
    128  N          5.5640  -18.2510   -1.5010 N.am  240  PHE240     -0.1976
    129  CA         5.7810  -19.6790   -1.3580 C.3   240  PHE240      0.1639
    130  C          6.3320  -20.0060    0.0310 C.2   240  PHE240      0.2290
    131  O          5.8230  -20.9000    0.7130 O.2   240  PHE240     -0.2864
    132  CB         6.7430  -20.2190   -2.4300 C.3   240  PHE240      0.0560
    133  CG         7.0210  -21.6930   -2.2920 C.ar  240  PHE240     -0.0200
    134  CD1        8.0040  -22.1540   -1.4110 C.ar  240  PHE240     -0.0042
    135  CD2        6.2890  -22.6320   -2.9960 C.ar  240  PHE240     -0.0042
    136  CE1        8.2450  -23.5050   -1.2650 C.ar  240  PHE240     -0.0003
    137  CE2        6.5400  -23.9990   -2.8550 C.ar  240  PHE240     -0.0003
    138  CZ         7.5140  -24.4370   -1.9790 C.ar  240  PHE240     -0.0000
    139  N          4.2730  -19.5500    3.2970 N.3   243  ILE243     -0.1231
    140  CA         3.3270  -20.6530    3.4630 C.3   243  ILE243      0.1692
    141  C          4.0350  -21.9560    3.8280 C.2   243  ILE243      0.2591
    142  O          3.6980  -22.5920    4.8360 O.2   243  ILE243     -0.2718
    143  CB         2.4620  -20.8510    2.1800 C.3   243  ILE243      0.0266
    144  CG1        1.5240  -19.6580    1.9950 C.3   243  ILE243      0.0019
    145  CG2        1.6730  -22.1600    2.2270 C.3   243  ILE243      0.0020
    146  CD1        0.8720  -19.5730    0.6240 C.3   243  ILE243      0.0001
    147  N          4.9980  -22.3670    3.0020 N.am  244  LYS244     -0.1980
    148  CA         5.5920  -23.7010    3.1340 C.3   244  LYS244      0.1596
    149  C          6.6960  -23.7930    4.1890 C.2   244  LYS244      0.2287
    150  O          7.0260  -24.9020    4.6100 O.2   244  LYS244     -0.2864
    151  CB         6.1140  -24.2060    1.7930 C.3   244  LYS244      0.0298
    152  CG         5.0290  -24.3220    0.7330 C.3   244  LYS244      0.0038
    153  CD         4.0250  -25.4380    0.9870 C.3   244  LYS244      0.0206
    154  CE         2.8270  -25.3260    0.0420 C.3   244  LYS244      0.1093
    155  NZ         1.7410  -26.2860    0.4030 N.3   244  LYS244     -0.1314
@<TRIPOS>BOND
     1   102   101    2
     2   101   100    1
     3    73    71   ar
     4    73    75   ar
     5    71    70   ar
     6    99   100    1
     7    75    74   ar
     8    39    37    1
     9    70    69    1
    10    70    72   ar
    11   100   103    1
    12    74    72   ar
    13    69    66    1
    14    88    89    1
    15    88    85    1
    16    38    37    1
    17    84    85    1
    18    68    67    2
    19    94    93    1
    20    94    95    2
    21    89    90   ar
    22    89    91   ar
    23    37    36    2
    24    79    78    2
    25    85    86    1
    26    78    77    1
    27    93    92    1
    28    93    96    1
    29   103   104    1
    30    67    66    1
    31    67    76   am
    32    66    65    1
    33    65    59   am
    34    36    35    1
    35    96    97    1
    36    96    98    1
    37    76    77    1
    38    77    80    1
    39     1     2    1
    40    86    87    2
    41    59    58    1
    42    59    60    2
    43    64    62    1
    44    58    57    1
    45    58    61    1
    46    35    34    1
    47     7     6   ar
    48    80    81    1
    49     2     5    1
    50     2     3    1
    51     6     8   ar
    52     6     5    1
    53     9    10    1
    54    62    61    1
    55    62    63    1
    56    34    33    1
    57   113   111   ar
    58   113   115   ar
    59    82    81   ar
    60     3     4    2
    61    13    10    1
    62    81    83   ar
    63   116   115    1
    64    10    11    1
    65   111   110   ar
    66   115   114   ar
    67    33    30    1
    68   105   106    1
    69   106   107    1
    70   106   109    1
    71    28    26    1
    72   110   109    1
    73   110   112   ar
    74   108   107    2
    75    11    14   am
    76    11    12    2
    77   114   112   ar
    78    14    15    1
    79    48    46   ar
    80    30    29    1
    81    30    31    1
    82    52    51    2
    83    51    50    1
    84    29    24   am
    85    47    46   ar
    86    25    24    2
    87    50    49    1
    88    50    53    1
    89    24    23    1
    90   126   125    1
    91    26    23    1
    92    26    27    1
    93    46    45    1
    94    22    23    1
    95    22    16   am
    96    31    40   am
    97    31    32    2
    98    15    18    1
    99    15    16    1
   100    40    41    1
   101    53    54    1
   102    18    19    1
   103    45    44    1
   104   135   137   ar
   105   135   133   ar
   106    16    17    2
   107   125   127    1
   108   125   124    2
   109   137   138   ar
   110   123   124    1
   111   123   122    1
   112   132   133    1
   113   132   129    1
   114    42    41    1
   115    42    43    2
   116   133   134   ar
   117    41    44    1
   118   138   136   ar
   119   121   122    1
   120   121   118    1
   121    54    55   ar
   122    54    56   ar
   123    19    21   ar
   124    19    20   ar
   125   128   129    1
   126   128   119   am
   127   134   136   ar
   128   129   130    1
   129   117   118    1
   130   118   119    1
   131   119   120    2
   132   130   131    2
   133   154   155    1
   134   154   153    1
   135   146   144    1
   136   152   153    1
   137   152   151    1
   138   151   148    1
   139   144   143    1
   140   143   145    1
   141   143   140    1
   142   147   148    1
   143   147   141   am
   144   148   149    1
   145   139   140    1
   146   140   141    1
   147   141   142    2
   148   149   150    2
