@<TRIPOS>MOLECULE
tmp/5tthB00.pdb
 190 182 0 0 0
SMALL
GASTEIGER

@<TRIPOS>ATOM
      1  N        -18.8530    6.2520  -13.7370 N.3    46  GLU46      -0.1245
      2  CA       -19.4260    5.7140  -14.9790 C.3    46  GLU46       0.1567
      3  C        -18.4660    5.7240  -16.1260 C.2    46  GLU46       0.2260
      4  O        -18.4640    4.7680  -16.8930 O.2    46  GLU46      -0.2867
      5  CB       -20.6970    6.4620  -15.3910 C.3    46  GLU46       0.0388
      6  CG       -21.8390    6.2420  -14.4200 C.3    46  GLU46       0.1160
      7  CD       -22.1490    4.7500  -14.2210 C.2    46  GLU46       0.3649
      8  OE1      -22.4570    4.0760  -15.2270 O.co2  46  GLU46      -0.2457
      9  OE2      -22.0680    4.2380  -13.0720 O.co2  46  GLU46      -0.2457
     10  N        -16.6990    2.3820  -18.0330 N.3    50  ASN50      -0.1225
     11  CA       -16.6820    2.2360  -19.4900 C.3    50  ASN50       0.1785
     12  C        -15.3100    1.9850  -20.0340 C.2    50  ASN50       0.2597
     13  O        -15.1490    1.2300  -20.9930 O.2    50  ASN50      -0.2718
     14  CB       -17.2820    3.4640  -20.1550 C.3    50  ASN50       0.1169
     15  CG       -18.7940    3.5140  -20.0040 C.2    50  ASN50       0.2627
     16  OD1      -19.4330    2.5010  -19.6850 O.2    50  ASN50      -0.2716
     17  ND2      -19.3790    4.6820  -20.2140 N.am   50  ASN50      -0.0877
     18  N        -14.3200    2.6270  -19.4340 N.am   51  GLY51      -0.1957
     19  CA       -12.9160    2.4260  -19.8400 C.3    51  GLY51       0.1869
     20  C        -12.4190    1.0470  -19.4550 C.2    51  GLY51       0.2309
     21  O        -11.7470    0.3900  -20.2380 O.2    51  GLY51      -0.2863
     22  N        -14.3450   -1.5690  -19.0590 N.3    53  ASP53      -0.1225
     23  CA       -15.0150   -2.5180  -19.9570 C.3    53  ASP53       0.1805
     24  C        -14.3480   -2.5730  -21.3450 C.2    53  ASP53       0.2597
     25  O        -14.1460   -3.6380  -21.9160 O.2    53  ASP53      -0.2718
     26  CB       -16.4970   -2.1700  -20.1110 C.3    53  ASP53       0.1424
     27  CG       -17.3010   -2.3000  -18.7870 C.2    53  ASP53       0.3668
     28  OD1      -16.8600   -3.0600  -17.8570 O.co2  53  ASP53      -0.2456
     29  OD2      -18.3890   -1.6320  -18.6880 O.co2  53  ASP53      -0.2456
     30  N        -13.9840   -1.4250  -21.8830 N.am   54  ALA54      -0.1979
     31  CA       -13.3090   -1.3870  -23.1810 C.3    54  ALA54       0.1597
     32  C        -11.9660   -2.1210  -23.1460 C.2    54  ALA54       0.2287
     33  O        -11.5110   -2.6690  -24.1570 O.2    54  ALA54      -0.2864
     34  CB       -13.1050    0.0560  -23.6180 C.3    54  ALA54       0.0319
     35  N        -12.5780   -5.9650  -23.0610 N.3    57  LYS57      -0.1245
     36  CA       -12.9260   -6.4770  -24.3750 C.3    57  LYS57       0.1561
     37  C        -11.6710   -6.6010  -25.2290 C.2    57  LYS57       0.2260
     38  O        -11.5790   -7.5150  -26.0490 O.2    57  LYS57      -0.2867
     39  CB       -13.9210   -5.5650  -25.0660 C.3    57  LYS57       0.0271
     40  CG       -15.2940   -5.5390  -24.4200 C.3    57  LYS57       0.0035
     41  CD       -16.1360   -4.4920  -25.1120 C.3    57  LYS57       0.0206
     42  CE       -17.4030   -4.2570  -24.3360 C.3    57  LYS57       0.1093
     43  NZ       -18.0970   -3.0950  -24.9460 N.3    57  LYS57      -0.1314
     44  N         -8.7910    5.8780  -22.3540 N.3    85  ASP85      -0.1239
     45  CA        -8.4410    4.4730  -22.1580 C.3    85  ASP85       0.1674
     46  C         -7.7750    3.9240  -23.4120 C.2    85  ASP85       0.2266
     47  O         -8.0400    4.3960  -24.5210 O.2    85  ASP85      -0.2867
     48  CB        -9.6700    3.6270  -21.8040 C.3    85  ASP85       0.1410
     49  CG       -10.6080    3.4230  -22.9970 C.2    85  ASP85       0.3668
     50  OD1      -10.2970    2.5910  -23.8920 O.co2  85  ASP85      -0.2456
     51  OD2      -11.6560    4.1100  -23.0500 O.co2  85  ASP85      -0.2456
     52  N        -10.5940   -1.1210  -26.7340 N.3    88  VAL88      -0.1231
     53  CA       -10.9860   -1.4950  -28.1060 C.3    88  VAL88       0.1692
     54  C        -11.4140   -0.3520  -29.0260 C.2    88  VAL88       0.2593
     55  O        -11.3920   -0.4960  -30.2560 O.2    88  VAL88      -0.2718
     56  CB       -12.1390   -2.5230  -28.0950 C.3    88  VAL88       0.0266
     57  CG1      -11.6430   -3.8720  -27.6130 C.3    88  VAL88       0.0020
     58  CG2      -13.3080   -2.0590  -27.2410 C.3    88  VAL88       0.0020
     59  N        -11.8550    0.7540  -28.4250 N.am   89  GLY89      -0.1942
     60  CA       -12.3340    1.8890  -29.1910 C.3    89  GLY89       0.2014
     61  C        -13.5970    1.5580  -29.9770 C.2    89  GLY89       0.2638
     62  O        -14.1630    0.4640  -29.8320 O.2    89  GLY89      -0.2714
     63  N        -14.0440    2.5100  -30.7920 N.am   90  MET90      -0.1976
     64  CA       -15.3210    2.4320  -31.4820 C.3    90  MET90       0.1605
     65  C        -15.1410    2.8810  -32.9250 C.2    90  MET90       0.2287
     66  O        -14.3210    3.7500  -33.2180 O.2    90  MET90      -0.2864
     67  CB       -16.3390    3.3450  -30.8090 C.3    90  MET90       0.0413
     68  CG       -16.8780    2.8210  -29.4810 C.3    90  MET90       0.0598
     69  SD       -17.8880    4.0080  -28.5810 S.3    90  MET90      -0.1393
     70  CE       -16.6540    5.1740  -27.9840 C.3    90  MET90       0.0692
     71  N        -24.0700    3.0640  -30.3360 N.3    98  ASN98      -0.1225
     72  CA       -23.9120    2.8190  -28.9130 C.3    98  ASN98       0.1785
     73  C        -23.9880    4.0820  -28.0960 C.2    98  ASN98       0.2597
     74  O        -24.6860    4.1450  -27.0640 O.2    98  ASN98      -0.2718
     75  CB       -22.6270    2.0450  -28.6310 C.3    98  ASN98       0.1169
     76  CG       -22.6690    0.6330  -29.1960 C.2    98  ASN98       0.2627
     77  OD1      -23.6340    0.2460  -29.8720 O.2    98  ASN98      -0.2716
     78  ND2      -21.6370   -0.1510  -28.9180 N.am   98  ASN98      -0.0877
     79  N        -23.2830    5.1040  -28.5530 N.am   99  LEU99      -0.1980
     80  CA       -23.3010    6.3980  -27.8670 C.3    99  LEU99       0.1596
     81  C        -24.5860    7.1570  -28.1750 C.2    99  LEU99       0.2287
     82  O        -25.1480    7.8120  -27.3070 O.2    99  LEU99      -0.2864
     83  CB       -22.0760    7.2230  -28.2730 C.3    99  LEU99       0.0297
     84  CG       -20.9650    7.3620  -27.2330 C.3    99  LEU99       0.0022
     85  CD1      -20.5900    6.0400  -26.5920 C.3    99  LEU99       0.0001
     86  CD2      -19.7640    8.0130  -27.8910 C.3    99  LEU99       0.0001
     87  N        -28.8380    1.7120  -25.2670 N.3   104  ARG104     -0.1231
     88  CA       -28.1020    0.7580  -26.0750 C.3   104  ARG104      0.1694
     89  C        -26.7220    0.6030  -25.4810 C.2   104  ARG104      0.2593
     90  O        -26.0150    1.5940  -25.2790 O.2   104  ARG104     -0.2718
     91  CB       -28.0010    1.1620  -27.5360 C.3   104  ARG104      0.0321
     92  CG       -27.1130    0.2080  -28.3410 C.3   104  ARG104      0.0489
     93  CD       -27.5840    0.0720  -29.7700 C.3   104  ARG104      0.2205
     94  NE       -28.8260   -0.7010  -29.8640 N.pl3 104  ARG104     -0.0865
     95  CZ       -29.7210   -0.5900  -30.8490 C.cat 104  ARG104      0.5346
     96  NH1      -29.5300    0.2850  -31.8350 N.pl3 104  ARG104      0.1354
     97  NH2      -30.8310   -1.3430  -30.8420 N.pl3 104  ARG104      0.1354
     98  N        -26.3660   -0.6570  -25.2310 N.am  105  SER105     -0.1938
     99  CA       -25.1420   -1.0460  -24.5630 C.3   105  SER105      0.2055
    100  C        -24.4440   -2.0480  -25.4160 C.2   105  SER105      0.2644
    101  O        -24.8900   -3.1590  -25.5160 O.2   105  SER105     -0.2714
    102  CB       -25.4950   -1.6940  -23.2210 C.3   105  SER105      0.2130
    103  OG       -24.3840   -2.2950  -22.5990 O.3   105  SER105     -0.2179
    104  N        -23.3450   -1.6640  -26.0280 N.am  106  GLY106     -0.1939
    105  CA       -22.5350   -2.6130  -26.7560 C.3   106  GLY106      0.2014
    106  C        -22.0110   -3.7010  -25.8430 C.2   106  GLY106      0.2639
    107  O        -21.7860   -4.8420  -26.2900 O.2   106  GLY106     -0.2714
    108  N        -21.8580   -3.3470  -24.5610 N.am  107  SER107     -0.1949
    109  CA       -21.3830   -4.2660  -23.5190 C.3   107  SER107      0.1924
    110  C        -22.4860   -5.2020  -23.0470 C.2   107  SER107      0.2314
    111  O        -22.6720   -5.4410  -21.8750 O.2   107  SER107     -0.2863
    112  CB       -20.7900   -3.5030  -22.3360 C.3   107  SER107      0.2116
    113  OG       -19.6680   -2.7110  -22.7020 O.3   107  SER107     -0.2180
    114  N        -20.6800   -2.7530  -17.2470 N.3   118  GLY118     -0.1210
    115  CA       -21.7770   -2.1320  -17.9990 C.3   118  GLY118      0.1956
    116  C        -22.9720   -2.9930  -18.3900 C.2   118  GLY118      0.2612
    117  O        -22.8190   -4.0880  -18.9270 O.2   118  GLY118     -0.2717
    118  N        -24.1570   -2.4320  -18.1990 N.am  119  GLN119     -0.1965
    119  CA       -25.3860   -3.1900  -18.1380 C.3   119  GLN119      0.1733
    120  C        -26.5650   -2.4410  -18.7940 C.2   119  GLN119      0.2616
    121  O        -27.2930   -3.0230  -19.6040 O.2   119  GLN119     -0.2715
    122  CB       -25.6620   -3.4220  -16.6570 C.3   119  GLN119      0.0408
    123  CG       -26.3950   -4.6630  -16.2500 C.3   119  GLN119      0.0908
    124  CD       -26.8260   -4.5380  -14.7820 C.2   119  GLN119      0.2608
    125  OE1      -26.0740   -4.0450  -13.8930 O.2   119  GLN119     -0.2717
    126  NE2      -28.0650   -4.9590  -14.5180 N.am  119  GLN119     -0.0878
    127  N        -26.7290   -1.1570  -18.4190 N.am  120  PHE120     -0.1960
    128  CA       -27.9450   -0.3750  -18.6660 C.3   120  PHE120      0.1771
    129  C        -27.9680    0.4080  -19.9800 C.2   120  PHE120      0.2620
    130  O        -29.0260    0.6500  -20.5610 O.2   120  PHE120     -0.2715
    131  CB       -28.1420    0.5840  -17.4940 C.3   120  PHE120      0.0574
    132  CG       -28.2820   -0.1020  -16.1400 C.ar  120  PHE120     -0.0200
    133  CD1      -29.3050   -1.0330  -15.8910 C.ar  120  PHE120     -0.0042
    134  CD2      -27.4340    0.1890  -15.0930 C.ar  120  PHE120     -0.0042
    135  CE1      -29.4440   -1.6600  -14.6330 C.ar  120  PHE120     -0.0003
    136  CE2      -27.5830   -0.4360  -13.8410 C.ar  120  PHE120     -0.0003
    137  CZ       -28.5820   -1.3620  -13.6100 C.ar  120  PHE120     -0.0000
    138  N        -26.8020    0.8420  -20.4370 N.am  121  GLY121     -0.1940
    139  CA       -26.7030    1.6510  -21.6760 C.3   121  GLY121      0.2014
    140  C        -26.9990    3.1440  -21.5270 C.2   121  GLY121      0.2639
    141  O        -27.3260    3.8130  -22.5030 O.2   121  GLY121     -0.2714
    142  N        -26.8810    3.6510  -20.3050 N.am  122  VAL122     -0.1963
    143  CA       -27.1010    5.0490  -19.9940 C.3   122  VAL122      0.1727
    144  C        -25.9010    5.7450  -19.3080 C.2   122  VAL122      0.2617
    145  O        -25.8490    6.9700  -19.2690 O.2   122  VAL122     -0.2715
    146  CB       -28.3120    5.2220  -19.0840 C.3   122  VAL122      0.0290
    147  CG1      -29.4970    4.5190  -19.6660 C.3   122  VAL122      0.0023
    148  CG2      -28.0270    4.6960  -17.6780 C.3   122  VAL122      0.0023
    149  N        -24.9590    4.9950  -18.7390 N.am  123  GLY123     -0.1940
    150  CA       -23.8980    5.5710  -17.9240 C.3   123  GLY123      0.2014
    151  C        -23.1690    6.7460  -18.5560 C.2   123  GLY123      0.2639
    152  O        -22.8980    7.7360  -17.8940 O.2   123  GLY123     -0.2714
    153  N        -22.8760    6.6480  -19.8500 N.am  124  PHE124     -0.1959
    154  CA       -22.1740    7.7030  -20.5790 C.3   124  PHE124      0.1771
    155  C        -22.8610    9.0850  -20.4780 C.2   124  PHE124      0.2619
    156  O        -22.1960   10.1070  -20.3590 O.2   124  PHE124     -0.2715
    157  CB       -21.9870    7.2720  -22.0490 C.3   124  PHE124      0.0574
    158  CG       -21.4480    8.3650  -22.9400 C.ar  124  PHE124     -0.0200
    159  CD1      -20.1080    8.7150  -22.9150 C.ar  124  PHE124     -0.0042
    160  CD2      -22.2940    9.0590  -23.7800 C.ar  124  PHE124     -0.0042
    161  CE1      -19.6250    9.7170  -23.7240 C.ar  124  PHE124     -0.0003
    162  CE2      -21.8160   10.0670  -24.5880 C.ar  124  PHE124     -0.0003
    163  CZ       -20.4760   10.3910  -24.5590 C.ar  124  PHE124     -0.0000
    164  N        -24.1840    9.1060  -20.4930 N.am  125  TYR125     -0.1974
    165  CA       -24.9300   10.3570  -20.5060 C.3   125  TYR125      0.1639
    166  C        -24.7650   11.0970  -19.1780 C.2   125  TYR125      0.2290
    167  O        -25.0090   12.2890  -19.1010 O.2   125  TYR125     -0.2864
    168  CB       -26.4220   10.1090  -20.9060 C.3   125  TYR125      0.0560
    169  CG       -26.5680    9.3590  -22.2400 C.ar  125  TYR125     -0.0198
    170  CD1      -26.4280   10.0140  -23.4510 C.ar  125  TYR125     -0.0009
    171  CD2      -26.7520    7.9920  -22.2720 C.ar  125  TYR125     -0.0009
    172  CE1      -26.4840    9.3160  -24.6530 C.ar  125  TYR125      0.0417
    173  CE2      -26.8110    7.2950  -23.4600 C.ar  125  TYR125      0.0417
    174  CZ       -26.6810    7.9460  -24.6470 C.ar  125  TYR125      0.1957
    175  OH       -26.7410    7.1980  -25.8070 O.3   125  TYR125     -0.2866
    176  N        -10.0620    5.3330  -26.6170 N.3   170  THR170     -0.1218
    177  CA       -11.0320    6.4060  -26.6020 C.3   170  THR170      0.1862
    178  C        -10.6380    7.4860  -25.6110 C.2   170  THR170      0.2287
    179  O        -10.3080    7.1990  -24.4550 O.2   170  THR170     -0.2866
    180  CB       -12.4270    5.8540  -26.2700 C.3   170  THR170      0.1770
    181  OG1      -12.7520    4.7800  -27.1710 O.3   170  THR170     -0.2211
    182  CG2      -13.4800    6.9500  -26.3690 C.3   170  THR170      0.0375
    183  N        -12.1420   11.0860  -23.9630 N.3   172  ILE172     -0.1245
    184  CA       -13.3400   11.8730  -23.7770 C.3   172  ILE172      0.1561
    185  C        -13.0080   13.1300  -22.9910 C.2   172  ILE172      0.2260
    186  O        -12.3720   13.0640  -21.9350 O.2   172  ILE172     -0.2867
    187  CB       -14.4110   11.0980  -23.0310 C.3   172  ILE172      0.0252
    188  CG1      -14.6830    9.7650  -23.7250 C.3   172  ILE172      0.0019
    189  CG2      -15.6760   11.9260  -22.9500 C.3   172  ILE172      0.0019
    190  CD1      -15.8550    8.9830  -23.1390 C.3   172  ILE172      0.0001
@<TRIPOS>BOND
     1    66    65    2
     2    65    64    1
     3    96    95    1
     4    64    67    1
     5    64    63    1
     6    95    97    1
     7    95    94    2
     8    67    68    1
     9    63    61   am
    10    71    72    1
    11    55    54    2
    12    61    62    2
    13    61    60    1
    14    77    76    2
    15    94    93    1
    16    93    92    1
    17    68    69    1
    18    76    78   am
    19    76    75    1
    20    60    59    1
    21    54    59   am
    22    54    53    1
    23    72    75    1
    24    72    73    1
    25    69    70    1
    26    79    73   am
    27    79    80    1
    28    92    91    1
    29    83    80    1
    30    83    84    1
    31    81    80    1
    32    81    82    2
    33    53    56    1
    34    53    52    1
    35    73    74    2
    36    56    57    1
    37    56    58    1
    38    86    84    1
    39    91    88    1
    40    84    85    1
    41   181   180    1
    42   105   104    1
    43   105   106    1
    44   176   177    1
    45   177   180    1
    46   177   178    1
    47   182   180    1
    48   107   106    2
    49    88    89    1
    50    88    87    1
    51    38    37    2
    52   104   100   am
    53   106   108   am
    54   175   174    1
    55   178   179    2
    56   101   100    2
    57    89    90    2
    58    89    98   am
    59   100    99    1
    60    98    99    1
    61    37    36    1
    62    41    40    1
    63    41    42    1
    64    39    40    1
    65    39    36    1
    66    43    42    1
    67   172   174   ar
    68   172   170   ar
    69   174   173   ar
    70   162   163   ar
    71   162   160   ar
    72    99   102    1
    73   108   109    1
    74   163   161   ar
    75    47    46    2
    76    36    35    1
    77    33    32    2
    78   183   184    1
    79    50    49   ar
    80   160   158   ar
    81   184   187    1
    82   184   185    1
    83   188   190    1
    84   188   187    1
    85   161   159   ar
    86    34    31    1
    87   109   110    1
    88   109   112    1
    89   173   171   ar
    90   170   169   ar
    91    46    45    1
    92   102   103    1
    93    31    32    1
    94    31    30    1
    95    51    49   ar
    96   110   111    2
    97   187   189    1
    98    49    48    1
    99   185   186    2
   100   158   159   ar
   101   158   157    1
   102   113   112    1
   103   141   140    2
   104    44    45    1
   105   171   169   ar
   106   169   168    1
   107    45    48    1
   108   157   154    1
   109    25    24    2
   110    30    24   am
   111   139   140    1
   112   139   138    1
   113   140   142   am
   114    24    23    1
   115    13    12    2
   116   168   165    1
   117   154   155    1
   118   154   153    1
   119   130   129    2
   120   165   164    1
   121   165   166    1
   122   164   155   am
   123   155   156    2
   124   138   129   am
   125   142   143    1
   126    21    20    2
   127    17    15   am
   128    14    15    1
   129    14    11    1
   130    26    23    1
   131    26    27    1
   132    12    11    1
   133    12    18   am
   134    15    16    2
   135   143   144    1
   136   143   146    1
   137   129   128    1
   138    23    22    1
   139   153   151   am
   140    19    20    1
   141    19    18    1
   142   147   146    1
   143   121   120    2
   144    11    10    1
   145   144   145    2
   146   144   149   am
   147   166   167    2
   148   146   148    1
   149   117   116    2
   150   120   127   am
   151   120   119    1
   152    27    29   ar
   153    27    28   ar
   154   149   150    1
   155   128   127    1
   156   128   131    1
   157   151   150    1
   158   151   152    2
   159   116   118   am
   160   116   115    1
   161   118   119    1
   162   119   122    1
   163   115   114    1
   164   131   132    1
   165     4     3    2
   166   122   123    1
   167   123   124    1
   168   132   133   ar
   169   132   134   ar
   170     3     2    1
   171   133   135   ar
   172     5     2    1
   173     5     6    1
   174     8     7   ar
   175   134   136   ar
   176     2     1    1
   177   124   126   am
   178   124   125    2
   179   135   137   ar
   180     6     7    1
   181     7     9   ar
   182   136   137   ar
