@<TRIPOS>MOLECULE
tmp/5tthA00.pdb
 209 200 0 0 0
SMALL
GASTEIGER

@<TRIPOS>ATOM
      1  N        -47.4140    4.4880   -7.6790 N.3    46  GLU46      -0.1231
      2  CA       -47.4530    5.1310   -8.9900 C.3    46  GLU46       0.1699
      3  C        -48.8480    5.2020   -9.5960 C.2    46  GLU46       0.2592
      4  O        -49.2610    6.2830  -10.0600 O.2    46  GLU46      -0.2718
      5  CB       -46.4750    4.4850   -9.9740 C.3    46  GLU46       0.0402
      6  CG       -45.0140    4.7890   -9.6690 C.3    46  GLU46       0.1161
      7  CD       -44.7370    6.2600   -9.3070 C.2    46  GLU46       0.3649
      8  OE1      -44.8880    7.1520  -10.1730 O.co2  46  GLU46      -0.2457
      9  OE2      -44.3780    6.5070   -8.1410 O.co2  46  GLU46      -0.2457
     10  N        -49.5700    4.0740   -9.5700 N.am   47  LEU47      -0.1980
     11  CA       -50.9110    4.0080  -10.1550 C.3    47  LEU47       0.1596
     12  C        -51.9320    4.8890   -9.3940 C.2    47  LEU47       0.2287
     13  O        -52.8160    5.5160   -9.9940 O.2    47  LEU47      -0.2864
     14  CB       -51.3740    2.5510  -10.2480 C.3    47  LEU47       0.0297
     15  CG       -50.5730    1.6640  -11.1930 C.3    47  LEU47       0.0022
     16  CD1      -51.2100    0.2630  -11.2860 C.3    47  LEU47       0.0001
     17  CD2      -50.3960    2.2750  -12.5850 C.3    47  LEU47       0.0001
     18  N        -51.2290    8.4320  -10.3020 N.3    50  ASN50      -0.1225
     19  CA       -51.8650    8.7200  -11.6050 C.3    50  ASN50       0.1785
     20  C        -53.3800    8.9570  -11.5230 C.2    50  ASN50       0.2597
     21  O        -53.9270    9.8270  -12.1950 O.2    50  ASN50      -0.2718
     22  CB       -51.5330    7.6080  -12.6040 C.3    50  ASN50       0.1169
     23  CG       -50.0730    7.6340  -13.0530 C.2    50  ASN50       0.2627
     24  OD1      -49.3930    8.6400  -12.9360 O.2    50  ASN50      -0.2716
     25  ND2      -49.5930    6.5280  -13.5720 N.am   50  ASN50      -0.0877
     26  N        -54.0360    8.1860  -10.6680 N.am   51  GLY51      -0.1957
     27  CA       -55.4650    8.3430  -10.4290 C.3    51  GLY51       0.1869
     28  C        -55.7370    9.6690   -9.7680 C.2    51  GLY51       0.2309
     29  O        -56.6530   10.3370  -10.1570 O.2    51  GLY51      -0.2863
     30  N        -53.8590   12.3510  -10.0450 N.3    53  ASP53      -0.1225
     31  CA       -53.6500   13.3630  -11.1010 C.3    53  ASP53       0.1805
     32  C        -54.8490   13.4930  -12.0370 C.2    53  ASP53       0.2597
     33  O        -55.2690   14.5930  -12.3630 O.2    53  ASP53      -0.2718
     34  CB       -52.3880   13.0480  -11.9090 C.3    53  ASP53       0.1424
     35  CG       -51.0920   13.1490  -11.0520 C.2    53  ASP53       0.3668
     36  OD1      -51.1550   13.7200   -9.9180 O.co2  53  ASP53      -0.2456
     37  OD2      -50.0110   12.6530  -11.4940 O.co2  53  ASP53      -0.2456
     38  N        -55.4160   12.3610  -12.4380 N.am   54  ALA54      -0.1979
     39  CA       -56.6010   12.3230  -13.3140 C.3    54  ALA54       0.1597
     40  C        -57.7840   13.0040  -12.6620 C.2    54  ALA54       0.2287
     41  O        -58.5130   13.7410  -13.2970 O.2    54  ALA54      -0.2864
     42  CB       -56.9590   10.8700  -13.6510 C.3    54  ALA54       0.0319
     43  N        -57.1600   16.7660  -12.4760 N.3    57  LYS57      -0.1245
     44  CA       -57.4760   17.4430  -13.7410 C.3    57  LYS57       0.1561
     45  C        -58.9840   17.6110  -14.0000 C.2    57  LYS57       0.2260
     46  O        -59.4170   18.6020  -14.6020 O.2    57  LYS57      -0.2867
     47  CB       -56.8790   16.6960  -14.9200 C.3    57  LYS57       0.0271
     48  CG       -55.3660   16.6390  -14.9390 C.3    57  LYS57       0.0035
     49  CD       -54.9420   15.6880  -16.0240 C.3    57  LYS57       0.0206
     50  CE       -53.4750   15.3700  -15.9600 C.3    57  LYS57       0.1093
     51  NZ       -53.1190   14.4640  -17.0940 N.3    57  LYS57      -0.1314
     52  N        -60.1210    4.8850  -11.2660 N.3    88  ASP88      -0.1239
     53  CA       -60.4050    6.2330  -10.8090 C.3    88  ASP88       0.1674
     54  C        -61.5680    6.7810  -11.6460 C.2    88  ASP88       0.2266
     55  O        -61.7640    6.3760  -12.7920 O.2    88  ASP88      -0.2867
     56  CB       -59.1630    7.1190  -10.9440 C.3    88  ASP88       0.1410
     57  CG       -58.7530    7.3610  -12.4130 C.2    88  ASP88       0.3668
     58  OD1      -59.4690    8.1020  -13.1510 O.co2  88  ASP88      -0.2456
     59  OD2      -57.6990    6.7970  -12.8180 O.co2  88  ASP88      -0.2456
     60  N        -60.4330   12.0810  -15.2360 N.3    91  VAL91      -0.1231
     61  CA       -60.6690   12.6850  -16.5350 C.3    91  VAL91       0.1692
     62  C        -60.6680   11.6950  -17.7230 C.2    91  VAL91       0.2593
     63  O        -61.2480   11.9760  -18.8060 O.2    91  VAL91      -0.2718
     64  CB       -59.6460   13.8290  -16.7310 C.3    91  VAL91       0.0266
     65  CG1      -58.2990   13.2980  -17.1750 C.3    91  VAL91       0.0020
     66  CG2      -60.1870   14.8470  -17.7100 C.3    91  VAL91       0.0020
     67  N        -60.0240   10.5450  -17.5280 N.am   92  GLY92      -0.1942
     68  CA       -60.0150    9.5230  -18.5710 C.3    92  GLY92       0.2014
     69  C        -59.1700    9.8990  -19.7800 C.2    92  GLY92       0.2638
     70  O        -58.5360   10.9410  -19.7840 O.2    92  GLY92      -0.2714
     71  N        -59.1630    9.0550  -20.8070 N.am   93  MET93      -0.1976
     72  CA       -58.2550    9.2030  -21.9620 C.3    93  MET93       0.1605
     73  C        -58.9770    8.7360  -23.2420 C.2    93  MET93       0.2287
     74  O        -59.5550    7.6420  -23.2770 O.2    93  MET93      -0.2864
     75  CB       -56.9750    8.3520  -21.7630 C.3    93  MET93       0.0413
     76  CG       -55.8340    8.9350  -20.8990 C.3    93  MET93       0.0598
     77  SD       -54.4000    7.8090  -20.6490 S.3    93  MET93      -0.1393
     78  CE       -55.0820    6.5400  -19.5770 C.3    93  MET93       0.0692
     79  N        -49.8540    9.0580  -24.4630 N.3   101  ASN101     -0.1225
     80  CA       -49.4050    9.0650  -23.1030 C.3   101  ASN101      0.1785
     81  C        -48.9080    7.7380  -22.6250 C.2   101  ASN101      0.2597
     82  O        -47.8760    7.6820  -21.9380 O.2   101  ASN101     -0.2718
     83  CB       -50.4870    9.6180  -22.1920 C.3   101  ASN101      0.1169
     84  CG       -50.7630   11.1000  -22.4560 C.2   101  ASN101      0.2627
     85  OD1      -49.8450   11.9190  -22.6680 O.2   101  ASN101     -0.2716
     86  ND2      -52.0300   11.4550  -22.4620 N.am  101  ASN101     -0.0877
     87  N        -49.6120    6.6650  -22.9410 N.am  102  LEU102     -0.1980
     88  CA       -49.1790    5.3270  -22.4940 C.3   102  LEU102      0.1596
     89  C        -48.1390    4.6990  -23.4150 C.2   102  LEU102      0.2287
     90  O        -47.2190    4.0200  -22.9730 O.2   102  LEU102     -0.2864
     91  CB       -50.3530    4.3790  -22.3290 C.3   102  LEU102      0.0297
     92  CG       -51.3980    4.7030  -21.2430 C.3   102  LEU102      0.0022
     93  CD1      -52.3570    3.5090  -21.0680 C.3   102  LEU102      0.0001
     94  CD2      -50.7750    5.0840  -19.8980 C.3   102  LEU102      0.0001
     95  N        -43.1480   10.6620  -21.9810 N.3   107  ARG107     -0.1231
     96  CA       -44.1360   11.6630  -22.3040 C.3   107  ARG107      0.1694
     97  C        -45.1550   11.6400  -21.1800 C.2   107  ARG107      0.2593
     98  O        -45.6620   10.5970  -20.7830 O.2   107  ARG107     -0.2718
     99  CB       -44.7840   11.4580  -23.6650 C.3   107  ARG107      0.0321
    100  CG       -45.8260   12.5360  -23.9380 C.3   107  ARG107      0.0489
    101  CD       -46.3960   12.4610  -25.3210 C.3   107  ARG107      0.2205
    102  NE       -45.3520   12.5970  -26.3340 N.pl3 107  ARG107     -0.0865
    103  CZ       -45.4640   12.2090  -27.6100 C.cat 107  ARG107      0.5346
    104  NH1      -46.5870   11.6600  -28.0580 N.pl3 107  ARG107      0.1354
    105  NH2      -44.4450   12.3680  -28.4580 N.pl3 107  ARG107      0.1354
    106  N        -45.4480   12.8180  -20.6790 N.am  108  SER108     -0.1938
    107  CA       -46.3200   13.0230  -19.5450 C.3   108  SER108      0.2055
    108  C        -47.4120   14.0210  -19.9040 C.2   108  SER108      0.2644
    109  O        -47.1660   15.2190  -20.0530 O.2   108  SER108     -0.2714
    110  CB       -45.4860   13.6130  -18.4090 C.3   108  SER108      0.2130
    111  OG       -46.2640   13.9530  -17.2860 O.3   108  SER108     -0.2179
    112  N        -48.6270   13.5260  -20.0500 N.am  109  GLY109     -0.1939
    113  CA       -49.7670   14.4030  -20.2090 C.3   109  GLY109      0.2014
    114  C        -49.9260   15.3290  -19.0090 C.2   109  GLY109      0.2639
    115  O        -50.3020   16.4930  -19.1610 O.2   109  GLY109     -0.2714
    116  N        -49.6440   14.8280  -17.8140 N.am  110  SER110     -0.1949
    117  CA       -49.8310   15.6160  -16.5980 C.3   110  SER110      0.1924
    118  C        -48.8390   16.7650  -16.5230 C.2   110  SER110      0.2314
    119  O        -49.1670   17.8260  -16.0500 O.2   110  SER110     -0.2863
    120  CB       -49.7190   14.7220  -15.3500 C.3   110  SER110      0.2116
    121  OG       -50.6680   13.6300  -15.3190 O.3   110  SER110     -0.2180
    122  N        -47.2930   13.8120  -10.9840 N.3   129  GLY129     -0.1210
    123  CA       -46.4370   13.3150  -12.0720 C.3   129  GLY129      0.1956
    124  C        -45.6030   14.3210  -12.8390 C.2   129  GLY129      0.2612
    125  O        -46.0320   15.4240  -13.1040 O.2   129  GLY129     -0.2717
    126  N        -44.4080   13.8980  -13.2150 N.am  130  GLN130     -0.1965
    127  CA       -43.3790   14.7490  -13.8840 C.3   130  GLN130      0.1733
    128  C        -42.6820   14.0050  -15.0450 C.2   130  GLN130      0.2616
    129  O        -42.4350   14.5820  -16.0950 O.2   130  GLN130     -0.2715
    130  CB       -42.2430   15.1710  -12.9130 C.3   130  GLN130      0.0408
    131  CG       -42.6160   16.0310  -11.7070 C.3   130  GLN130      0.0908
    132  CD       -41.4210   16.2940  -10.7700 C.2   130  GLN130      0.2608
    133  OE1      -40.2730   16.1600  -11.1960 O.2   130  GLN130     -0.2717
    134  NE2      -41.6910   16.6980   -9.4960 N.am  130  GLN130     -0.0878
    135  N        -42.3380   12.7300  -14.8350 N.am  131  PHE131     -0.1960
    136  CA       -41.3280   12.0630  -15.6350 C.3   131  PHE131      0.1771
    137  C        -41.8870   11.3210  -16.8060 C.2   131  PHE131      0.2620
    138  O        -41.1920   11.1870  -17.7910 O.2   131  PHE131     -0.2715
    139  CB       -40.5080   11.1040  -14.7800 C.3   131  PHE131      0.0574
    140  CG       -39.8140   11.7710  -13.6170 C.ar  131  PHE131     -0.0200
    141  CD1      -38.8260   12.6810  -13.8020 C.ar  131  PHE131     -0.0042
    142  CD2      -40.1630   11.4790  -12.3410 C.ar  131  PHE131     -0.0042
    143  CE1      -38.2090   13.2860  -12.7220 C.ar  131  PHE131     -0.0003
    144  CE2      -39.5640   12.0760  -11.2440 C.ar  131  PHE131     -0.0003
    145  CZ       -38.5810   12.9880  -11.4360 C.ar  131  PHE131     -0.0000
    146  N        -43.1200   10.8150  -16.7030 N.am  132  GLY132     -0.1940
    147  CA       -43.7180   10.0250  -17.7850 C.3   132  GLY132      0.2014
    148  C        -43.2000    8.6030  -17.8400 C.2   132  GLY132      0.2639
    149  O        -43.0910    8.0240  -18.9150 O.2   132  GLY132     -0.2714
    150  N        -42.8540    8.0440  -16.6900 N.am  133  VAL133     -0.1963
    151  CA       -42.4520    6.6450  -16.6220 C.3   133  VAL133      0.1727
    152  C        -43.1840    5.8240  -15.5540 C.2   133  VAL133      0.2617
    153  O        -43.0740    4.6140  -15.5540 O.2   133  VAL133     -0.2715
    154  CB       -40.9490    6.4830  -16.3520 C.3   133  VAL133      0.0290
    155  CG1      -40.1340    7.2910  -17.3460 C.3   133  VAL133      0.0023
    156  CG2      -40.6150    6.8030  -14.8880 C.3   133  VAL133      0.0023
    157  N        -43.9130    6.4610  -14.6440 N.am  134  GLY134     -0.1940
    158  CA       -44.4590    5.7640  -13.4960 C.3   134  GLY134      0.2014
    159  C        -45.3730    4.6170  -13.8420 C.2   134  GLY134      0.2639
    160  O        -45.4500    3.6290  -13.1140 O.2   134  GLY134     -0.2714
    161  N        -46.0770    4.7580  -14.9570 N.am  135  PHE135     -0.1959
    162  CA       -47.0330    3.7450  -15.4030 C.3   135  PHE135      0.1771
    163  C        -46.3540    2.4130  -15.7460 C.2   135  PHE135      0.2619
    164  O        -46.9150    1.3560  -15.5000 O.2   135  PHE135     -0.2715
    165  CB       -47.8240    4.2620  -16.6080 C.3   135  PHE135      0.0574
    166  CG       -48.6740    3.2290  -17.2540 C.ar  135  PHE135     -0.0200
    167  CD1      -49.8680    2.8540  -16.6790 C.ar  135  PHE135     -0.0042
    168  CD2      -48.2660    2.6200  -18.4260 C.ar  135  PHE135     -0.0042
    169  CE1      -50.6520    1.8850  -17.2590 C.ar  135  PHE135     -0.0003
    170  CE2      -49.0510    1.6460  -19.0250 C.ar  135  PHE135     -0.0003
    171  CZ       -50.2470    1.2800  -18.4410 C.ar  135  PHE135     -0.0000
    172  N        -45.1260    2.4670  -16.2550 N.am  136  TYR136     -0.1974
    173  CA       -44.4110    1.2670  -16.6390 C.3   136  TYR136      0.1639
    174  C        -44.0190    0.4530  -15.4170 C.2   136  TYR136      0.2290
    175  O        -43.6670   -0.7070  -15.5450 O.2   136  TYR136     -0.2864
    176  CB       -43.2170    1.6260  -17.5340 C.3   136  TYR136      0.0560
    177  CG       -43.6700    2.4960  -18.7240 C.ar  136  TYR136     -0.0198
    178  CD1      -44.5380    1.9990  -19.6950 C.ar  136  TYR136     -0.0009
    179  CD2      -43.2910    3.8030  -18.8480 C.ar  136  TYR136     -0.0009
    180  CE1      -44.9780    2.7690  -20.7710 C.ar  136  TYR136      0.0417
    181  CE2      -43.7530    4.5850  -19.9150 C.ar  136  TYR136      0.0417
    182  CZ       -44.5910    4.0580  -20.8780 C.ar  136  TYR136      0.1957
    183  OH       -45.0230    4.8310  -21.9240 O.3   136  TYR136     -0.2866
    184  N        -60.7320    5.7740  -15.7430 N.3   179  THR179     -0.1218
    185  CA       -59.7500    4.8180  -16.1770 C.3   179  THR179      0.1862
    186  C        -59.6720    3.6220  -15.2280 C.2   179  THR179      0.2287
    187  O        -59.6230    3.7640  -14.0180 O.2   179  THR179     -0.2866
    188  CB       -58.3880    5.5220  -16.2920 C.3   179  THR179      0.1770
    189  OG1      -58.5230    6.6810  -17.1210 O.3   179  THR179     -0.2211
    190  CG2      -57.3200    4.6000  -16.8740 C.3   179  THR179      0.0375
    191  N        -57.5730   -0.0120  -14.5530 N.3   181  ILE181     -0.1245
    192  CA       -56.3380   -0.7090  -14.8990 C.3   181  ILE181      0.1561
    193  C        -56.2930   -2.0620  -14.2140 C.2   181  ILE181      0.2260
    194  O        -56.4160   -2.1390  -12.9930 O.2   181  ILE181     -0.2867
    195  CB       -55.1350    0.1200  -14.5090 C.3   181  ILE181      0.0252
    196  CG1      -55.2420    1.5130  -15.1600 C.3   181  ILE181      0.0019
    197  CG2      -53.8660   -0.6030  -14.9050 C.3   181  ILE181      0.0019
    198  CD1      -54.0700    2.4440  -14.8720 C.3   181  ILE181      0.0001
    199  N        -38.2060    8.3970   -7.1000 N.3   324  ARG324     -0.1245
    200  CA       -39.1070    8.9990   -6.1300 C.3   324  ARG324      0.1563
    201  C        -38.9330    8.5330   -4.7150 C.2   324  ARG324      0.2260
    202  O        -39.8720    8.6020   -3.9310 O.2   324  ARG324     -0.2867
    203  CB       -40.5580    8.8280   -6.5300 C.3   324  ARG324      0.0307
    204  CG       -41.0010    9.8460   -7.5110 C.3   324  ARG324      0.0489
    205  CD       -42.5000    9.8160   -7.5450 C.3   324  ARG324      0.2205
    206  NE       -43.1210   11.0150   -8.1370 N.pl3 324  ARG324     -0.0865
    207  CZ       -42.9580   11.3210   -9.3990 C.cat 324  ARG324      0.5346
    208  NH1      -42.1740   10.5280  -10.0650 N.pl3 324  ARG324      0.1354
    209  NH2      -43.4400   12.3500  -10.0530 N.pl3 324  ARG324      0.1354
@<TRIPOS>BOND
     1   105   103    1
     2   104   103    1
     3   103   102    2
     4   102   101    1
     5   101   100    1
     6    79    80    1
     7   100    99    1
     8    99    96    1
     9    89    90    2
    10    89    88    1
    11    74    73    2
    12    73    72    1
    13    80    81    1
    14    80    83    1
    15    87    81   am
    16    87    88    1
    17    85    84    2
    18    81    82    2
    19    88    91    1
    20    86    84   am
    21    84    83    1
    22    91    92    1
    23    96    95    1
    24    96    97    1
    25    72    75    1
    26    72    71    1
    27   183   182    1
    28    75    76    1
    29    92    93    1
    30    92    94    1
    31    97    98    2
    32    97   106   am
    33    76    77    1
    34   182   180   ar
    35   182   181   ar
    36    71    69   am
    37   180   178   ar
    38   106   107    1
    39    77    78    1
    40   113   112    1
    41   113   114    1
    42   109   108    2
    43   112   108   am
    44   181   179   ar
    45   108   107    1
    46    70    69    2
    47    69    68    1
    48   178   177   ar
    49   107   110    1
    50   115   114    2
    51   170   171   ar
    52   170   168   ar
    53   114   116   am
    54   149   148    2
    55   179   177   ar
    56    63    62    2
    57   177   176    1
    58    68    67    1
    59   171   169   ar
    60   168   166   ar
    61   110   111    1
    62   148   147    1
    63   148   150   am
    64   116   117    1
    65   138   137    2
    66   147   146    1
    67    62    67   am
    68    62    61    1
    69    66    64    1
    70   176   173    1
    71   155   154    1
    72   169   167   ar
    73   166   167   ar
    74   166   165    1
    75    65    64    1
    76   189   188    1
    77    51    50    1
    78   190   188    1
    79   137   146   am
    80   137   136    1
    81    64    61    1
    82   150   151    1
    83   173   172    1
    84   173   174    1
    85   151   154    1
    86   151   152    1
    87   165   162    1
    88   117   118    1
    89   117   120    1
    90    61    60    1
    91   118   119    2
    92   154   156    1
    93   188   185    1
    94   172   163   am
    95   185   184    1
    96   185   186    1
    97   129   128    2
    98    49    50    1
    99    49    48    1
   100   163   164    2
   101   163   162    1
   102   136   135    1
   103   136   139    1
   104   153   152    2
   105   152   157   am
   106   175   174    2
   107   162   161    1
   108   120   121    1
   109   186   187    2
   110   196   198    1
   111   196   195    1
   112   128   135   am
   113   128   127    1
   114   161   159   am
   115    48    47    1
   116    47    44    1
   117   197   195    1
   118   192   191    1
   119   192   195    1
   120   192   193    1
   121   139   140    1
   122   157   158    1
   123    46    45    2
   124   193   194    2
   125    45    44    1
   126   127   126    1
   127   127   130    1
   128   159   158    1
   129   159   160    2
   130   141   140   ar
   131   141   143   ar
   132    44    43    1
   133    42    39    1
   134   140   142   ar
   135    25    23   am
   136    39    40    1
   137    39    38    1
   138    41    40    2
   139   126   124   am
   140    58    57   ar
   141   125   124    2
   142    23    24    2
   143    23    22    1
   144   130   131    1
   145   124   123    1
   146    59    57   ar
   147    55    54    2
   148   143   145   ar
   149    22    19    1
   150    17    15    1
   151    38    32   am
   152    57    56    1
   153    33    32    2
   154   142   144   ar
   155    21    20    2
   156   123   122    1
   157    32    31    1
   158    34    31    1
   159    34    35    1
   160   131   132    1
   161    54    53    1
   162    19    20    1
   163    19    18    1
   164    20    26   am
   165    37    35   ar
   166   145   144   ar
   167    16    15    1
   168    52    53    1
   169   133   132    2
   170    15    14    1
   171    31    30    1
   172    35    36   ar
   173    56    53    1
   174   132   134   am
   175    26    27    1
   176    27    28    1
   177    14    11    1
   178     8     7   ar
   179    29    28    2
   180    11    10    1
   181    11    12    1
   182   208   207    1
   183     4     3    2
   184   209   207    1
   185    13    12    2
   186     5     6    1
   187     5     2    1
   188     6     7    1
   189     3    10   am
   190     3     2    1
   191   207   206    2
   192     7     9   ar
   193     2     1    1
   194   206   205    1
   195   205   204    1
   196   204   203    1
   197   199   200    1
   198   203   200    1
   199   200   201    1
   200   201   202    2
