@<TRIPOS>MOLECULE
tmp/5ttoB00.pdb
 215 204 0 0 0
SMALL
GASTEIGER

@<TRIPOS>ATOM
      1  N        139.1490   -4.9680   47.2020 N.3    54  PHE54      -0.1241
      2  CA       138.9420   -4.3030   45.9240 C.3    54  PHE54       0.1605
      3  C        140.0610   -4.6780   44.9600 C.2    54  PHE54       0.2264
      4  O        141.2450   -4.5240   45.2790 O.2    54  PHE54      -0.2867
      5  CB       138.8970   -2.7870   46.1080 C.3    54  PHE54       0.0534
      6  CG       137.6480   -2.2840   46.7770 C.ar   54  PHE54      -0.0203
      7  CD1      136.5590   -3.1170   46.9750 C.ar   54  PHE54      -0.0042
      8  CD2      137.5640   -0.9690   47.2030 C.ar   54  PHE54      -0.0042
      9  CE1      135.4120   -2.6480   47.5910 C.ar   54  PHE54      -0.0003
     10  CE2      136.4220   -0.4930   47.8170 C.ar   54  PHE54      -0.0003
     11  CZ       135.3440   -1.3340   48.0120 C.ar   54  PHE54      -0.0000
     12  N        140.8250   -3.2090   42.2230 N.3    56  HIS56      -0.1241
     13  CA       141.3420   -2.0440   41.5190 C.3    56  HIS56       0.1621
     14  C        142.3360   -1.2390   42.3440 C.2    56  HIS56       0.2264
     15  O        142.7870   -0.1840   41.8880 O.2    56  HIS56      -0.2867
     16  CB       140.1900   -1.1370   41.0880 C.3    56  HIS56       0.0745
     17  CG       139.4400   -0.5300   42.2340 C.ar   56  HIS56       0.0817
     18  ND1      138.4610   -1.2090   42.9260 N.ar   56  HIS56      -0.2268
     19  CD2      139.5360    0.6900   42.8160 C.ar   56  HIS56       0.1154
     20  CE1      137.9780   -0.4300   43.8790 C.ar   56  HIS56       0.1986
     21  NE2      138.6160    0.7260   43.8350 N.ar   56  HIS56      -0.2212
     22  N        138.0850   10.6320   46.3340 N.3    61  ALA61      -0.1245
     23  CA       137.1670   10.7800   45.2090 C.3    61  ALA61       0.1562
     24  C        137.7120   10.1040   43.9570 C.2    61  ALA61       0.2260
     25  O        136.9530    9.5010   43.1880 O.2    61  ALA61      -0.2867
     26  CB       136.9010   12.2610   44.9440 C.3    61  ALA61       0.0290
     27  N        137.4560    6.2100   44.4220 N.3    64  ILE64      -0.1231
     28  CA       136.1070    5.7390   44.1280 C.3    64  ILE64       0.1692
     29  C        135.8460    5.7800   42.6280 C.2    64  ILE64       0.2592
     30  O        135.2440    4.8580   42.0640 O.2    64  ILE64      -0.2718
     31  CB       135.0680    6.5670   44.9060 C.3    64  ILE64       0.0266
     32  CG1      135.3320    6.4820   46.4100 C.3    64  ILE64       0.0019
     33  CG2      133.6560    6.0970   44.5800 C.3    64  ILE64       0.0020
     34  CD1      134.4290    7.3680   47.2340 C.3    64  ILE64       0.0001
     35  N        136.2940    6.8470   41.9590 N.am   65  PHE65      -0.1976
     36  CA       136.1300    6.9500   40.5120 C.3    65  PHE65       0.1639
     37  C        136.8280    5.8030   39.7900 C.2    65  PHE65       0.2290
     38  O        136.2700    5.2190   38.8530 O.2    65  PHE65      -0.2864
     39  CB       136.6650    8.2960   40.0200 C.3    65  PHE65       0.0560
     40  CG       136.5580    8.4840   38.5340 C.ar   65  PHE65      -0.0200
     41  CD1      135.3630    8.8810   37.9580 C.ar   65  PHE65      -0.0042
     42  CD2      137.6540    8.2690   37.7120 C.ar   65  PHE65      -0.0042
     43  CE1      135.2610    9.0560   36.5910 C.ar   65  PHE65      -0.0003
     44  CE2      137.5570    8.4420   36.3460 C.ar   65  PHE65      -0.0003
     45  CZ       136.3590    8.8370   35.7860 C.ar   65  PHE65      -0.0000
     46  N        137.3640    2.9040   40.9990 N.3    67  GLY67      -0.1210
     47  CA       136.5490    1.7260   41.2470 C.3    67  GLY67       0.1956
     48  C        135.3620    1.6330   40.3080 C.2    67  GLY67       0.2612
     49  O        134.9940    0.5430   39.8620 O.2    67  GLY67      -0.2717
     50  N        134.7440    2.7760   39.9960 N.am   68  CYS68      -0.1970
     51  CA       133.6640    2.7820   39.0150 C.3    68  CYS68       0.1712
     52  C        134.1830    2.4280   37.6250 C.2    68  CYS68       0.2296
     53  O        133.4830    1.7760   36.8410 O.2    68  CYS68      -0.2864
     54  CB       132.9710    4.1450   39.0030 C.3    68  CYS68       0.0983
     55  SG       132.2980    4.6670   40.6040 S.3    68  CYS68      -0.0798
     56  N        134.6700   -1.5600   37.5600 N.3    71  ARG71      -0.1231
     57  CA       133.4330   -2.3320   37.4920 C.3    71  ARG71       0.1694
     58  C        132.7090   -2.1160   36.1680 C.2    71  ARG71       0.2592
     59  O        132.1240   -3.0560   35.6170 O.2    71  ARG71      -0.2718
     60  CB       132.5290   -1.9790   38.6740 C.3    71  ARG71       0.0321
     61  CG       131.1070   -2.5110   38.5580 C.3    71  ARG71       0.0489
     62  CD       131.0310   -4.0280   38.5450 C.3    71  ARG71       0.2205
     63  NE       129.7290   -4.4800   38.0590 N.pl3  71  ARG71      -0.0865
     64  CZ       129.5210   -5.6270   37.4200 C.cat  71  ARG71       0.5346
     65  NH1      130.5320   -6.4530   37.1860 N.pl3  71  ARG71       0.1354
     66  NH2      128.3000   -5.9490   37.0130 N.pl3  71  ARG71       0.1354
     67  N        132.7350   -0.8890   35.6420 N.am   72  SER72      -0.1952
     68  CA       132.1280   -0.6380   34.3370 C.3    72  SER72       0.1924
     69  C        132.7810   -1.4940   33.2590 C.2    72  SER72       0.2314
     70  O        132.0940   -2.0310   32.3810 O.2    72  SER72      -0.2863
     71  CB       132.2310    0.8460   33.9790 C.3    72  SER72       0.2116
     72  OG       131.7010    1.6650   35.0100 O.3    72  SER72      -0.2180
     73  N        131.4180   -4.8980   33.4700 N.3    75  ALA75      -0.1245
     74  CA       130.0370   -4.9830   33.0120 C.3    75  ALA75       0.1562
     75  C        129.9440   -4.9780   31.4930 C.2    75  ALA75       0.2260
     76  O        129.0360   -5.6020   30.9300 O.2    75  ALA75      -0.2867
     77  CB       129.2160   -3.8360   33.6050 C.3    75  ALA75       0.0290
     78  N        124.3450   -0.0470   31.7560 N.3   109  ILE109     -0.1231
     79  CA       125.0370   -0.0090   33.0420 C.3   109  ILE109      0.1692
     80  C        124.1710    0.6740   34.0900 C.2   109  ILE109      0.2592
     81  O        124.0450    0.1970   35.2230 O.2   109  ILE109     -0.2718
     82  CB       126.4040    0.6880   32.8970 C.3   109  ILE109      0.0266
     83  CG1      127.4220   -0.2480   32.2350 C.3   109  ILE109      0.0019
     84  CG2      126.9130    1.1660   34.2580 C.3   109  ILE109      0.0020
     85  CD1      128.8340    0.2960   32.2360 C.3   109  ILE109      0.0001
     86  N        123.5350    1.7840   33.7210 N.am  110  TYR110     -0.1976
     87  CA       122.7600    2.5510   34.6820 C.3   110  TYR110      0.1639
     88  C        121.3290    2.0560   34.8030 C.2   110  TYR110      0.2290
     89  O        120.6810    2.3200   35.8190 O.2   110  TYR110     -0.2864
     90  CB       122.8430    4.0260   34.3020 C.3   110  TYR110      0.0560
     91  CG       124.2610    4.4830   34.5050 C.ar  110  TYR110     -0.0198
     92  CD1      124.8870    4.2770   35.7250 C.ar  110  TYR110     -0.0009
     93  CD2      125.0070    5.0190   33.4660 C.ar  110  TYR110     -0.0009
     94  CE1      126.1910    4.6470   35.9320 C.ar  110  TYR110      0.0417
     95  CE2      126.3280    5.3940   33.6630 C.ar  110  TYR110      0.0417
     96  CZ       126.9110    5.2020   34.9030 C.ar  110  TYR110      0.1957
     97  OH       128.2200    5.5630   35.1270 O.3   110  TYR110     -0.2866
     98  N        122.2550   -0.7630   37.2340 N.3   113  LEU113     -0.1245
     99  CA       122.6780   -0.1810   38.5020 C.3   113  LEU113      0.1561
    100  C        121.4720    0.1700   39.3660 C.2   113  LEU113      0.2260
    101  O        121.5230    0.0490   40.5950 O.2   113  LEU113     -0.2867
    102  CB       123.5420    1.0540   38.2550 C.3   113  LEU113      0.0270
    103  CG       124.2730    1.6330   39.4680 C.3   113  LEU113      0.0019
    104  CD1      125.2850    0.6390   40.0180 C.3   113  LEU113      0.0001
    105  CD2      124.9500    2.9460   39.1060 C.3   113  LEU113      0.0001
    106  N        120.5870   -2.2130   41.9650 N.3   116  LEU116     -0.1245
    107  CA       121.4160   -2.2800   43.1590 C.3   116  LEU116      0.1561
    108  C        121.3090   -1.0230   44.0130 C.2   116  LEU116      0.2260
    109  O        122.1170   -0.8340   44.9280 O.2   116  LEU116     -0.2867
    110  CB       122.8780   -2.5280   42.7720 C.3   116  LEU116      0.0270
    111  CG       123.1950   -3.5520   41.6730 C.3   116  LEU116      0.0019
    112  CD1      124.6790   -3.8870   41.6720 C.3   116  LEU116      0.0001
    113  CD2      122.3670   -4.8220   41.7910 C.3   116  LEU116      0.0001
    114  N        123.8670    2.4030   47.2370 N.3   122  VAL122     -0.1231
    115  CA       124.0620    1.4500   46.1480 C.3   122  VAL122      0.1692
    116  C        124.8980    0.2740   46.6410 C.2   122  VAL122      0.2592
    117  O        125.9290    0.4670   47.2940 O.2   122  VAL122     -0.2718
    118  CB       124.7330    2.1170   44.9270 C.3   122  VAL122      0.0266
    119  CG1      126.0270    2.8230   45.3200 C.3   122  VAL122      0.0020
    120  CG2      124.9880    1.0960   43.8260 C.3   122  VAL122      0.0020
    121  N        124.4550   -0.9430   46.3300 N.am  123  LEU123     -0.1966
    122  CA       125.2660   -2.1250   46.5940 C.3   123  LEU123      0.1728
    123  C        126.4820   -2.1520   45.6780 C.2   123  LEU123      0.2616
    124  O        126.4230   -1.7230   44.5220 O.2   123  LEU123     -0.2715
    125  CB       124.4460   -3.4000   46.3940 C.3   123  LEU123      0.0311
    126  CG       123.2990   -3.6930   47.3590 C.3   123  LEU123      0.0022
    127  CD1      122.5310   -4.9260   46.9070 C.3   123  LEU123      0.0001
    128  CD2      123.8470   -3.8920   48.7590 C.3   123  LEU123      0.0001
    129  N        127.5980   -2.6540   46.2060 N.am  124  ILE124     -0.1963
    130  CA       128.8230   -2.8390   45.4440 C.3   124  ILE124      0.1727
    131  C        129.3780   -4.2220   45.7590 C.2   124  ILE124      0.2616
    132  O        128.9960   -4.8610   46.7400 O.2   124  ILE124     -0.2715
    133  CB       129.8830   -1.7590   45.7480 C.3   124  ILE124      0.0290
    134  CG1      130.3960   -1.9040   47.1820 C.3   124  ILE124      0.0022
    135  CG2      129.3190   -0.3680   45.5110 C.3   124  ILE124      0.0023
    136  CD1      131.4060   -0.8520   47.5770 C.3   124  ILE124      0.0001
    137  N        130.2860   -4.6760   44.8970 N.am  125  SER125     -0.1950
    138  CA       131.0640   -5.8980   45.1060 C.3   125  SER125      0.1924
    139  C        130.1650   -7.0960   45.4120 C.2   125  SER125      0.2314
    140  O        130.2230   -7.6990   46.4860 O.2   125  SER125     -0.2863
    141  CB       132.0990   -5.6920   46.2140 C.3   125  SER125      0.2116
    142  OG       132.6310   -4.3790   46.1690 O.3   125  SER125     -0.2180
    143  N        127.4140    1.6600   49.6040 N.3   131  MET131     -0.1245
    144  CA       127.9460    3.0120   49.6850 C.3   131  MET131      0.1570
    145  C        126.7770    3.9810   49.7700 C.2   131  MET131      0.2261
    146  O        125.8930    3.9630   48.9070 O.2   131  MET131     -0.2867
    147  CB       128.8250    3.3190   48.4690 C.3   131  MET131      0.0387
    148  CG       130.0040    4.2380   48.7470 C.3   131  MET131      0.0595
    149  SD       131.1320    4.3480   47.3410 S.3   131  MET131     -0.1393
    150  CE       130.9500    2.7200   46.6220 C.3   131  MET131      0.0692
    151  N        128.5800    9.8430   48.8380 N.3   136  LEU136     -0.1245
    152  CA       128.9870   10.0000   47.4450 C.3   136  LEU136      0.1561
    153  C        128.7960   11.4300   46.9590 C.2   136  LEU136      0.2260
    154  O        129.6180   11.9410   46.1890 O.2   136  LEU136     -0.2867
    155  CB       128.2210    9.0190   46.5620 C.3   136  LEU136      0.0270
    156  CG       128.6970    7.5800   46.7450 C.3   136  LEU136      0.0019
    157  CD1      127.6740    6.5900   46.2250 C.3   136  LEU136      0.0001
    158  CD2      130.0340    7.4040   46.0440 C.3   136  LEU136      0.0001
    159  N        131.4620   14.0840   48.0410 N.3   139  LEU139     -0.1245
    160  CA       132.7620   14.1090   47.3920 C.3   139  LEU139      0.1561
    161  C        133.0000   15.4580   46.7250 C.2   139  LEU139      0.2260
    162  O        132.0750   16.1020   46.2240 O.2   139  LEU139     -0.2867
    163  CB       132.8650   12.9800   46.3670 C.3   139  LEU139      0.0270
    164  CG       132.7650   11.5730   46.9580 C.3   139  LEU139      0.0019
    165  CD1      132.9580   10.5120   45.8810 C.3   139  LEU139      0.0001
    166  CD2      133.7720   11.3960   48.0850 C.3   139  LEU139      0.0001
    167  N        133.5550   15.2940   41.3410 N.3   143  PHE143     -0.1241
    168  CA       133.2650   13.8840   41.5800 C.3   143  PHE143      0.1605
    169  C        131.9610   13.6950   42.3440 C.2   143  PHE143      0.2264
    170  O        131.2600   12.6980   42.1310 O.2   143  PHE143     -0.2867
    171  CB       134.4270   13.2330   42.3260 C.3   143  PHE143      0.0534
    172  CG       135.6760   13.1200   41.5050 C.ar  143  PHE143     -0.0203
    173  CD1      135.7990   12.1340   40.5400 C.ar  143  PHE143     -0.0042
    174  CD2      136.7200   14.0120   41.6820 C.ar  143  PHE143     -0.0042
    175  CE1      136.9440   12.0310   39.7780 C.ar  143  PHE143     -0.0003
    176  CE2      137.8690   13.9140   40.9210 C.ar  143  PHE143     -0.0003
    177  CZ       137.9800   12.9230   39.9680 C.ar  143  PHE143     -0.0000
    178  N        128.5950   13.0520   40.0430 N.3   146  PHE146     -0.1227
    179  CA       128.3790   11.9610   39.0960 C.3   146  PHE146      0.1736
    180  C        127.1010   11.1940   39.4090 C.2   146  PHE146      0.2595
    181  O        126.3020   10.9040   38.5110 O.2   146  PHE146     -0.2718
    182  CB       129.5790   11.0110   39.1040 C.3   146  PHE146      0.0547
    183  CG       130.6530   11.3770   38.1220 C.ar  146  PHE146     -0.0202
    184  CD1      130.4790   11.1370   36.7690 C.ar  146  PHE146     -0.0042
    185  CD2      131.8400   11.9460   38.5500 C.ar  146  PHE146     -0.0042
    186  CE1      131.4650   11.4690   35.8590 C.ar  146  PHE146     -0.0003
    187  CE2      132.8300   12.2800   37.6460 C.ar  146  PHE146     -0.0003
    188  CZ       132.6410   12.0410   36.2980 C.ar  146  PHE146     -0.0000
    189  N        126.8820   10.8680   40.6820 N.am  147  MET147     -0.1979
    190  CA       125.9440    9.8140   41.0420 C.3   147  MET147      0.1605
    191  C        124.5520   10.3100   41.4270 C.2   147  MET147      0.2287
    192  O        123.5850    9.5540   41.2710 O.2   147  MET147     -0.2864
    193  CB       126.5390    8.9740   42.1830 C.3   147  MET147      0.0413
    194  CG       125.6130    7.9270   42.7420 C.3   147  MET147      0.0598
    195  SD       125.8930    6.2550   42.1450 S.3   147  MET147     -0.1393
    196  CE       127.5580    5.9730   42.7240 C.3   147  MET147      0.0692
    197  N        121.9130    9.7310   38.9620 N.3   150  LYS150     -0.1245
    198  CA       121.6200    8.3060   38.8540 C.3   150  LYS150      0.1561
    199  C        120.6390    7.8680   39.9370 C.2   150  LYS150      0.2260
    200  O        119.6890    7.1240   39.6630 O.2   150  LYS150     -0.2867
    201  CB       122.9190    7.5020   38.9300 C.3   150  LYS150      0.0271
    202  CG       124.0570    8.0790   38.0870 C.3   150  LYS150      0.0035
    203  CD       124.0330    7.5190   36.6730 C.3   150  LYS150      0.0206
    204  CE       124.9660    8.2740   35.7270 C.3   150  LYS150      0.1093
    205  NZ       126.1210    8.9230   36.4020 N.3   150  LYS150     -0.1314
    206  N        126.4570   12.2580   31.6510 N.3   232  HIS232     -0.1241
    207  CA       127.5400   11.5360   32.3130 C.3   232  HIS232      0.1621
    208  C        128.8580   11.7070   31.5680 C.2   232  HIS232      0.2264
    209  O        129.8950   11.9980   32.1800 O.2   232  HIS232     -0.2867
    210  CB       127.1840   10.0550   32.4500 C.3   232  HIS232      0.0745
    211  CG       128.2570    9.2400   33.1030 C.ar  232  HIS232      0.0817
    212  ND1      128.5480    9.3350   34.4460 N.ar  232  HIS232     -0.2268
    213  CD2      129.1080    8.3130   32.5990 C.ar  232  HIS232      0.1154
    214  CE1      129.5340    8.5080   34.7420 C.ar  232  HIS232      0.1986
    215  NE2      129.8910    7.8740   33.6400 N.ar  232  HIS232     -0.2212
@<TRIPOS>BOND
     1    76    75    2
     2    75    74    1
     3   208   209    2
     4   208   207    1
     5   206   207    1
     6    78    79    1
     7    83    85    1
     8    83    82    1
     9   207   210    1
    10    70    69    2
    11   210   211    1
    12   213   211   ar
    13   213   215   ar
    14    82    79    1
    15    82    84    1
    16    74    73    1
    17    74    77    1
    18    79    80    1
    19   211   212   ar
    20    69    68    1
    21    93    95   ar
    22    93    91   ar
    23   215   214   ar
    24    95    96   ar
    25    86    80   am
    26    86    87    1
    27    71    68    1
    28    71    72    1
    29    80    81    2
    30    90    91    1
    31    90    87    1
    32    68    67    1
    33   212   214   ar
    34    91    92   ar
    35    87    88    1
    36    88    89    2
    37    96    97    1
    38    96    94   ar
    39    59    58    2
    40    67    58   am
    41    92    94   ar
    42   204   205    1
    43   204   203    1
    44    45    44   ar
    45    45    43   ar
    46   186   188   ar
    47   186   184   ar
    48    58    57    1
    49   188   187   ar
    50    44    42   ar
    51    43    41   ar
    52   203   202    1
    53   184   183   ar
    54    53    52    2
    55    66    64    1
    56    65    64    1
    57    98    99    1
    58    64    63    2
    59    57    56    1
    60    57    60    1
    61    52    51    1
    62   187   185   ar
    63    42    40   ar
    64    41    40   ar
    65    63    62    1
    66   202   201    1
    67   183   185   ar
    68   183   182    1
    69   102    99    1
    70   102   103    1
    71    99   100    1
    72   181   180    2
    73    40    39    1
    74    62    61    1
    75    61    60    1
    76    38    37    2
    77   198   201    1
    78   198   197    1
    79   198   199    1
    80    54    51    1
    81    54    55    1
    82    51    50    1
    83   179   182    1
    84   179   180    1
    85   179   178    1
    86   105   103    1
    87   100   101    2
    88   180   189   am
    89   103   104    1
    90   200   199    2
    91   175   177   ar
    92   175   173   ar
    93    37    36    1
    94    49    48    2
    95   177   176   ar
    96    50    48   am
    97    39    36    1
    98    48    47    1
    99    36    35    1
   100   173   172   ar
   101   189   190    1
   102   176   174   ar
   103    46    47    1
   104   190   191    1
   105   190   193    1
   106    16    13    1
   107    16    17    1
   108   192   191    2
   109   167   168    1
   110   172   174   ar
   111   172   171    1
   112    13    12    1
   113    13    14    1
   114   168   171    1
   115   168   169    1
   116   112   111    1
   117   111   113    1
   118   111   110    1
   119    15    14    2
   120    35    29   am
   121   106   107    1
   122    30    29    2
   123   170   169    2
   124   195   196    1
   125   195   194    1
   126   193   194    1
   127    17    19   ar
   128    17    18   ar
   129    29    28    1
   130   110   107    1
   131    19    21   ar
   132    18    20   ar
   133   107   108    1
   134    25    24    2
   135   120   118    1
   136    21    20   ar
   137    24    23    1
   138   108   109    2
   139    28    27    1
   140    28    31    1
   141   124   123    2
   142    33    31    1
   143   137   138    1
   144   137   131   am
   145    31    32    1
   146   118   119    1
   147   118   115    1
   148    26    23    1
   149     3     4    2
   150     3     2    1
   151   138   139    1
   152   138   141    1
   153    23    22    1
   154   139   140    2
   155   130   133    1
   156   130   131    1
   157   130   129    1
   158   135   133    1
   159   123   129   am
   160   123   122    1
   161   133   134    1
   162   131   132    2
   163   165   164    1
   164     2     5    1
   165     2     1    1
   166   158   156    1
   167     5     6    1
   168   115   116    1
   169   115   114    1
   170   142   141    1
   171   154   153    2
   172   162   161    2
   173   157   156    1
   174   121   122    1
   175   121   116   am
   176   163   164    1
   177   163   160    1
   178   125   122    1
   179   125   126    1
   180    32    34    1
   181   155   156    1
   182   155   152    1
   183   150   149    1
   184   116   117    2
   185   161   160    1
   186     6     7   ar
   187     6     8   ar
   188   127   126    1
   189   164   166    1
   190   153   152    1
   191     7     9   ar
   192   134   136    1
   193     8    10   ar
   194   149   148    1
   195   126   128    1
   196   160   159    1
   197   152   151    1
   198     9    11   ar
   199    10    11   ar
   200   147   148    1
   201   147   144    1
   202   146   145    2
   203   143   144    1
   204   144   145    1
