@<TRIPOS>MOLECULE
tmp/5ttuA00.pdb
 146 137 0 0 0
SMALL
GASTEIGER

@<TRIPOS>ATOM
      1  N         -2.4040   19.0950    1.0990 N.3    14  LEU14      -0.1231
      2  CA        -1.5950   19.0760   -0.1370 C.3    14  LEU14       0.1693
      3  C         -2.4330   19.5610   -1.3240 C.2    14  LEU14       0.2593
      4  O         -1.8830   20.1230   -2.2720 O.2    14  LEU14      -0.2718
      5  CB        -0.9400   17.7010   -0.4360 C.3    14  LEU14       0.0284
      6  CG         0.1220   17.2260    0.5640 C.3    14  LEU14       0.0019
      7  CD1        0.5100   15.7730    0.3060 C.3    14  LEU14       0.0001
      8  CD2        1.3680   18.1580    0.5760 C.3    14  LEU14       0.0001
      9  N         -3.7510   19.4090   -1.2250 N.am   15  GLY15      -0.1942
     10  CA        -4.6800   19.8930   -2.2500 C.3    15  GLY15       0.2014
     11  C         -5.8140   18.9380   -2.5410 C.2    15  GLY15       0.2638
     12  O         -5.9660   17.9430   -1.8320 O.2    15  GLY15      -0.2714
     13  N         -6.6410   19.2600   -3.5590 N.am   16  LYS16      -0.1977
     14  CA        -7.7740   18.4330   -4.0130 C.3    16  LYS16       0.1596
     15  C         -7.3220   17.6540   -5.2530 C.2    16  LYS16       0.2287
     16  O         -6.6590   18.2240   -6.1210 O.2    16  LYS16      -0.2864
     17  CB        -9.0150   19.2950   -4.3450 C.3    16  LYS16       0.0298
     18  CG       -10.2560   18.4860   -4.7750 C.3    16  LYS16       0.0038
     19  CD       -11.5570   19.2970   -4.6800 C.3    16  LYS16       0.0206
     20  CE       -12.7920   18.4230   -4.6940 C.3    16  LYS16       0.1093
     21  NZ       -13.3970   18.3090   -6.0490 N.3    16  LYS16      -0.1314
     22  N         -6.2410   15.6170   -0.3530 N.3    19  VAL19      -0.1245
     23  CA        -4.9890   14.8960   -0.1390 C.3    19  VAL19       0.1561
     24  C         -4.2620   15.6500    0.9660 C.2    19  VAL19       0.2260
     25  O         -4.0840   16.8680    0.8590 O.2    19  VAL19      -0.2867
     26  CB        -4.1220   14.7650   -1.4240 C.3    19  VAL19       0.0252
     27  CG1       -2.9170   13.8680   -1.1680 C.3    19  VAL19       0.0019
     28  CG2       -4.9540   14.2280   -2.6060 C.3    19  VAL19       0.0019
     29  N          1.2860   10.6690    1.5180 N.3    36  ALA36      -0.1245
     30  CA         0.1940   11.4840    0.9930 C.3    36  ALA36       0.1562
     31  C         -1.0470   10.6250    1.1630 C.2    36  ALA36       0.2260
     32  O         -1.0780    9.4530    0.7560 O.2    36  ALA36      -0.2867
     33  CB         0.4330   11.7840   -0.4740 C.3    36  ALA36       0.0290
     34  N          2.3490    7.2780   -9.8380 N.3    67  VAL67      -0.1245
     35  CA         2.4950    7.4780   -8.3680 C.3    67  VAL67       0.1561
     36  C          2.2660    6.1400   -7.6350 C.2    67  VAL67       0.2260
     37  O          1.3410    5.3880   -7.9880 O.2    67  VAL67      -0.2867
     38  CB         1.5680    8.6040   -7.8270 C.3    67  VAL67       0.0252
     39  CG1        0.0890    8.2220   -7.9250 C.3    67  VAL67       0.0019
     40  CG2        1.9510    8.9930   -6.3930 C.3    67  VAL67       0.0019
     41  N         -0.4780    6.9440   -0.3020 N.3    79  MET79      -0.1230
     42  CA         0.4250    6.9060   -1.4720 C.3    79  MET79       0.1702
     43  C          1.7680    7.4890   -1.0570 C.2    79  MET79       0.2592
     44  O          1.8390    8.1760   -0.0410 O.2    79  MET79      -0.2718
     45  CB        -0.1540    7.8310   -2.5960 C.3    79  MET79       0.0401
     46  CG        -1.5030    7.3270   -3.1180 C.3    79  MET79       0.0596
     47  SD        -2.3160    8.5810   -4.1720 S.3    79  MET79      -0.1393
     48  CE        -2.9390    9.7950   -2.9650 C.3    79  MET79       0.0692
     49  N          2.8000    7.3120   -1.8980 N.am   80  GLU80      -0.1966
     50  CA         4.0910    7.9570   -1.6240 C.3    80  GLU80       0.1733
     51  C          3.9220    9.4750   -1.7000 C.2    80  GLU80       0.2616
     52  O          3.0480    9.9690   -2.4240 O.2    80  GLU80      -0.2715
     53  CB         5.1360    7.4900   -2.6300 C.3    80  GLU80       0.0429
     54  CG         4.7540    7.8180   -4.0650 C.3    80  GLU80       0.1163
     55  CD         5.8480    7.5180   -5.0610 C.2    80  GLU80       0.3649
     56  OE1        7.0330    7.4430   -4.6550 O.co2  80  GLU80      -0.2457
     57  OE2        5.5090    7.3350   -6.2480 O.co2  80  GLU80      -0.2457
     58  N          4.6970   10.2080   -0.8910 N.am   81  TYR81      -0.1960
     59  CA         4.6490   11.6580   -0.8850 C.3    81  TYR81       0.1771
     60  C          5.7810   12.1590   -1.7670 C.2    81  TYR81       0.2619
     61  O          6.9280   11.7400   -1.5970 O.2    81  TYR81      -0.2715
     62  CB         4.7960   12.1940    0.5500 C.3    81  TYR81       0.0574
     63  CG         5.0420   13.6880    0.6790 C.ar   81  TYR81      -0.0198
     64  CD1        4.1710   14.6170    0.1010 C.ar   81  TYR81      -0.0009
     65  CD2        6.0910   14.1760    1.4540 C.ar   81  TYR81      -0.0009
     66  CE1        4.3900   15.9880    0.2290 C.ar   81  TYR81       0.0417
     67  CE2        6.2980   15.5440    1.6160 C.ar   81  TYR81       0.0417
     68  CZ         5.4320   16.4430    1.0240 C.ar   81  TYR81       0.1957
     69  OH         5.6360   17.7840    1.2060 O.3    81  TYR81      -0.2866
     70  N          5.4580   13.0680   -2.6980 N.am   82  LEU82      -0.1977
     71  CA         6.4440   13.6940   -3.5890 C.3    82  LEU82       0.1596
     72  C          6.4580   15.1910   -3.2350 C.2    82  LEU82       0.2287
     73  O          5.5670   15.9600   -3.6510 O.2    82  LEU82      -0.2864
     74  CB         6.0950   13.4420   -5.0800 C.3    82  LEU82       0.0297
     75  CG         6.0550   11.9610   -5.5200 C.3    82  LEU82       0.0022
     76  CD1        5.9230   11.8320   -7.0170 C.3    82  LEU82       0.0001
     77  CD2        7.2780   11.2320   -5.1130 C.3    82  LEU82       0.0001
     78  N          5.8560   18.2440   -5.4790 N.3    85  GLY85      -0.1210
     79  CA         4.4800   18.5400   -5.8730 C.3    85  GLY85       0.1956
     80  C          4.2060   18.4560   -7.3670 C.2    85  GLY85       0.2612
     81  O          4.9410   17.7960   -8.0850 O.2    85  GLY85      -0.2717
     82  N          3.1250   19.1080   -7.8250 N.am   86  CYS86      -0.1970
     83  CA         2.6740   19.0280   -9.2050 C.3    86  CYS86       0.1712
     84  C          3.6250   19.6660  -10.2050 C.2    86  CYS86       0.2296
     85  O          4.2890   20.6750   -9.9240 O.2    86  CYS86      -0.2864
     86  CB         1.2530   19.5540   -9.3630 C.3    86  CYS86       0.0983
     87  SG         1.1320   21.3600   -9.1880 S.3    86  CYS86      -0.0798
     88  N          2.8350   21.3740  -12.8360 N.3    88  ARG88      -0.1231
     89  CA         2.4390   22.7190  -13.2160 C.3    88  ARG88       0.1694
     90  C          3.1860   23.8040  -12.4210 C.2    88  ARG88       0.2592
     91  O          3.7400   24.7210  -13.0280 O.2    88  ARG88      -0.2718
     92  CB         0.9300   22.8790  -13.1070 C.3    88  ARG88       0.0321
     93  CG         0.4850   24.2850  -13.4690 C.3    88  ARG88       0.0489
     94  CD        -0.8970   24.5870  -12.9980 C.3    88  ARG88       0.2205
     95  NE        -0.9740   24.6470  -11.5380 N.pl3  88  ARG88      -0.0865
     96  CZ        -2.1140   24.6070  -10.8640 C.cat  88  ARG88       0.5346
     97  NH1       -3.2710   24.5170  -11.5100 N.pl3  88  ARG88       0.1354
     98  NH2       -2.1080   24.6580   -9.5360 N.pl3  88  ARG88       0.1354
     99  N          3.1850   23.7010  -11.0800 N.am   89  ASP89      -0.1974
    100  CA         3.8290   24.6910  -10.2080 C.3    89  ASP89       0.1709
    101  C          5.3210   24.5820  -10.3040 C.2    89  ASP89       0.2293
    102  O          6.0080   25.6070  -10.2580 O.2    89  ASP89      -0.2864
    103  CB         3.3640   24.5010   -8.7640 C.3    89  ASP89       0.1436
    104  CG         1.8930   24.7880   -8.5620 C.2    89  ASP89       0.3671
    105  OD1        1.2600   25.3310   -9.4890 O.co2  89  ASP89      -0.2456
    106  OD2        1.3800   24.4880   -7.4750 O.co2  89  ASP89      -0.2456
    107  N         -1.2100   19.8190  -13.7970 N.3   130  ARG130     -0.1231
    108  CA        -1.5630   19.9310  -12.3760 C.3   130  ARG130      0.1694
    109  C         -1.7550   18.5230  -11.7340 C.2   130  ARG130      0.2592
    110  O         -1.7600   18.4100  -10.5090 O.2   130  ARG130     -0.2718
    111  CB        -2.8380   20.7900  -12.2070 C.3   130  ARG130      0.0321
    112  CG        -4.1070   20.0810  -12.6740 C.3   130  ARG130      0.0489
    113  CD        -5.3480   20.9460  -12.5770 C.3   130  ARG130      0.2205
    114  NE        -5.7320   21.4300  -13.9020 N.pl3 130  ARG130     -0.0865
    115  CZ        -6.5250   20.7800  -14.7490 C.cat 130  ARG130      0.5346
    116  NH1       -6.7950   21.2960  -15.9350 N.pl3 130  ARG130      0.1354
    117  NH2       -7.0680   19.6160  -14.4050 N.pl3 130  ARG130      0.1354
    118  N         -1.9110   17.4640  -12.5670 N.am  131  ASN131     -0.1974
    119  CA        -2.1360   16.0870  -12.0910 C.3   131  ASN131      0.1688
    120  C         -0.9470   15.1600  -12.2730 C.2   131  ASN131      0.2292
    121  O         -1.0650   13.9300  -12.1680 O.2   131  ASN131     -0.2864
    122  CB        -3.3970   15.5400  -12.7640 C.3   131  ASN131      0.1181
    123  CG        -4.6220   16.3240  -12.3800 C.2   131  ASN131      0.2629
    124  OD1       -4.8120   16.6800  -11.2090 O.2   131  ASN131     -0.2716
    125  ND2       -5.5080   16.5900  -13.3390 N.am  131  ASN131     -0.0877
    126  N          3.0440   14.6080  -10.9440 N.3   133  LEU133     -0.1245
    127  CA         3.8980   14.9400   -9.8170 C.3   133  LEU133      0.1561
    128  C          5.3350   14.8690  -10.2210 C.2   133  LEU133      0.2260
    129  O          5.6780   14.1260  -11.1160 O.2   133  LEU133     -0.2867
    130  CB         3.6590   13.9630   -8.6460 C.3   133  LEU133      0.0270
    131  CG         2.2590   13.9550   -8.0720 C.3   133  LEU133      0.0019
    132  CD1        2.1060   12.8340   -7.0320 C.3   133  LEU133      0.0001
    133  CD2        1.8720   15.3200   -7.5440 C.3   133  LEU133      0.0001
    134  N         -0.3960   11.1330  -11.5700 N.3   143  ALA143     -0.1231
    135  CA        -1.1670   10.9170  -10.3510 C.3   143  ALA143      0.1694
    136  C         -2.6180   11.2640  -10.6030 C.2   143  ALA143      0.2592
    137  O         -3.0160   11.3700  -11.7630 O.2   143  ALA143     -0.2718
    138  CB        -0.6000   11.7820   -9.2350 C.3   143  ALA143      0.0304
    139  N         -3.4060   11.4440   -9.5020 N.am  144  ASP144     -0.1974
    140  CA        -4.8060   11.9120   -9.5750 C.3   144  ASP144      0.1709
    141  C         -5.6990   10.9790  -10.4130 C.2   144  ASP144      0.2293
    142  O         -6.1890   11.3680  -11.4750 O.2   144  ASP144     -0.2864
    143  CB        -4.8700   13.3820  -10.0930 C.3   144  ASP144      0.1436
    144  CG        -6.2090   13.8420  -10.6720 C.2   144  ASP144      0.3671
    145  OD1       -7.1630   14.0080   -9.8990 O.co2 144  ASP144     -0.2456
    146  OD2       -6.3060   13.9900  -11.9120 O.co2 144  ASP144     -0.2456
@<TRIPOS>BOND
     1   116   115    1
     2   115   117    1
     3   115   114    2
     4   114   113    1
     5   107   108    1
     6    93    92    1
     7    93    94    1
     8   125   123   am
     9    89    92    1
    10    89    88    1
    11    89    90    1
    12    91    90    2
    13    94    95    1
    14   122   123    1
    15   122   119    1
    16   112   113    1
    17   112   111    1
    18   118   119    1
    19   118   109   am
    20    90    99   am
    21   123   124    2
    22   108   111    1
    23   108   109    1
    24   120   121    2
    25   120   119    1
    26   146   144   ar
    27   137   136    2
    28   109   110    2
    29   134   135    1
    30    95    96    2
    31    97    96    1
    32   142   141    2
    33   129   128    2
    34    99   100    1
    35   126   127    1
    36    96    98    1
    37   144   143    1
    38   144   145   ar
    39   136   135    1
    40   136   139   am
    41   141   140    1
    42   135   138    1
    43   101   102    2
    44   101   100    1
    45   128   127    1
    46   100   103    1
    47    84    85    2
    48    84    83    1
    49   143   140    1
    50    34    35    1
    51   127   130    1
    52   140   139    1
    53   105   104   ar
    54    86    83    1
    55    86    87    1
    56    83    82    1
    57   103   104    1
    58   130   131    1
    59   104   106   ar
    60    35    38    1
    61    35    36    1
    62    81    80    2
    63   131   133    1
    64   131   132    1
    65    37    36    2
    66    39    38    1
    67    38    40    1
    68    82    80   am
    69    80    79    1
    70    76    75    1
    71    57    55   ar
    72    16    15    2
    73    21    20    1
    74    79    78    1
    75    75    77    1
    76    75    74    1
    77    15    14    1
    78    74    71    1
    79    55    56   ar
    80    55    54    1
    81    18    19    1
    82    18    17    1
    83    20    19    1
    84    17    14    1
    85    47    46    1
    86    47    48    1
    87    54    53    1
    88    14    13    1
    89    73    72    2
    90    71    72    1
    91    71    70    1
    92    13    11   am
    93    46    45    1
    94    70    60   am
    95    53    50    1
    96    28    26    1
    97    45    42    1
    98    11    10    1
    99    11    12    2
   100    52    51    2
   101     4     3    2
   102    10     9    1
   103    49    50    1
   104    49    43   am
   105    60    61    2
   106    60    59    1
   107    51    50    1
   108    51    58   am
   109    42    43    1
   110    42    41    1
   111    26    27    1
   112    26    23    1
   113     3     9   am
   114     3     2    1
   115    43    44    2
   116    58    59    1
   117    59    62    1
   118    33    30    1
   119     5     2    1
   120     5     6    1
   121    22    23    1
   122    23    24    1
   123     2     1    1
   124    64    66   ar
   125    64    63   ar
   126    66    68   ar
   127     7     6    1
   128    62    63    1
   129     6     8    1
   130    63    65   ar
   131    32    31    2
   132    25    24    2
   133    30    31    1
   134    30    29    1
   135    68    69    1
   136    68    67   ar
   137    65    67   ar
