@<TRIPOS>MOLECULE
tmp/5ttvA00.pdb
 146 137 0 0 0
SMALL
GASTEIGER

@<TRIPOS>ATOM
      1  N         -2.4080   18.9790    1.0810 N.3    15  LEU15      -0.1231
      2  CA        -1.6040   18.9810   -0.1400 C.3    15  LEU15       0.1696
      3  C         -2.4270   19.5140   -1.3080 C.2    15  LEU15       0.2632
      4  O         -1.8950   20.2380   -2.1530 O.2    15  LEU15      -0.2714
      5  CB        -0.9850   17.6120   -0.4470 C.3    15  LEU15       0.0284
      6  CG         0.2650   17.3010    0.3230 C.3    15  LEU15       0.0019
      7  CD1        0.7490   15.8660    0.0320 C.3    15  LEU15       0.0001
      8  CD2        1.3400   18.2950    0.0230 C.3    15  LEU15       0.0001
      9  N         -3.7200   19.2080   -1.2990 N.am   16  GLY16      -0.1718
     10  CA        -4.6340   19.6850   -2.3200 C.2    16  GLY16       0.1480
     11  C         -6.0690   19.2300   -2.1950 C.2    16  GLY16       0.2820
     12  O         -6.4360   18.4400   -1.3140 O.2    16  GLY16      -0.2669
     13  N         -6.8820   19.7700   -3.1040 N.am   17  LYS17      -0.1943
     14  CA        -8.3050   19.5180   -3.2300 C.3    17  LYS17       0.1599
     15  C         -8.6930   19.4590   -4.7070 C.2    17  LYS17       0.2287
     16  O         -8.4310   20.3950   -5.4660 O.2    17  LYS17      -0.2864
     17  CB        -9.1310   20.5780   -2.4690 C.3    17  LYS17       0.0298
     18  CG        -8.7190   22.0300   -2.7340 C.3    17  LYS17       0.0038
     19  CD        -9.5920   23.0450   -2.0120 C.3    17  LYS17       0.0206
     20  CE       -10.1670   24.0740   -2.9630 C.3    17  LYS17       0.1093
     21  NZ       -11.1510   23.4800   -3.9190 N.3    17  LYS17      -0.1314
     22  N         -6.1930   15.6920   -0.4240 N.3    23  VAL23      -0.1245
     23  CA        -4.9850   14.9130   -0.1730 C.3    23  VAL23       0.1561
     24  C         -4.2280   15.5610    0.9860 C.2    23  VAL23       0.2260
     25  O         -3.9790   16.7500    0.9400 O.2    23  VAL23      -0.2867
     26  CB        -4.0990   14.6830   -1.4440 C.3    23  VAL23       0.0252
     27  CG1       -2.9130   13.7780   -1.1370 C.3    23  VAL23       0.0019
     28  CG2       -4.9180   14.1070   -2.5930 C.3    23  VAL23       0.0019
     29  N          1.4040   10.5930    1.6240 N.3    40  ALA40      -0.1245
     30  CA         0.3070   11.4130    1.1020 C.3    40  ALA40       0.1562
     31  C         -0.9830   10.6350    1.2260 C.2    40  ALA40       0.2260
     32  O         -1.1080    9.5540    0.6580 O.2    40  ALA40      -0.2867
     33  CB         0.5720   11.8200   -0.3440 C.3    40  ALA40       0.0290
     34  N          2.4070    7.2250   -9.5430 N.3    68  VAL68      -0.1245
     35  CA         2.5730    7.4160   -8.0920 C.3    68  VAL68       0.1561
     36  C          2.4330    6.0860   -7.3730 C.2    68  VAL68       0.2260
     37  O          1.4880    5.3350   -7.6410 O.2    68  VAL68      -0.2867
     38  CB         1.6950    8.5520   -7.4400 C.3    68  VAL68       0.0252
     39  CG1        0.2090    8.1890   -7.3940 C.3    68  VAL68       0.0019
     40  CG2        2.1930    8.9150   -6.0310 C.3    68  VAL68       0.0019
     41  N         -0.4620    7.0520   -0.2520 N.3    86  MET86      -0.1230
     42  CA         0.4650    7.1050   -1.3600 C.3    86  MET86       0.1702
     43  C          1.8270    7.6420   -0.8850 C.2    86  MET86       0.2592
     44  O          1.9390    8.2420    0.2030 O.2    86  MET86      -0.2718
     45  CB        -0.0840    8.0400   -2.4660 C.3    86  MET86       0.0401
     46  CG        -1.3110    7.5120   -3.2040 C.3    86  MET86       0.0596
     47  SD        -2.1820    8.8010   -4.1800 S.3    86  MET86      -0.1393
     48  CE        -2.8530    9.7760   -2.9020 C.3    86  MET86       0.0692
     49  N          2.8410    7.4760   -1.7290 N.am   87  GLU87      -0.1966
     50  CA         4.1800    8.0360   -1.4910 C.3    87  GLU87       0.1733
     51  C          4.1100    9.5330   -1.5390 C.2    87  GLU87       0.2616
     52  O          3.2820   10.0860   -2.2640 O.2    87  GLU87      -0.2715
     53  CB         5.1960    7.5380   -2.5270 C.3    87  GLU87       0.0429
     54  CG         4.8620    7.7500   -4.0100 C.3    87  GLU87       0.1163
     55  CD         6.0310    7.5580   -4.9660 C.2    87  GLU87       0.3649
     56  OE1        7.1860    7.7200   -4.5160 O.co2  87  GLU87      -0.2457
     57  OE2        5.8020    7.2640   -6.1630 O.co2  87  GLU87      -0.2457
     58  N          4.9780   10.2070   -0.7960 N.am   88  TYR88      -0.1960
     59  CA         4.9820   11.6670   -0.8270 C.3    88  TYR88       0.1771
     60  C          6.1700   12.1910   -1.6430 C.2    88  TYR88       0.2619
     61  O          7.2860   11.6810   -1.5120 O.2    88  TYR88      -0.2715
     62  CB         4.8940   12.2390    0.6000 C.3    88  TYR88       0.0574
     63  CG         5.1690   13.7270    0.6860 C.ar   88  TYR88      -0.0198
     64  CD1        4.2810   14.6540    0.1400 C.ar   88  TYR88      -0.0009
     65  CD2        6.3380   14.2040    1.2620 C.ar   88  TYR88      -0.0009
     66  CE1        4.5450   16.0240    0.1850 C.ar   88  TYR88       0.0417
     67  CE2        6.6170   15.5720    1.3130 C.ar   88  TYR88       0.0417
     68  CZ         5.7080   16.4790    0.7900 C.ar   88  TYR88       0.1957
     69  OH         5.9740   17.8220    0.8610 O.3    88  TYR88      -0.2866
     70  N          5.9000   13.1060   -2.5830 N.am   89  LEU89      -0.1977
     71  CA         6.9190   13.7220   -3.4350 C.3    89  LEU89       0.1596
     72  C          6.9990   15.1970   -3.0240 C.2    89  LEU89       0.2287
     73  O          6.0930   15.9690   -3.3820 O.2    89  LEU89      -0.2864
     74  CB         6.5490   13.5570   -4.9250 C.3    89  LEU89       0.0297
     75  CG         6.6000   12.1240   -5.4980 C.3    89  LEU89       0.0022
     76  CD1        5.3980   11.3230   -5.1040 C.3    89  LEU89       0.0001
     77  CD2        6.5620   12.1480   -6.9550 C.3    89  LEU89       0.0001
     78  N          6.3080   18.0710   -5.3690 N.3    92  GLY92      -0.1210
     79  CA         4.9150   18.3330   -5.7200 C.3    92  GLY92       0.1956
     80  C          4.5340   18.2490   -7.1900 C.2    92  GLY92       0.2612
     81  O          5.1440   17.5120   -7.9630 O.2    92  GLY92      -0.2717
     82  N          3.4900   18.9880   -7.5630 N.am   93  CYS93      -0.1970
     83  CA         2.8870   18.9810   -8.8960 C.3    93  CYS93       0.1712
     84  C          3.7610   19.6570   -9.9280 C.2    93  CYS93       0.2296
     85  O          4.4260   20.6450   -9.6250 O.2    93  CYS93      -0.2864
     86  CB         1.4650   19.5380   -8.8730 C.3    93  CYS93       0.0983
     87  SG         1.3500   21.3420   -8.9530 S.3    93  CYS93      -0.0798
     88  N          3.2040   21.3800  -12.7110 N.3    95  ARG95      -0.1231
     89  CA         2.7530   22.7220  -13.0810 C.3    95  ARG95       0.1694
     90  C          3.5010   23.7930  -12.2600 C.2    95  ARG95       0.2592
     91  O          4.0860   24.7040  -12.8450 O.2    95  ARG95      -0.2718
     92  CB         1.2270   22.8440  -12.8700 C.3    95  ARG95       0.0321
     93  CG         0.6840   24.2550  -13.1270 C.3    95  ARG95       0.0489
     94  CD        -0.7760   24.4220  -12.7400 C.3    95  ARG95       0.2205
     95  NE        -0.9460   24.5300  -11.2930 N.pl3  95  ARG95      -0.0865
     96  CZ        -2.1190   24.4550  -10.6750 C.cat  95  ARG95       0.5346
     97  NH1       -3.2360   24.2720  -11.3720 N.pl3  95  ARG95       0.1354
     98  NH2       -2.1870   24.5590   -9.3580 N.pl3  95  ARG95       0.1354
     99  N          3.5060   23.6700  -10.9190 N.am   96  ASP96      -0.1974
    100  CA         4.2040   24.6760  -10.1050 C.3    96  ASP96       0.1709
    101  C          5.7280   24.4560  -10.0970 C.2    96  ASP96       0.2293
    102  O          6.4650   25.4310   -9.9580 O.2    96  ASP96      -0.2864
    103  CB         3.6160   24.7970   -8.6970 C.3    96  ASP96       0.1436
    104  CG         2.1200   25.0620   -8.6110 C.2    96  ASP96       0.3671
    105  OD1        1.5100   25.4090   -9.6480 O.co2  96  ASP96      -0.2456
    106  OD2        1.5590   24.9190   -7.5110 O.co2  96  ASP96      -0.2456
    107  N         -0.8630   19.6510  -13.7240 N.3   137  ARG137     -0.1231
    108  CA        -1.2210   19.7970  -12.3180 C.3   137  ARG137      0.1694
    109  C         -1.3970   18.4130  -11.6700 C.2   137  ARG137      0.2592
    110  O         -1.3310   18.3010  -10.4460 O.2   137  ARG137     -0.2718
    111  CB        -2.4940   20.6660  -12.1660 C.3   137  ARG137      0.0321
    112  CG        -3.8250   19.9130  -12.2960 C.3   137  ARG137      0.0489
    113  CD        -5.0150   20.8120  -12.6070 C.3   137  ARG137      0.2205
    114  NE        -5.7240   20.3410  -13.8010 N.pl3 137  ARG137     -0.0865
    115  CZ        -6.7530   19.4950  -13.7960 C.cat 137  ARG137      0.5346
    116  NH1       -7.2600   19.0610  -12.6530 N.pl3 137  ARG137      0.1354
    117  NH2       -7.2900   19.0920  -14.9340 N.pl3 137  ARG137      0.1354
    118  N         -1.6070   17.3700  -12.5020 N.am  138  ASN138     -0.1974
    119  CA        -1.8250   16.0170  -12.0240 C.3   138  ASN138      0.1688
    120  C         -0.6020   15.1290  -12.2930 C.2   138  ASN138      0.2292
    121  O         -0.6840   13.9130  -12.1830 O.2   138  ASN138     -0.2864
    122  CB        -3.1310   15.4420  -12.5910 C.3   138  ASN138      0.1181
    123  CG        -4.3830   16.0880  -12.0260 C.2   138  ASN138      0.2629
    124  OD1       -4.4390   16.5640  -10.8870 O.2   138  ASN138     -0.2716
    125  ND2       -5.4200   16.1290  -12.8110 N.am  138  ASN138     -0.0877
    126  N          3.3820   14.5170  -10.9720 N.3   140  LEU140     -0.1245
    127  CA         4.2010   14.8230   -9.7940 C.3   140  LEU140      0.1561
    128  C          5.6670   14.7490  -10.1420 C.2   140  LEU140      0.2260
    129  O          6.0330   14.1230  -11.1390 O.2   140  LEU140     -0.2867
    130  CB         3.8810   13.9220   -8.5750 C.3   140  LEU140      0.0270
    131  CG         2.4970   14.0300   -7.9000 C.3   140  LEU140      0.0019
    132  CD1        2.2820   12.8950   -6.9810 C.3   140  LEU140      0.0001
    133  CD2        2.3210   15.3290   -7.0960 C.3   140  LEU140      0.0001
    134  N         -0.2700   11.0430  -11.4690 N.3   150  ALA150     -0.1231
    135  CA        -0.9970   11.0260  -10.2070 C.3   150  ALA150      0.1694
    136  C         -2.4660   11.3400  -10.3940 C.2   150  ALA150      0.2592
    137  O         -2.9250   11.4700  -11.5250 O.2   150  ALA150     -0.2718
    138  CB        -0.3830   12.0430   -9.2460 C.3   150  ALA150      0.0304
    139  N         -3.2000   11.4850   -9.2720 N.am  151  ASP151     -0.1974
    140  CA        -4.6330   11.8120   -9.2120 C.3   151  ASP151      0.1709
    141  C         -5.4870   10.9640  -10.1490 C.2   151  ASP151      0.2293
    142  O         -5.8180   11.3960  -11.2540 O.2   151  ASP151     -0.2864
    143  CB        -4.8690   13.3150   -9.4300 C.3   151  ASP151      0.1436
    144  CG        -6.2240   13.8430   -9.0030 C.2   151  ASP151      0.3671
    145  OD1       -7.0120   13.0640   -8.4170 O.co2 151  ASP151     -0.2456
    146  OD2       -6.4700   15.0540   -9.1900 O.co2 151  ASP151     -0.2456
@<TRIPOS>BOND
     1   117   115    1
     2   114   115    2
     3   114   113    1
     4   115   116    1
     5   107   108    1
     6    93    92    1
     7    93    94    1
     8    89    92    1
     9    89    88    1
    10    89    90    1
    11    91    90    2
    12   125   123   am
    13    94    95    1
    14   113   112    1
    15   122   123    1
    16   122   119    1
    17   118   119    1
    18   118   109   am
    19   108   111    1
    20   108   109    1
    21   112   111    1
    22   120   121    2
    23   120   119    1
    24    90    99   am
    25   123   124    2
    26   109   110    2
    27   137   136    2
    28   134   135    1
    29    97    96    1
    30    95    96    2
    31   142   141    2
    32   129   128    2
    33   126   127    1
    34    99   100    1
    35    96    98    1
    36   136   135    1
    37   136   139   am
    38   135   138    1
    39   141   140    1
    40   128   127    1
    41   100   101    1
    42   100   103    1
    43   101   102    2
    44    84    85    2
    45    84    83    1
    46   127   130    1
    47   105   104   ar
    48    34    35    1
    49   143   140    1
    50   143   144    1
    51   139   140    1
    52   146   144   ar
    53   144   145   ar
    54    87    86    1
    55    83    86    1
    56    83    82    1
    57   103   104    1
    58   104   106   ar
    59   130   131    1
    60    35    38    1
    61    35    36    1
    62    81    80    2
    63   131   133    1
    64   131   132    1
    65    37    36    2
    66    82    80   am
    67    38    39    1
    68    38    40    1
    69    80    79    1
    70    77    75    1
    71    57    55   ar
    72    79    78    1
    73    75    76    1
    74    75    74    1
    75    16    15    2
    76    55    56   ar
    77    55    54    1
    78    74    71    1
    79    15    14    1
    80    47    46    1
    81    47    48    1
    82    54    53    1
    83    21    20    1
    84    71    72    1
    85    71    70    1
    86    73    72    2
    87    14    13    1
    88    14    17    1
    89    46    45    1
    90    13    11   am
    91    20    19    1
    92    18    17    1
    93    18    19    1
    94    28    26    1
    95    70    60   am
    96    53    50    1
    97    45    42    1
    98    10    11    1
    99    10     9    2
   100    52    51    2
   101    11    12    2
   102     4     3    2
   103    49    50    1
   104    49    43   am
   105    60    61    2
   106    60    59    1
   107    51    50    1
   108    51    58   am
   109    26    27    1
   110    26    23    1
   111    42    43    1
   112    42    41    1
   113     3     9    1
   114     3     2    1
   115    43    44    2
   116    59    58    1
   117    59    62    1
   118     5     2    1
   119     5     6    1
   120    22    23    1
   121    33    30    1
   122    23    24    1
   123     2     1    1
   124     8     6    1
   125     7     6    1
   126    64    66   ar
   127    64    63   ar
   128    66    68   ar
   129    62    63    1
   130    32    31    2
   131    63    65   ar
   132    68    69    1
   133    68    67   ar
   134    25    24    2
   135    30    31    1
   136    30    29    1
   137    65    67   ar
