@<TRIPOS>MOLECULE
tmp/5ttwA00.pdb
 111 108 0 0 0
SMALL
GASTEIGER

@<TRIPOS>ATOM
      1  N         33.9820   -2.5050   10.7310 N.3    19  PHE19      -0.1241
      2  CA        32.9640   -2.7700   11.7490 C.3    19  PHE19       0.1605
      3  C         32.8540   -1.7130   12.8300 C.2    19  PHE19       0.2264
      4  O         31.8570   -1.6600   13.5350 O.2    19  PHE19      -0.2867
      5  CB        33.2140   -4.1020   12.3880 C.3    19  PHE19       0.0534
      6  CG        32.8940   -5.3110   11.4910 C.ar   19  PHE19      -0.0203
      7  CD1       31.6000   -5.5010   10.9870 C.ar   19  PHE19      -0.0042
      8  CD2       33.8700   -6.2840   11.2200 C.ar   19  PHE19      -0.0042
      9  CE1       31.2790   -6.5990   10.1780 C.ar   19  PHE19      -0.0003
     10  CE2       33.5300   -7.3910   10.4180 C.ar   19  PHE19      -0.0003
     11  CZ        32.2370   -7.5210    9.8820 C.ar   19  PHE19      -0.0000
     12  N         40.3490  -10.6300   13.0420 N.3    68  ASN68      -0.1240
     13  CA        39.4450   -9.6680   12.4320 C.3    68  ASN68       0.1653
     14  C         38.9370   -8.8070   13.5760 C.2    68  ASN68       0.2266
     15  O         38.2000   -9.2620   14.4430 O.2    68  ASN68      -0.2867
     16  CB        38.3070  -10.3980   11.7470 C.3    68  ASN68       0.1155
     17  CG        37.4020   -9.5070   10.8960 C.2    68  ASN68       0.2627
     18  OD1       37.6170   -8.2880   10.6830 O.2    68  ASN68      -0.2716
     19  ND2       36.3210  -10.0940   10.4520 N.am   68  ASN68      -0.0877
     20  N         36.7140   -6.1220   15.4360 N.3    70  TYR70      -0.1241
     21  CA        35.3080   -5.7040   15.3830 C.3    70  TYR70       0.1605
     22  C         34.9800   -4.3910   16.0740 C.2    70  TYR70       0.2264
     23  O         34.0300   -3.7100   15.7090 O.2    70  TYR70      -0.2867
     24  CB        34.4630   -6.7530   16.1240 C.3    70  TYR70       0.0534
     25  CG        34.4360   -8.1450   15.5760 C.ar   70  TYR70      -0.0201
     26  CD1       34.9130   -8.4390   14.2930 C.ar   70  TYR70      -0.0009
     27  CD2       33.8220   -9.1750   16.3050 C.ar   70  TYR70      -0.0009
     28  CE1       34.7950   -9.6910   13.7870 C.ar   70  TYR70       0.0417
     29  CE2       33.8010  -10.4660   15.8240 C.ar   70  TYR70       0.0417
     30  CZ        34.2710  -10.6950   14.5410 C.ar   70  TYR70       0.1957
     31  OH        34.2000  -11.9710   13.9590 O.3    70  TYR70      -0.2866
     32  N         32.7470   -8.8560   21.0730 N.3   116  ASN116     -0.1240
     33  CA        31.8220   -8.0140   20.2750 C.3   116  ASN116      0.1653
     34  C         31.7720   -6.5420   20.5780 C.2   116  ASN116      0.2266
     35  O         31.3470   -5.7410   19.7240 O.2   116  ASN116     -0.2867
     36  CB        30.3630   -8.5640   20.3110 C.3   116  ASN116      0.1155
     37  CG        30.2140   -9.9360   19.6010 C.2   116  ASN116      0.2627
     38  OD1       30.7720  -10.1640   18.5100 O.2   116  ASN116     -0.2716
     39  ND2       29.5710  -10.8770   20.2800 N.am  116  ASN116     -0.0877
     40  N         25.4170  -15.1610   22.7440 N.3   160  GLU160     -0.1245
     41  CA        26.4590  -14.1550   22.6380 C.3   160  GLU160      0.1567
     42  C         26.0010  -12.8380   23.2250 C.2   160  GLU160      0.2260
     43  O         24.8740  -12.3730   22.9760 O.2   160  GLU160     -0.2867
     44  CB        26.7730  -13.8400   21.1800 C.3   160  GLU160      0.0388
     45  CG        27.2210  -15.0610   20.3940 C.3   160  GLU160      0.1160
     46  CD        27.9470  -14.6600   19.1600 C.2   160  GLU160      0.3649
     47  OE1       28.5510  -13.5410   19.0840 O.co2 160  GLU160     -0.2457
     48  OE2       27.9270  -15.4840   18.2210 O.co2 160  GLU160     -0.2457
     49  N         17.8610   -4.3740    9.1330 N.3   284  ASP284     -0.1225
     50  CA        17.4610   -5.6200    9.7070 C.3   284  ASP284      0.1805
     51  C         18.5020   -6.7480    9.7600 C.2   284  ASP284      0.2598
     52  O         18.1930   -7.8750   10.1690 O.2   284  ASP284     -0.2718
     53  CB        16.1330   -6.0570    9.0920 C.3   284  ASP284      0.1424
     54  CG        16.2490   -6.2340    7.6280 C.2   284  ASP284      0.3668
     55  OD1       17.0360   -7.0970    7.3230 O.co2 284  ASP284     -0.2456
     56  OD2       15.6540   -5.4560    6.8410 O.co2 284  ASP284     -0.2456
     57  N         19.7300   -6.4380    9.3770 N.am  285  ILE285     -0.1966
     58  CA        20.8250   -7.3040    9.7070 C.3   285  ILE285      0.1727
     59  C         21.3580   -6.8930   11.0780 C.2   285  ILE285      0.2616
     60  O         21.1670   -5.7430   11.4780 O.2   285  ILE285     -0.2715
     61  CB        21.9570   -7.1800    8.6570 C.3   285  ILE285      0.0290
     62  CG1       22.4040   -5.7480    8.5100 C.3   285  ILE285      0.0022
     63  CG2       21.5030   -7.7940    7.3360 C.3   285  ILE285      0.0023
     64  CD1       23.6320   -5.5980    7.6100 C.3   285  ILE285      0.0001
     65  N         22.0050   -7.7870   11.7840 N.am  286  TRP286     -0.1960
     66  CA        22.5230   -7.4420   13.1160 C.3   286  TRP286      0.1771
     67  C         23.9790   -6.9920   13.0580 C.2   286  TRP286      0.2619
     68  O         24.7000   -7.1340   12.0450 O.2   286  TRP286     -0.2715
     69  CB        22.3090   -8.5880   14.1670 C.3   286  TRP286      0.0590
     70  CG        22.9990   -9.9150   13.8920 C.ar  286  TRP286      0.0006
     71  CD1       22.4830  -10.9810   13.1790 C.ar  286  TRP286      0.0946
     72  CD2       24.2590  -10.3300   14.3460 C.ar  286  TRP286      0.0152
     73  NE1       23.3710  -12.0230   13.1790 N.ar  286  TRP286     -0.2442
     74  CE2       24.4680  -11.6530   13.8900 C.ar  286  TRP286      0.0810
     75  CE3       25.2570   -9.7270   15.1400 C.ar  286  TRP286      0.0012
     76  CZ2       25.6250  -12.3480   14.1720 C.ar  286  TRP286      0.0191
     77  CZ3       26.3610  -10.4210   15.4300 C.ar  286  TRP286      0.0001
     78  CH2       26.5600  -11.7310   14.9410 C.ar  286  TRP286      0.0015
     79  N         24.4010   -6.3800   14.1650 N.am  287  TYR287     -0.1974
     80  CA        25.7380   -5.7470   14.2990 C.3   287  TYR287      0.1639
     81  C         25.7350   -4.4460   13.5090 C.2   287  TYR287      0.2290
     82  O         26.5750   -4.1870   12.6430 O.2   287  TYR287     -0.2864
     83  CB        26.9380   -6.6140   13.9050 C.3   287  TYR287      0.0560
     84  CG        28.1930   -6.3160   14.7380 C.ar  287  TYR287     -0.0198
     85  CD1       28.3820   -6.9100   15.9780 C.ar  287  TYR287     -0.0009
     86  CD2       29.1960   -5.4620   14.2920 C.ar  287  TYR287     -0.0009
     87  CE1       29.5010   -6.6300   16.7340 C.ar  287  TYR287      0.0417
     88  CE2       30.3180   -5.1600   15.0580 C.ar  287  TYR287      0.0417
     89  CZ        30.4700   -5.7470   16.2810 C.ar  287  TYR287      0.1957
     90  OH        31.5430   -5.4560   17.0810 O.3   287  TYR287     -0.2866
     91  N         21.3680   -0.4300    6.3990 N.3   304  GLN304     -0.1231
     92  CA        22.0890   -1.3170    5.5250 C.3   304  GLN304      0.1698
     93  C         22.1420   -0.8540    4.0480 C.2   304  GLN304      0.2592
     94  O         22.8310   -1.5310    3.2630 O.2   304  GLN304     -0.2718
     95  CB        21.5160   -2.7420    5.6020 C.3   304  GLN304      0.0381
     96  CG        20.1100   -2.9110    4.9530 C.3   304  GLN304      0.0905
     97  CD        19.1740   -3.9300    5.6440 C.2   304  GLN304      0.2608
     98  OE1       19.3170   -4.2860    6.8100 O.2   304  GLN304     -0.2717
     99  NE2       18.1580   -4.2910    4.9450 N.am  304  GLN304     -0.0878
    100  N         21.4430    0.2260    3.6940 N.am  305  VAL305     -0.1980
    101  CA        21.5630    0.8130    2.3390 C.3   305  VAL305      0.1595
    102  C         22.2550    2.1330    2.2500 C.2   305  VAL305      0.2287
    103  O         22.2020    2.7880    1.2330 O.2   305  VAL305     -0.2864
    104  CB        20.1680    0.8670    1.6050 C.3   305  VAL305      0.0276
    105  CG1       19.6410   -0.5530    1.4860 C.3   305  VAL305      0.0022
    106  CG2       19.1540    1.8620    2.2270 C.3   305  VAL305      0.0022
    107  N         26.2060   -0.9250    3.4740 N.3   334  ALA334     -0.1245
    108  CA        25.7420   -0.9460    4.8630 C.3   334  ALA334      0.1562
    109  C         26.6910   -0.1410    5.8130 C.2   334  ALA334      0.2260
    110  O         27.8870   -0.3430    5.8150 O.2   334  ALA334     -0.2867
    111  CB        25.6320   -2.3680    5.3580 C.3   334  ALA334      0.0290
@<TRIPOS>BOND
     1   103   102    2
     2   105   104    1
     3   104   106    1
     4   104   101    1
     5   102   101    1
     6   101   100    1
     7    94    93    2
     8   107   108    1
     9   100    93   am
    10    93    92    1
    11   108   111    1
    12   108   109    1
    13    99    97   am
    14    96    95    1
    15    96    97    1
    16    92    95    1
    17    92    91    1
    18    97    98    2
    19   109   110    2
    20    56    54   ar
    21    55    54   ar
    22    63    61    1
    23    64    62    1
    24    54    53    1
    25    62    61    1
    26    61    58    1
    27    53    50    1
    28    49    50    1
    29    57    58    1
    30    57    51   am
    31    50    51    1
    32    58    59    1
    33    51    52    2
    34    11     9   ar
    35    11    10   ar
    36     9     7   ar
    37    10     8   ar
    38    19    17   am
    39    18    17    2
    40     1     2    1
    41    17    16    1
    42     7     6   ar
    43    59    60    2
    44    59    65   am
    45     8     6   ar
    46     6     5    1
    47    16    13    1
    48     2     5    1
    49     2     3    1
    50    65    66    1
    51    68    67    2
    52    13    12    1
    53    13    14    1
    54    82    81    2
    55     3     4    2
    56    67    66    1
    57    67    79   am
    58    66    69    1
    59    73    71   ar
    60    73    74   ar
    61    71    70   ar
    62    81    80    1
    63    14    15    2
    64    28    26   ar
    65    28    30   ar
    66    74    76   ar
    67    74    72   ar
    68    70    69    1
    69    70    72   ar
    70    83    80    1
    71    83    84    1
    72    31    30    1
    73    79    80    1
    74    76    78   ar
    75    86    84   ar
    76    86    88   ar
    77    26    25   ar
    78    72    75   ar
    79    30    29   ar
    80    84    85   ar
    81    78    77   ar
    82    88    89   ar
    83    75    77   ar
    84    21    20    1
    85    21    22    1
    86    21    24    1
    87    25    24    1
    88    25    27   ar
    89    23    22    2
    90    29    27   ar
    91    85    87   ar
    92    89    87   ar
    93    89    90    1
    94    48    46   ar
    95    38    37    2
    96    47    46   ar
    97    46    45    1
    98    37    39   am
    99    37    36    1
   100    35    34    2
   101    33    36    1
   102    33    34    1
   103    33    32    1
   104    45    44    1
   105    44    41    1
   106    41    40    1
   107    41    42    1
   108    43    42    2
