@<TRIPOS>MOLECULE
tmp/5ttwC00.pdb
 129 124 0 0 0
SMALL
GASTEIGER

@<TRIPOS>ATOM
      1  N         -9.6010  -21.0770    2.0640 N.3    19  PRO19      -0.2116
      2  CA        -9.2290  -20.9080    3.4550 C.3    19  PRO19       0.1372
      3  C        -10.4280  -20.7340    4.3540 C.2    19  PRO19       0.2244
      4  O        -11.4200  -20.0740    3.9470 O.2    19  PRO19      -0.2868
      5  CB        -8.3560  -19.6530    3.4460 C.3    19  PRO19       0.0268
      6  CG        -7.7370  -19.6650    2.0640 C.3    19  PRO19       0.0207
      7  CD        -8.7940  -20.1960    1.1660 C.3    19  PRO19       0.0892
      8  N        -11.3010  -18.8470    7.4430 N.3    21  PHE21      -0.1241
      9  CA       -10.6810  -17.7560    8.1420 C.3    21  PHE21       0.1605
     10  C        -11.1620  -17.6210    9.5840 C.2    21  PHE21       0.2264
     11  O        -10.6340  -16.8260   10.3580 O.2    21  PHE21      -0.2867
     12  CB       -10.9580  -16.4570    7.4420 C.3    21  PHE21       0.0534
     13  CG       -10.1470  -16.2680    6.1330 C.ar   21  PHE21      -0.0203
     14  CD1       -8.7720  -16.2760    6.1630 C.ar   21  PHE21      -0.0042
     15  CD2      -10.7980  -16.0810    4.8910 C.ar   21  PHE21      -0.0042
     16  CE1       -8.0420  -16.1070    4.9710 C.ar   21  PHE21      -0.0003
     17  CE2      -10.0610  -15.9090    3.7120 C.ar   21  PHE21      -0.0003
     18  CZ        -8.6700  -15.9000    3.7740 C.ar   21  PHE21      -0.0000
     19  N        -16.4810  -13.2380    0.2580 N.3    70  ASN70      -0.1240
     20  CA       -15.5550  -14.0790    1.0520 C.3    70  ASN70       0.1653
     21  C        -15.7390  -13.7470    2.5140 C.2    70  ASN70       0.2266
     22  O        -15.2810  -12.7180    2.9340 O.2    70  ASN70      -0.2867
     23  CB       -14.1330  -13.8620    0.6380 C.3    70  ASN70       0.1155
     24  CG       -13.1430  -14.9450    1.1520 C.2    70  ASN70       0.2627
     25  OD1      -13.4420  -15.9930    1.8650 O.2    70  ASN70      -0.2716
     26  ND2      -11.9290  -14.6850    0.8070 N.am   70  ASN70      -0.0877
     27  N        -15.0080  -13.7040    6.3890 N.3    72  TYR72      -0.1241
     28  CA       -13.7900  -13.6980    7.1660 C.3    72  TYR72       0.1605
     29  C        -13.9990  -13.9750    8.6530 C.2    72  TYR72       0.2264
     30  O        -13.0900  -14.4870    9.3200 O.2    72  TYR72      -0.2867
     31  CB       -13.1480  -12.2980    7.0740 C.3    72  TYR72       0.0534
     32  CG       -12.6270  -11.7770    5.7420 C.ar   72  TYR72      -0.0201
     33  CD1      -12.5290  -12.5770    4.6420 C.ar   72  TYR72      -0.0009
     34  CD2      -12.2960  -10.4510    5.6240 C.ar   72  TYR72      -0.0009
     35  CE1      -12.0060  -12.0990    3.4660 C.ar   72  TYR72       0.0417
     36  CE2      -11.7790   -9.9190    4.4190 C.ar   72  TYR72       0.0417
     37  CZ       -11.6430  -10.7640    3.3570 C.ar   72  TYR72       0.1957
     38  OH       -11.2050  -10.2800    2.1420 O.3    72  TYR72      -0.2866
     39  N        -13.1170   -6.9750    8.9120 N.3   118  ASN118     -0.1240
     40  CA       -12.1010   -7.8780    9.3870 C.3   118  ASN118      0.1653
     41  C        -12.4440   -8.5880   10.6840 C.2   118  ASN118      0.2266
     42  O        -11.8580   -9.6560   10.9870 O.2   118  ASN118     -0.2867
     43  CB       -10.7540   -7.1800    9.4590 C.3   118  ASN118      0.1155
     44  CG       -10.2270   -6.7870    8.1000 C.2   118  ASN118      0.2627
     45  OD1      -10.1520   -7.6020    7.1910 O.2   118  ASN118     -0.2716
     46  ND2       -9.8360   -5.5000    7.9580 N.am  118  ASN118     -0.0877
     47  N         -6.1590   -0.0540    7.6650 N.3   162  GLU162     -0.1245
     48  CA        -7.2450   -0.9990    7.9680 C.3   162  GLU162      0.1567
     49  C         -7.2360   -1.3330    9.4570 C.2   162  GLU162      0.2260
     50  O         -6.1650   -1.5000   10.0610 O.2   162  GLU162     -0.2867
     51  CB        -7.0770   -2.3130    7.2430 C.3   162  GLU162      0.0388
     52  CG        -6.9990   -2.2810    5.7290 C.3   162  GLU162      0.1160
     53  CD        -7.2510   -3.6820    5.1340 C.2   162  GLU162      0.3649
     54  OE1       -7.9900   -4.5390    5.6950 O.co2 162  GLU162     -0.2457
     55  OE2       -6.6870   -3.9670    4.0650 O.co2 162  GLU162     -0.2457
     56  N          2.9370  -14.3090    8.7500 N.3   286  ILE286     -0.1231
     57  CA         1.8400  -13.7850    7.9020 C.3   286  ILE286      0.1692
     58  C          0.7680  -13.1010    8.7670 C.2   286  ILE286      0.2592
     59  O          0.5690  -13.5010    9.9290 O.2   286  ILE286     -0.2718
     60  CB         1.2740  -14.8640    6.9920 C.3   286  ILE286      0.0266
     61  CG1        0.6450  -16.0440    7.7890 C.3   286  ILE286      0.0019
     62  CG2        2.3610  -15.3350    6.0310 C.3   286  ILE286      0.0020
     63  CD1       -0.1840  -17.0010    6.9990 C.3   286  ILE286      0.0001
     64  N          0.0800  -12.1030    8.2170 N.am  287  TRP287     -0.1962
     65  CA        -1.0350  -11.4420    8.9360 C.3   287  TRP287      0.1771
     66  C         -2.3840  -12.1990    8.7970 C.2   287  TRP287      0.2619
     67  O         -2.6100  -13.0280    7.9000 O.2   287  TRP287     -0.2715
     68  CB        -1.1850   -9.9460    8.6180 C.3   287  TRP287      0.0590
     69  CG        -1.5800   -9.5410    7.2800 C.ar  287  TRP287      0.0006
     70  CD1       -0.7400   -9.3770    6.1990 C.ar  287  TRP287      0.0946
     71  CD2       -2.8600   -9.0790    6.8460 C.ar  287  TRP287      0.0152
     72  NE1       -1.4660   -8.9630    5.1230 N.ar  287  TRP287     -0.2442
     73  CE2       -2.7340   -8.6860    5.5030 C.ar  287  TRP287      0.0810
     74  CE3       -4.1000   -8.9670    7.4470 C.ar  287  TRP287      0.0012
     75  CZ2       -3.8240   -8.3150    4.7330 C.ar  287  TRP287      0.0191
     76  CZ3       -5.1640   -8.5600    6.6960 C.ar  287  TRP287      0.0001
     77  CH2       -5.0230   -8.2310    5.3490 C.ar  287  TRP287      0.0015
     78  N         -3.2730  -11.8380    9.7460 N.am  288  TYR288     -0.1974
     79  CA        -4.6270  -12.3620    9.8580 C.3   288  TYR288      0.1639
     80  C         -4.5410  -13.7970   10.4410 C.2   288  TYR288      0.2290
     81  O         -4.9720  -14.7680    9.8390 O.2   288  TYR288     -0.2864
     82  CB        -5.4070  -12.3390    8.5360 C.3   288  TYR288      0.0560
     83  CG        -6.9030  -12.1880    8.7840 C.ar  288  TYR288     -0.0198
     84  CD1       -7.4830  -10.9070    8.9430 C.ar  288  TYR288     -0.0009
     85  CD2       -7.7410  -13.2950    8.9100 C.ar  288  TYR288     -0.0009
     86  CE1       -8.8590  -10.7680    9.2400 C.ar  288  TYR288      0.0417
     87  CE2       -9.1230  -13.1280    9.1810 C.ar  288  TYR288      0.0417
     88  CZ        -9.6510  -11.9040    9.3550 C.ar  288  TYR288      0.1957
     89  OH       -10.9850  -11.8010    9.6560 O.3   288  TYR288     -0.2866
     90  N          1.6380  -20.6810   10.8110 N.3   305  GLN305     -0.1231
     91  CA         1.5100  -20.8590    9.3810 C.3   305  GLN305      0.1698
     92  C          1.8480  -22.2090    8.8070 C.2   305  GLN305      0.2592
     93  O          1.5730  -22.4460    7.6430 O.2   305  GLN305     -0.2718
     94  CB         2.2590  -19.7550    8.6160 C.3   305  GLN305      0.0381
     95  CG         3.7840  -19.8600    8.7620 C.3   305  GLN305      0.0905
     96  CD         4.5370  -18.5460    8.7650 C.2   305  GLN305      0.2608
     97  OE1        4.0030  -17.4940    8.9850 O.2   305  GLN305     -0.2717
     98  NE2        5.8290  -18.6190    8.5060 N.am  305  GLN305     -0.0878
     99  N          2.3490  -23.1150    9.6250 N.am  306  VAL306     -0.1980
    100  CA         2.6650  -24.4540    9.1640 C.3   306  VAL306      0.1595
    101  C          1.9020  -25.4590   10.0090 C.2   306  VAL306      0.2287
    102  O          2.2830  -26.6110   10.0960 O.2   306  VAL306     -0.2864
    103  CB         4.1920  -24.7000    9.1850 C.3   306  VAL306      0.0276
    104  CG1        4.8930  -23.7870    8.2160 C.3   306  VAL306      0.0022
    105  CG2        4.8040  -24.4880   10.5690 C.3   306  VAL306      0.0022
    106  N         -1.6580  -23.3320    7.2170 N.3   332  ALA332     -0.1245
    107  CA        -1.7580  -22.2480    8.2390 C.3   332  ALA332      0.1562
    108  C         -3.0750  -22.3820    8.9730 C.2   332  ALA332      0.2260
    109  O         -4.1040  -22.5520    8.3400 O.2   332  ALA332     -0.2867
    110  CB        -1.6980  -20.9060    7.5610 C.3   332  ALA332      0.0290
    111  N         -5.7810  -20.3280   10.9150 N.3   334  ARG334     -0.1245
    112  CA        -6.2160  -18.9550   10.9450 C.3   334  ARG334      0.1563
    113  C         -6.8210  -18.5500   12.3000 C.2   334  ARG334      0.2260
    114  O         -6.7030  -17.4170   12.6860 O.2   334  ARG334     -0.2867
    115  CB        -7.2410  -18.6740    9.7930 C.3   334  ARG334      0.0307
    116  CG        -6.6030  -18.6780    8.4130 C.3   334  ARG334      0.0489
    117  CD        -5.7410  -17.4340    8.2300 C.3   334  ARG334      0.2205
    118  NE        -5.0470  -17.5010    6.9480 N.pl3 334  ARG334     -0.0865
    119  CZ        -4.1890  -16.6110    6.5190 C.cat 334  ARG334      0.5346
    120  NH1       -3.9840  -15.4760    7.1580 N.pl3 334  ARG334      0.1354
    121  NH2       -3.6620  -16.8160    5.3380 N.pl3 334  ARG334      0.1354
    122  N         -6.1020  -22.8610    6.1450 N.3   350  ASP350     -0.1239
    123  CA        -6.0630  -22.3600    4.7620 C.3   350  ASP350      0.1674
    124  C         -6.4060  -23.3770    3.6630 C.2   350  ASP350      0.2266
    125  O         -6.8040  -22.9790    2.5640 O.2   350  ASP350     -0.2867
    126  CB        -4.7090  -21.7440    4.5050 C.3   350  ASP350      0.1410
    127  CG        -4.6610  -20.2830    4.8240 C.2   350  ASP350      0.3668
    128  OD1       -5.4810  -19.8350    5.6540 O.co2 350  ASP350     -0.2456
    129  OD2       -3.7940  -19.5700    4.2380 O.co2 350  ASP350     -0.2456
@<TRIPOS>BOND
     1    19    20    1
     2    23    20    1
     3    23    24    1
     4    26    24   am
     5    20    21    1
     6    24    25    2
     7     7     6    1
     8     7     1    1
     9     6     5    1
    10     1     2    1
    11    38    37    1
    12    21    22    2
    13   125   124    2
    14    37    35   ar
    15    37    36   ar
    16     5     2    1
    17     2     3    1
    18    35    33   ar
    19   124   123    1
    20    17    18   ar
    21    17    15   ar
    22    18    16   ar
    23     4     3    2
    24    55    53   ar
    25   129   127   ar
    26    36    34   ar
    27   126   123    1
    28   126   127    1
    29    33    32   ar
    30    75    77   ar
    31    75    73   ar
    32   123   122    1
    33   127   128   ar
    34    15    13   ar
    35    16    14   ar
    36    72    73   ar
    37    72    70   ar
    38    53    54   ar
    39    53    52    1
    40   121   119    1
    41    77    76   ar
    42    73    71   ar
    43    34    32   ar
    44    52    51    1
    45    32    31    1
    46    62    60    1
    47    13    14   ar
    48    13    12    1
    49    70    69   ar
    50    27    28    1
    51   119   118    2
    52   119   120    1
    53    76    74   ar
    54    71    69   ar
    55    71    74   ar
    56   118   117    1
    57    60    61    1
    58    60    57    1
    59    63    61    1
    60    31    28    1
    61    28    29    1
    62    45    44    2
    63   106   107    1
    64    51    48    1
    65    69    68    1
    66    12     9    1
    67     8     9    1
    68   110   107    1
    69    93    92    2
    70    47    48    1
    71    67    66    2
    72    57    56    1
    73    57    58    1
    74    46    44   am
    75    48    49    1
    76    44    43    1
    77     9    10    1
    78   104   103    1
    79    64    58   am
    80    64    65    1
    81   117   116    1
    82   107   108    1
    83   109   108    2
    84   116   115    1
    85    98    96   am
    86    82    83    1
    87    82    79    1
    88    94    95    1
    89    94    91    1
    90    68    65    1
    91    29    30    2
    92    95    96    1
    93    96    97    2
    94    58    59    2
    95    83    85   ar
    96    83    84   ar
    97    66    65    1
    98    66    78   am
    99    92    91    1
   100    92    99   am
   101    85    87   ar
   102    39    40    1
   103    84    86   ar
   104   100   103    1
   105   100    99    1
   106   100   101    1
   107    87    88   ar
   108   103   105    1
   109    86    88   ar
   110    88    89    1
   111    91    90    1
   112    40    43    1
   113    40    41    1
   114    49    50    2
   115    10    11    2
   116    78    79    1
   117   115   112    1
   118    81    80    2
   119    79    80    1
   120   101   102    2
   121    41    42    2
   122   111   112    1
   123   112   113    1
   124   113   114    2
