@<TRIPOS>MOLECULE
tmp/5ttyA00.pdb
 135 131 0 0 0
SMALL
GASTEIGER

@<TRIPOS>ATOM
      1  N          6.8380   85.8160    5.0770 N.3    51  GLU51      -0.1245
      2  CA         7.7300   86.9140    5.3970 C.3    51  GLU51       0.1567
      3  C          7.0160   88.1990    5.0120 C.2    51  GLU51       0.2260
      4  O          6.4630   88.3000    3.9220 O.2    51  GLU51      -0.2867
      5  CB         9.0280   86.7730    4.5950 C.3    51  GLU51       0.0388
      6  CG        10.0050   87.9440    4.6650 C.3    51  GLU51       0.1160
      7  CD        11.1300   87.8050    3.6470 C.2    51  GLU51       0.3649
      8  OE1       12.0710   87.0220    3.8950 O.co2  51  GLU51      -0.2457
      9  OE2       11.0680   88.4770    2.5940 O.co2  51  GLU51      -0.2457
     10  N          6.7420   87.3140    1.1090 N.3    67  LEU67      -0.1245
     11  CA         7.2390   86.0620    0.5520 C.3    67  LEU67       0.1561
     12  C          6.5650   84.8840    1.2350 C.2    67  LEU67       0.2260
     13  O          6.2890   84.9420    2.4360 O.2    67  LEU67      -0.2867
     14  CB         8.7480   85.9520    0.7720 C.3    67  LEU67       0.0270
     15  CG         9.7610   86.0290   -0.3750 C.3    67  LEU67       0.0019
     16  CD1        9.4120   87.0340   -1.4610 C.3    67  LEU67       0.0001
     17  CD2       11.1540   86.2830    0.1870 C.3    67  LEU67       0.0001
     18  N          7.3600   80.8740    2.0570 N.3    69  PHE69      -0.1241
     19  CA         8.3940   79.8470    2.1140 C.3    69  PHE69       0.1605
     20  C          7.7350   78.4810    2.1950 C.2    69  PHE69       0.2264
     21  O          6.9500   78.2200    3.1100 O.2    69  PHE69      -0.2867
     22  CB         9.2900   80.0550    3.3400 C.3    69  PHE69       0.0534
     23  CG        10.2430   81.1980    3.2060 C.ar   69  PHE69      -0.0203
     24  CD1        9.8300   82.5020    3.4650 C.ar   69  PHE69      -0.0042
     25  CD2       11.5610   80.9760    2.8260 C.ar   69  PHE69      -0.0042
     26  CE1       10.7130   83.5600    3.3380 C.ar   69  PHE69      -0.0003
     27  CE2       12.4540   82.0380    2.6930 C.ar   69  PHE69      -0.0003
     28  CZ        12.0260   83.3320    2.9500 C.ar   69  PHE69      -0.0000
     29  N         15.6520   75.2900    0.4140 N.3   119  VAL119     -0.1245
     30  CA        14.7080   76.3950    0.6280 C.3   119  VAL119      0.1561
     31  C         14.1300   76.7760   -0.7290 C.2   119  VAL119      0.2260
     32  O         14.8560   76.8190   -1.7230 O.2   119  VAL119     -0.2867
     33  CB        15.3910   77.6400    1.2600 C.3   119  VAL119      0.0252
     34  CG1       14.4290   78.8280    1.3420 C.3   119  VAL119      0.0019
     35  CG2       15.9500   77.3360    2.6450 C.3   119  VAL119      0.0019
     36  N          9.4350   87.7060   -6.9030 N.3   136  LYS136     -0.1245
     37  CA        10.6990   87.2710   -6.3140 C.3   136  LYS136      0.1561
     38  C         10.6950   85.7750   -6.0690 C.2   136  LYS136      0.2260
     39  O          9.6560   85.1980   -5.7630 O.2   136  LYS136     -0.2867
     40  CB        10.9540   88.0080   -5.0010 C.3   136  LYS136      0.0271
     41  CG        11.1610   89.5130   -5.1650 C.3   136  LYS136      0.0035
     42  CD        10.8760   90.2620   -3.8730 C.3   136  LYS136      0.0206
     43  CE        12.0340   90.1570   -2.8970 C.3   136  LYS136      0.1093
     44  NZ        11.7420   90.9280   -1.6560 N.3   136  LYS136     -0.1314
     45  N         13.5060   82.6980   -4.2900 N.3   138  HIS138     -0.1241
     46  CA        14.7990   82.2680   -3.7770 C.3   138  HIS138      0.1621
     47  C         14.8550   80.7600   -3.7960 C.2   138  HIS138      0.2264
     48  O         13.8630   80.0850   -3.5220 O.2   138  HIS138     -0.2867
     49  CB        15.0490   82.7880   -2.3630 C.3   138  HIS138      0.0745
     50  CG        14.8670   84.2650   -2.2380 C.ar  138  HIS138      0.0817
     51  ND1       13.7950   84.8310   -1.5820 N.ar  138  HIS138     -0.2268
     52  CD2       15.5930   85.2940   -2.7350 C.ar  138  HIS138      0.1154
     53  CE1       13.8890   86.1490   -1.6520 C.ar  138  HIS138      0.1986
     54  NE2       14.9680   86.4550   -2.3490 N.ar  138  HIS138     -0.2212
     55  N         22.5230   80.2470   -1.3420 N.3   170  LEU170     -0.1245
     56  CA        21.2720   80.9060   -1.6910 C.3   170  LEU170      0.1561
     57  C         21.3760   81.6730   -3.0050 C.2   170  LEU170      0.2260
     58  O         22.3060   82.4540   -3.2060 O.2   170  LEU170     -0.2867
     59  CB        20.8380   81.8500   -0.5640 C.3   170  LEU170      0.0270
     60  CG        19.4480   82.4790   -0.6670 C.3   170  LEU170      0.0019
     61  CD1       18.3640   81.4260   -0.4810 C.3   170  LEU170      0.0001
     62  CD2       19.2990   83.5810    0.3730 C.3   170  LEU170      0.0001
     63  N         24.2800   84.6330   -2.8530 N.3   186  TYR186     -0.1241
     64  CA        24.5140   85.0750   -1.4840 C.3   186  TYR186      0.1605
     65  C         25.4750   84.1370   -0.7700 C.2   186  TYR186      0.2264
     66  O         25.2460   82.9310   -0.7110 O.2   186  TYR186     -0.2867
     67  CB        23.1820   85.1530   -0.7310 C.3   186  TYR186      0.0534
     68  CG        22.2100   86.1390   -1.3400 C.ar  186  TYR186     -0.0201
     69  CD1       22.2360   87.4870   -0.9730 C.ar  186  TYR186     -0.0009
     70  CD2       21.2710   85.7300   -2.2900 C.ar  186  TYR186     -0.0009
     71  CE1       21.3510   88.3970   -1.5270 C.ar  186  TYR186      0.0417
     72  CE2       20.3790   86.6350   -2.8530 C.ar  186  TYR186      0.0417
     73  CZ        20.4260   87.9630   -2.4670 C.ar  186  TYR186      0.1957
     74  OH        19.5490   88.8690   -3.0190 O.3   186  TYR186     -0.2866
     75  N         24.6390   86.6810    5.7910 N.3   222  PHE222     -0.1241
     76  CA        24.9130   86.5530    4.3600 C.3   222  PHE222      0.1605
     77  C         25.0210   87.8870    3.6170 C.2   222  PHE222      0.2264
     78  O         24.6010   88.9250    4.1200 O.2   222  PHE222     -0.2867
     79  CB        24.0600   85.4710    3.6390 C.3   222  PHE222      0.0534
     80  CG        22.6080   85.8130    3.4260 C.ar  222  PHE222     -0.0203
     81  CD1       22.2220   86.8980    2.6470 C.ar  222  PHE222     -0.0042
     82  CD2       21.6240   84.9670    3.9150 C.ar  222  PHE222     -0.0042
     83  CE1       20.8830   87.1710    2.4190 C.ar  222  PHE222     -0.0003
     84  CE2       20.2790   85.2350    3.6970 C.ar  222  PHE222     -0.0003
     85  CZ        19.9070   86.3450    2.9520 C.ar  222  PHE222     -0.0000
     86  N         23.3040   90.9950    5.4090 N.3   235  TYR235     -0.1241
     87  CA        22.0750   90.4740    6.0010 C.3   235  TYR235      0.1605
     88  C         22.3770   89.6860    7.2630 C.2   235  TYR235      0.2264
     89  O         23.3020   88.8680    7.2820 O.2   235  TYR235     -0.2867
     90  CB        21.3180   89.5890    5.0160 C.3   235  TYR235      0.0534
     91  CG        20.8140   90.3070    3.7840 C.ar  235  TYR235     -0.0201
     92  CD1       19.5300   90.8540    3.7480 C.ar  235  TYR235     -0.0009
     93  CD2       21.6140   90.4200    2.6470 C.ar  235  TYR235     -0.0009
     94  CE1       19.0640   91.5070    2.6190 C.ar  235  TYR235      0.0417
     95  CE2       21.1560   91.0630    1.5120 C.ar  235  TYR235      0.0417
     96  CZ        19.8840   91.6020    1.5030 C.ar  235  TYR235      0.1957
     97  OH        19.4340   92.2420    0.3720 O.3   235  TYR235     -0.2866
     98  N         15.1360   89.0500   10.0520 N.3   271  TRP271     -0.1241
     99  CA        16.3020   89.3440    9.2280 C.3   271  TRP271      0.1605
    100  C         16.4420   90.8520    9.1140 C.2   271  TRP271      0.2264
    101  O         15.4430   91.5800    9.1500 O.2   271  TRP271     -0.2867
    102  CB        16.1970   88.7110    7.8400 C.3   271  TRP271      0.0550
    103  CG        16.5770   87.2420    7.7760 C.ar  271  TRP271      0.0003
    104  CD1       15.7350   86.1710    7.8970 C.ar  271  TRP271      0.0946
    105  CD2       17.8860   86.7000    7.5440 C.ar  271  TRP271      0.0152
    106  NE1       16.4400   84.9900    7.7600 N.ar  271  TRP271     -0.2442
    107  CE2       17.7610   85.2880    7.5420 C.ar  271  TRP271      0.0810
    108  CE3       19.1530   87.2680    7.3480 C.ar  271  TRP271      0.0012
    109  CZ2       18.8590   84.4380    7.3460 C.ar  271  TRP271      0.0191
    110  CZ3       20.2510   86.4180    7.1590 C.ar  271  TRP271      0.0001
    111  CH2       20.0900   85.0210    7.1570 C.ar  271  TRP271      0.0015
    112  N         12.7970   92.3850    8.0410 N.3   290  TYR290     -0.1241
    113  CA        12.0230   91.2090    7.6270 C.3   290  TYR290      0.1605
    114  C         11.4690   90.4730    8.8400 C.2   290  TYR290      0.2264
    115  O         12.2230   90.1230    9.7490 O.2   290  TYR290     -0.2867
    116  CB        12.9020   90.2430    6.8290 C.3   290  TYR290      0.0534
    117  CG        13.5990   90.8260    5.6080 C.ar  290  TYR290     -0.0201
    118  CD1       13.0690   90.6590    4.3300 C.ar  290  TYR290     -0.0009
    119  CD2       14.8150   91.4920    5.7300 C.ar  290  TYR290     -0.0009
    120  CE1       13.7170   91.1700    3.2090 C.ar  290  TYR290      0.0417
    121  CE2       15.4700   92.0020    4.6220 C.ar  290  TYR290      0.0417
    122  CZ        14.9180   91.8400    3.3670 C.ar  290  TYR290      0.1957
    123  OH        15.5840   92.3510    2.2770 O.3   290  TYR290     -0.2866
    124  N          8.5370   87.3670   10.3360 N.3   292  TYR292     -0.1241
    125  CA         8.0820   86.0280    9.9480 C.3   292  TYR292      0.1605
    126  C          6.9990   85.4340   10.8380 C.2   292  TYR292      0.2264
    127  O          6.9200   85.7210   12.0280 O.2   292  TYR292     -0.2867
    128  CB         9.2790   85.0610    9.9000 C.3   292  TYR292      0.0534
    129  CG        10.3400   85.5230    8.9490 C.ar  292  TYR292     -0.0201
    130  CD1       10.3620   85.0690    7.6290 C.ar  292  TYR292     -0.0009
    131  CD2       11.2920   86.4650    9.3420 C.ar  292  TYR292     -0.0009
    132  CE1       11.3250   85.5150    6.7410 C.ar  292  TYR292      0.0417
    133  CE2       12.2480   86.9260    8.4560 C.ar  292  TYR292      0.0417
    134  CZ        12.2530   86.4500    7.1570 C.ar  292  TYR292      0.1957
    135  OH        13.1950   86.9020    6.2720 O.3   292  TYR292     -0.2866
@<TRIPOS>BOND
     1    36    37    1
     2    37    38    1
     3    37    40    1
     4    38    39    2
     5    41    40    1
     6    41    42    1
     7    45    46    1
     8    42    43    1
     9    47    46    1
    10    47    48    2
    11    46    49    1
    12    58    57    2
    13    74    73    1
    14    57    56    1
    15    43    44    1
    16    72    73   ar
    17    72    70   ar
    18    63    64    1
    19    52    54   ar
    20    52    50   ar
    21    73    71   ar
    22    49    50    1
    23    54    53   ar
    24    70    68   ar
    25    50    51   ar
    26    32    31    2
    27    56    55    1
    28    56    59    1
    29    53    51   ar
    30    71    69   ar
    31    64    65    1
    32    64    67    1
    33    16    15    1
    34    68    69   ar
    35    68    67    1
    36    65    66    2
    37    31    30    1
    38    60    59    1
    39    60    61    1
    40    60    62    1
    41    15    17    1
    42    15    14    1
    43    97    96    1
    44    29    30    1
    45    11    14    1
    46    11    10    1
    47    11    12    1
    48    30    33    1
    49    12    13    2
    50    33    34    1
    51    33    35    1
    52    96    95   ar
    53    96    94   ar
    54    95    93   ar
    55    18    19    1
    56    19    20    1
    57    19    22    1
    58    20    21    2
    59   123   122    1
    60    83    81   ar
    61    83    85   ar
    62     9     7   ar
    63    94    92   ar
    64    93    91   ar
    65    81    80   ar
    66    27    25   ar
    67    27    28   ar
    68    25    23   ar
    69    28    26   ar
    70    85    84   ar
    71    23    22    1
    72    23    24   ar
    73   120   122   ar
    74   120   118   ar
    75    26    24   ar
    76   122   121   ar
    77    80    79    1
    78    80    82   ar
    79    77    78    2
    80    77    76    1
    81    79    76    1
    82     7     8   ar
    83     7     6    1
    84    84    82   ar
    85    92    91   ar
    86    91    90    1
    87     4     3    2
    88   118   117   ar
    89    76    75    1
    90     5     6    1
    91     5     2    1
    92   121   119   ar
    93     3     2    1
    94    90    87    1
    95     1     2    1
    96    86    87    1
    97   117   119   ar
    98   117   116    1
    99    87    88    1
   100   135   134    1
   101   132   134   ar
   102   132   130   ar
   103   116   113    1
   104   111   110   ar
   105   111   109   ar
   106   134   133   ar
   107   110   108   ar
   108    88    89    2
   109   109   107   ar
   110   108   105   ar
   111   107   105   ar
   112   107   106   ar
   113   105   103   ar
   114   113   112    1
   115   113   114    1
   116   130   129   ar
   117   106   104   ar
   118   103   102    1
   119   103   104   ar
   120   102    99    1
   121   133   131   ar
   122   114   115    2
   123   129   131   ar
   124   129   128    1
   125   100   101    2
   126   100    99    1
   127    99    98    1
   128   128   125    1
   129   125   124    1
   130   125   126    1
   131   126   127    2
