@<TRIPOS>MOLECULE
tmp/5ttzB03.pdb
 107 101 0 0 0
SMALL
GASTEIGER

@<TRIPOS>ATOM
      1  N       -124.3330  162.8320   27.2150 N.3    10  ASN10      -0.1225
      2  CA      -125.3280  161.8920   26.7320 C.3    10  ASN10       0.1785
      3  C       -124.6600  160.6650   26.1680 C.2    10  ASN10       0.2597
      4  O       -125.0720  159.5500   26.4620 O.2    10  ASN10      -0.2718
      5  CB      -126.2240  162.5230   25.6600 C.3    10  ASN10       0.1169
      6  CG      -127.2420  163.4960   26.2310 C.2    10  ASN10       0.2627
      7  OD1     -127.7640  163.3030   27.3270 O.2    10  ASN10      -0.2716
      8  ND2     -127.5220  164.5560   25.4820 N.am   10  ASN10      -0.0877
      9  N       -123.6450  160.8770   25.3340 N.am   11  ARG11      -0.1979
     10  CA      -122.8860  159.7700   24.7590 C.3    11  ARG11       0.1597
     11  C       -122.2350  158.9680   25.8760 C.2    11  ARG11       0.2287
     12  O       -122.2470  157.7410   25.8600 O.2    11  ARG11      -0.2864
     13  CB      -121.8180  160.2740   23.7860 C.3    11  ARG11       0.0334
     14  CG      -122.3480  161.2450   22.7680 C.3    11  ARG11       0.0492
     15  CD      -121.3930  161.4800   21.6120 C.3    11  ARG11       0.2205
     16  NE      -122.0510  162.3120   20.6110 N.pl3  11  ARG11      -0.0865
     17  CZ      -121.9690  163.6340   20.5600 C.cat  11  ARG11       0.5346
     18  NH1     -121.2170  164.2830   21.4360 N.pl3  11  ARG11       0.1354
     19  NH2     -122.6270  164.3030   19.6160 N.pl3  11  ARG11       0.1354
     20  N       -123.1060  158.7210   29.0680 N.3    13  MET13      -0.1230
     21  CA      -124.0720  157.9610   29.8390 C.3    13  MET13       0.1702
     22  C       -124.3790  156.6480   29.1140 C.2    13  MET13       0.2592
     23  O       -124.4460  155.5930   29.7270 O.2    13  MET13      -0.2718
     24  CB      -125.3450  158.7850   30.0720 C.3    13  MET13       0.0401
     25  CG      -125.2270  159.8440   31.1810 C.3    13  MET13       0.0596
     26  SD      -126.8050  160.6390   31.6690 S.3    13  MET13      -0.1393
     27  CE      -127.1370  161.6460   30.2410 C.3    13  MET13       0.0692
     28  N       -124.5010  156.7080   27.7940 N.am   14  LYS14      -0.1980
     29  CA      -124.8510  155.5210   27.0280 C.3    14  LYS14       0.1596
     30  C       -123.6990  154.5260   27.0030 C.2    14  LYS14       0.2287
     31  O       -123.9080  153.3420   27.2540 O.2    14  LYS14      -0.2864
     32  CB      -125.2790  155.9010   25.6090 C.3    14  LYS14       0.0298
     33  CG      -126.5140  156.7840   25.5680 C.3    14  LYS14       0.0038
     34  CD      -126.9950  157.0220   24.1420 C.3    14  LYS14       0.0206
     35  CE      -128.3360  157.7350   24.0900 C.3    14  LYS14       0.1093
     36  NZ      -128.6640  158.1760   22.7110 N.3    14  LYS14      -0.1314
     37  N       -123.5850  152.7980   30.2850 N.3    17  ILE17      -0.1231
     38  CA      -124.6980  151.8570   30.3590 C.3    17  ILE17       0.1692
     39  C       -124.5600  150.6950   29.3620 C.2    17  ILE17       0.2592
     40  O       -124.9350  149.5640   29.6700 O.2    17  ILE17      -0.2718
     41  CB      -126.0250  152.5990   30.1380 C.3    17  ILE17       0.0266
     42  CG1     -126.3140  153.4800   31.3510 C.3    17  ILE17       0.0019
     43  CG2     -127.1670  151.6230   29.8490 C.3    17  ILE17       0.0020
     44  CD1     -127.1320  154.7070   31.0290 C.3    17  ILE17       0.0001
     45  N       -124.0000  150.9660   28.1850 N.am   18  ASN18      -0.1974
     46  CA      -123.8380  149.9370   27.1540 C.3    18  ASN18       0.1688
     47  C       -122.5240  149.1520   27.2550 C.2    18  ASN18       0.2292
     48  O       -122.0950  148.5190   26.2870 O.2    18  ASN18      -0.2864
     49  CB      -123.9450  150.5600   25.7560 C.3    18  ASN18       0.1181
     50  CG      -125.3830  150.7770   25.3190 C.2    18  ASN18       0.2629
     51  OD1     -126.2400  149.9110   25.5180 O.2    18  ASN18      -0.2716
     52  ND2     -125.6560  151.9370   24.7160 N.am   18  ASN18      -0.0877
     53  N       -127.0470  155.4590   36.7780 N.3   123  PHE123     -0.1241
     54  CA      -128.1710  155.1970   35.9000 C.3   123  PHE123      0.1605
     55  C       -128.2030  153.7490   35.4460 C.2   123  PHE123      0.2264
     56  O       -129.1600  153.3240   34.8020 O.2   123  PHE123     -0.2867
     57  CB      -128.1530  156.1480   34.6980 C.3   123  PHE123      0.0534
     58  CG      -128.6100  157.5480   35.0340 C.ar  123  PHE123     -0.0203
     59  CD1     -129.9150  157.7800   35.4610 C.ar  123  PHE123     -0.0042
     60  CD2     -127.7420  158.6220   34.9470 C.ar  123  PHE123     -0.0042
     61  CE1     -130.3410  159.0630   35.7900 C.ar  123  PHE123     -0.0003
     62  CE2     -128.1630  159.9050   35.2740 C.ar  123  PHE123     -0.0003
     63  CZ      -129.4700  160.1270   35.6940 C.ar  123  PHE123     -0.0000
     64  N       -130.6430  152.9810   38.3840 N.3   126  ALA126     -0.1231
     65  CA      -131.6170  153.9650   38.8330 C.3   126  ALA126      0.1694
     66  C       -132.3990  154.5110   37.6760 C.2   126  ALA126      0.2592
     67  O       -131.8480  154.7160   36.5960 O.2   126  ALA126     -0.2718
     68  CB      -130.9300  155.1020   39.5630 C.3   126  ALA126      0.0304
     69  N       -133.6830  154.7720   37.9180 N.am  127  ASP127     -0.1974
     70  CA      -134.5090  155.3980   36.9100 C.3   127  ASP127      0.1709
     71  C       -134.3850  156.8880   37.0680 C.2   127  ASP127      0.2293
     72  O       -134.5320  157.6540   36.1110 O.2   127  ASP127     -0.2864
     73  CB      -135.9570  154.9680   37.0310 C.3   127  ASP127      0.1436
     74  CG      -136.1930  153.5850   36.4920 C.2   127  ASP127      0.3671
     75  OD1     -136.8690  152.7820   37.1790 O.co2 127  ASP127     -0.2456
     76  OD2     -135.7200  153.3170   35.3670 O.co2 127  ASP127     -0.2456
     77  N       -133.6210  161.9880   35.2010 N.3   146  ASP146     -0.1225
     78  CA      -133.9640  160.6520   34.7270 C.3   146  ASP146      0.1805
     79  C       -133.0890  160.2890   33.5290 C.2   146  ASP146      0.2598
     80  O       -133.3970  159.3360   32.8050 O.2   146  ASP146     -0.2718
     81  CB      -135.4490  160.5720   34.3490 C.3   146  ASP146      0.1424
     82  CG      -135.7910  161.4150   33.1200 C.2   146  ASP146      0.3668
     83  OD1     -136.5740  160.9590   32.2680 O.co2 146  ASP146     -0.2456
     84  OD2     -135.2630  162.5350   32.9930 O.co2 146  ASP146     -0.2456
     85  N       -132.0300  161.0870   33.3350 N.am  147  SER147     -0.1938
     86  CA      -131.0440  160.9960   32.2370 C.3   147  SER147      0.2055
     87  C       -131.4820  161.7510   30.9920 C.2   147  SER147      0.2643
     88  O       -130.6840  161.9370   30.0780 O.2   147  SER147     -0.2714
     89  CB      -130.7350  159.5500   31.8370 C.3   147  SER147      0.2130
     90  OG      -131.7390  159.0350   30.9610 O.3   147  SER147     -0.2179
     91  N       -132.7480  162.1560   30.9380 N.am  148  ASN148     -0.1971
     92  CA      -133.2860  162.7490   29.7250 C.3   148  ASN148      0.1688
     93  C       -133.2720  164.2420   29.7740 C.2   148  ASN148      0.2292
     94  O       -133.5880  164.9070   28.7970 O.2   148  ASN148     -0.2864
     95  CB      -134.7040  162.2770   29.4820 C.3   148  ASN148      0.1181
     96  CG      -134.7530  160.8770   29.0240 C.2   148  ASN148      0.2629
     97  OD1     -134.1670  160.5450   27.9940 O.2   148  ASN148     -0.2716
     98  ND2     -135.4330  160.0230   29.7790 N.am  148  ASN148     -0.0877
     99  N       -134.2570  150.8290   39.7540 N.3   172  LYS172     -0.1245
    100  CA      -134.9900  150.1330   38.7160 C.3   172  LYS172      0.1561
    101  C       -135.5950  148.8610   39.3130 C.2   172  LYS172      0.2260
    102  O       -135.2890  148.4920   40.4600 O.2   172  LYS172     -0.2867
    103  CB      -134.0690  149.8090   37.5340 C.3   172  LYS172      0.0271
    104  CG      -133.3050  151.0160   36.9810 C.3   172  LYS172      0.0035
    105  CD      -132.4590  150.6450   35.7640 C.3   172  LYS172      0.0206
    106  CE      -132.8460  151.4570   34.5220 C.3   172  LYS172      0.1093
    107  NZ      -131.8590  152.4900   34.0980 N.3   172  LYS172     -0.1314
@<TRIPOS>BOND
     1    19    17    1
     2    17    16    2
     3    17    18    1
     4    16    15    1
     5    15    14    1
     6    36    35    1
     7    14    13    1
     8    13    10    1
     9    35    34    1
    10    34    33    1
    11    52    50   am
    12    10     9    1
    13    10    11    1
    14    50    51    2
    15    50    49    1
    16     9     3   am
    17     8     6   am
    18    33    32    1
    19    32    29    1
    20     5     6    1
    21     5     2    1
    22    49    46    1
    23    12    11    2
    24     3     4    2
    25     3     2    1
    26     6     7    2
    27    48    47    2
    28     2     1    1
    29    30    29    1
    30    30    31    2
    31    29    28    1
    32    46    47    1
    33    46    45    1
    34    28    22   am
    35    97    96    2
    36    45    39   am
    37    94    93    2
    38    96    95    1
    39    96    98   am
    40    20    21    1
    41    22    23    2
    42    22    21    1
    43    39    40    2
    44    39    38    1
    45    95    92    1
    46    92    93    1
    47    92    91    1
    48    21    24    1
    49    43    41    1
    50    24    25    1
    51    88    87    2
    52    41    38    1
    53    41    42    1
    54    27    26    1
    55    37    38    1
    56    91    87   am
    57    90    89    1
    58    87    86    1
    59    44    42    1
    60    25    26    1
    61    89    86    1
    62    86    85    1
    63    83    82   ar
    64    80    79    2
    65    84    82   ar
    66    82    81    1
    67    85    79   am
    68    79    78    1
    69   107   106    1
    70    81    78    1
    71   106   105    1
    72    57    58    1
    73    57    54    1
    74    78    77    1
    75    56    55    2
    76    60    58   ar
    77    60    62   ar
    78    58    59   ar
    79    62    63   ar
    80    76    74   ar
    81    55    54    1
    82    59    61   ar
    83    63    61   ar
    84   105   104    1
    85    54    53    1
    86    72    71    2
    87    74    73    1
    88    74    75   ar
    89    67    66    2
    90    70    73    1
    91    70    71    1
    92    70    69    1
    93   104   103    1
    94   103   100    1
    95    66    69   am
    96    66    65    1
    97    64    65    1
    98   100   101    1
    99   100    99    1
   100    65    68    1
   101   101   102    2
