@<TRIPOS>MOLECULE
tmp/5tu0A00.pdb
 113 110 0 0 0
SMALL
GASTEIGER

@<TRIPOS>ATOM
      1  N         29.9600   17.2650  -16.4870 N.3    41  PHE41      -0.1241
      2  CA        29.2390   18.3510  -17.1260 C.3    41  PHE41       0.1605
      3  C         27.8740   18.6340  -16.4830 C.2    41  PHE41       0.2264
      4  O         27.5000   19.7830  -16.3630 O.2    41  PHE41      -0.2867
      5  CB        29.1350   18.0970  -18.6190 C.3    41  PHE41       0.0534
      6  CG        30.4810   18.0500  -19.3120 C.ar   41  PHE41      -0.0203
      7  CD1       31.2160   19.2230  -19.5130 C.ar   41  PHE41      -0.0042
      8  CD2       31.0120   16.8450  -19.7820 C.ar   41  PHE41      -0.0042
      9  CE1       32.4450   19.1920  -20.1700 C.ar   41  PHE41      -0.0003
     10  CE2       32.2390   16.8100  -20.4410 C.ar   41  PHE41      -0.0003
     11  CZ        32.9570   17.9830  -20.6330 C.ar   41  PHE41      -0.0000
     12  N         38.6390   24.2390  -20.7670 N.3    65  ASP65      -0.1239
     13  CA        37.9230   25.2090  -21.6140 C.3    65  ASP65       0.1674
     14  C         36.7210   25.9430  -20.9920 C.2    65  ASP65       0.2266
     15  O         36.2940   26.9810  -21.5260 O.2    65  ASP65      -0.2867
     16  CB        37.5450   24.5900  -22.9810 C.3    65  ASP65       0.1410
     17  CG        36.6020   23.3850  -22.8730 C.2    65  ASP65       0.3668
     18  OD1       35.9010   23.1970  -21.8560 O.co2  65  ASP65      -0.2456
     19  OD2       36.5600   22.6160  -23.8610 O.co2  65  ASP65      -0.2456
     20  N         45.8410   16.6580  -21.7700 N.3   109  GLU109     -0.1245
     21  CA        45.6120   15.8080  -22.9180 C.3   109  GLU109      0.1567
     22  C         45.6460   16.6180  -24.1940 C.2   109  GLU109      0.2260
     23  O         45.4340   17.8180  -24.1740 O.2   109  GLU109     -0.2867
     24  CB        44.3050   15.0190  -22.8090 C.3   109  GLU109      0.0388
     25  CG        43.0430   15.8320  -22.6600 C.3   109  GLU109      0.1160
     26  CD        41.7850   14.9910  -22.8530 C.2   109  GLU109      0.3649
     27  OE1       41.8690   13.7260  -22.8370 O.co2 109  GLU109     -0.2457
     28  OE2       40.7090   15.6000  -23.0440 O.co2 109  GLU109     -0.2457
     29  N         40.1970   13.9200  -39.1120 N.3   154  LYS154     -0.1245
     30  CA        38.8860   14.5630  -39.2110 C.3   154  LYS154      0.1561
     31  C         39.0350   16.0810  -39.3810 C.2   154  LYS154      0.2260
     32  O         38.5760   16.8860  -38.5330 O.2   154  LYS154     -0.2867
     33  CB        38.0590   14.2260  -37.9670 C.3   154  LYS154      0.0271
     34  CG        36.5760   14.5260  -38.0940 C.3   154  LYS154      0.0035
     35  CD        35.8830   14.5230  -36.7370 C.3   154  LYS154      0.0206
     36  CE        34.4210   14.9140  -36.8670 C.3   154  LYS154      0.1093
     37  NZ        33.7990   15.1760  -35.5390 N.3   154  LYS154     -0.1314
     38  N         36.4720   19.0410  -38.8020 N.3   157  ASP157     -0.1239
     39  CA        36.2430   19.4490  -37.4220 C.3   157  ASP157      0.1674
     40  C         37.3980   20.3820  -37.0150 C.2   157  ASP157      0.2266
     41  O         38.5630   19.9640  -36.9460 O.2   157  ASP157     -0.2867
     42  CB        36.1760   18.1940  -36.5360 C.3   157  ASP157      0.1410
     43  CG        35.7420   18.4820  -35.1010 C.2   157  ASP157      0.3668
     44  OD1       36.0770   19.5460  -34.5530 O.co2 157  ASP157     -0.2456
     45  OD2       35.1030   17.5900  -34.5010 O.co2 157  ASP157     -0.2456
     46  N         38.2970   21.4460  -34.2400 N.3   159  TYR159     -0.1227
     47  CA        39.0710   20.9670  -33.0910 C.3   159  TYR159      0.1736
     48  C         40.3000   20.1510  -33.5380 C.2   159  TYR159      0.2595
     49  O         41.3700   20.2210  -32.9240 O.2   159  TYR159     -0.2718
     50  CB        38.1940   20.1650  -32.1240 C.3   159  TYR159      0.0548
     51  CG        38.9560   19.7180  -30.9120 C.ar  159  TYR159     -0.0200
     52  CD1       39.1480   20.5720  -29.8320 C.ar  159  TYR159     -0.0009
     53  CD2       39.5270   18.4580  -30.8640 C.ar  159  TYR159     -0.0009
     54  CE1       39.8750   20.1600  -28.7240 C.ar  159  TYR159      0.0417
     55  CE2       40.2490   18.0430  -29.7740 C.ar  159  TYR159      0.0417
     56  CZ        40.4170   18.8940  -28.7100 C.ar  159  TYR159      0.1957
     57  OH        41.1460   18.4550  -27.6380 O.3   159  TYR159     -0.2866
     58  N         40.1270   19.3630  -34.5940 N.am  160  PHE160     -0.1976
     59  CA        41.2000   18.5660  -35.1690 C.3   160  PHE160      0.1639
     60  C         42.1320   19.3440  -36.0910 C.2   160  PHE160      0.2290
     61  O         43.3590   19.2300  -35.9840 O.2   160  PHE160     -0.2864
     62  CB        40.6030   17.3610  -35.9220 C.3   160  PHE160      0.0560
     63  CG        40.0710   16.3030  -35.0120 C.ar  160  PHE160     -0.0200
     64  CD1       38.8410   16.4490  -34.4040 C.ar  160  PHE160     -0.0042
     65  CD2       40.8020   15.1500  -34.7680 C.ar  160  PHE160     -0.0042
     66  CE1       38.3460   15.4770  -33.5450 C.ar  160  PHE160     -0.0003
     67  CE2       40.3160   14.1680  -33.9120 C.ar  160  PHE160     -0.0003
     68  CZ        39.0900   14.3280  -33.3010 C.ar  160  PHE160     -0.0000
     69  N         41.1430    9.6940  -25.4650 N.3   236  TRP236     -0.1241
     70  CA        39.8530    9.0590  -25.1370 C.3   236  TRP236      0.1605
     71  C         39.5120    7.8530  -26.0220 C.2   236  TRP236      0.2264
     72  O         38.7490    7.0000  -25.6080 O.2   236  TRP236     -0.2867
     73  CB        38.7020   10.0860  -25.1840 C.3   236  TRP236      0.0550
     74  CG        38.5900   10.8240  -26.4870 C.ar  236  TRP236      0.0003
     75  CD1       37.9290   10.4160  -27.6020 C.ar  236  TRP236      0.0946
     76  CD2       39.1770   12.0970  -26.8060 C.ar  236  TRP236      0.0152
     77  NE1       38.0680   11.3550  -28.6000 N.ar  236  TRP236     -0.2442
     78  CE2       38.8230   12.3970  -28.1360 C.ar  236  TRP236      0.0810
     79  CE3       39.9670   13.0130  -26.0900 C.ar  236  TRP236      0.0012
     80  CZ2       39.2280   13.5750  -28.7800 C.ar  236  TRP236      0.0191
     81  CZ3       40.3640   14.1960  -26.7310 C.ar  236  TRP236      0.0001
     82  CH2       39.9940   14.4580  -28.0650 C.ar  236  TRP236      0.0015
     83  N         41.9460   18.8080  -17.5970 N.3   269  LYS269     -0.1245
     84  CA        41.0050   19.0810  -16.5340 C.3   269  LYS269      0.1561
     85  C         41.7070   19.6300  -15.2890 C.2   269  LYS269      0.2260
     86  O         42.8830   19.3250  -15.0110 O.2   269  LYS269     -0.2867
     87  CB        40.2730   17.7900  -16.1440 C.3   269  LYS269      0.0271
     88  CG        39.4970   17.0940  -17.2580 C.3   269  LYS269      0.0035
     89  CD        38.7220   15.9100  -16.6760 C.3   269  LYS269      0.0206
     90  CE        38.0290   15.0280  -17.7160 C.3   269  LYS269      0.1093
     91  NZ        39.0100   14.1140  -18.3380 N.3   269  LYS269     -0.1314
     92  N         43.3430   26.4920  -25.6070 N.3   337  MET337     -0.1245
     93  CA        42.2390   27.0220  -26.3560 C.3   337  MET337      0.1570
     94  C         41.8470   28.3010  -25.6120 C.2   337  MET337      0.2261
     95  O         41.8430   28.3000  -24.3850 O.2   337  MET337     -0.2867
     96  CB        41.0680   26.0450  -26.3150 C.3   337  MET337      0.0387
     97  CG        39.8180   26.5100  -27.0480 C.3   337  MET337      0.0595
     98  SD        38.3860   25.4350  -26.8230 S.3   337  MET337     -0.1393
     99  CE        39.0150   23.8800  -27.4620 C.3   337  MET337      0.0692
    100  N         33.4100   28.5930  -33.3300 N.3   347  TRP347     -0.1241
    101  CA        32.9680   27.2510  -33.8100 C.3   347  TRP347      0.1605
    102  C         32.1460   27.1880  -35.0960 C.2   347  TRP347      0.2264
    103  O         32.5490   26.5100  -36.0430 O.2   347  TRP347     -0.2867
    104  CB        32.2810   26.4840  -32.6710 C.3   347  TRP347      0.0550
    105  CG        33.1950   26.3340  -31.5020 C.ar  347  TRP347      0.0003
    106  CD1       33.0860   26.9560  -30.2930 C.ar  347  TRP347      0.0946
    107  CD2       34.4020   25.5580  -31.4510 C.ar  347  TRP347      0.0152
    108  NE1       34.1360   26.5940  -29.4850 N.ar  347  TRP347     -0.2442
    109  CE2       34.9600   25.7420  -30.1710 C.ar  347  TRP347      0.0810
    110  CE3       35.0560   24.7050  -32.3630 C.ar  347  TRP347      0.0012
    111  CZ2       36.1370   25.1130  -29.7720 C.ar  347  TRP347      0.0191
    112  CZ3       36.2330   24.0790  -31.9700 C.ar  347  TRP347      0.0001
    113  CH2       36.7610   24.2870  -30.6810 C.ar  347  TRP347      0.0015
@<TRIPOS>BOND
     1    31    30    1
     2    31    32    2
     3    30    29    1
     4    30    33    1
     5    38    39    1
     6    34    33    1
     7    34    35    1
     8    39    40    1
     9    39    42    1
    10    40    41    2
    11    36    35    1
    12    36    37    1
    13    42    43    1
    14    60    61    2
    15    60    59    1
    16   103   102    2
    17    62    59    1
    18    62    63    1
    19    59    58    1
    20    43    44   ar
    21    43    45   ar
    22   102   101    1
    23    63    65   ar
    24    63    64   ar
    25    65    67   ar
    26    58    48   am
    27    64    66   ar
    28    46    47    1
    29    67    68   ar
    30   101   100    1
    31   101   104    1
    32    66    68   ar
    33    48    47    1
    34    48    49    2
    35    47    50    1
    36   104   105    1
    37   110   112   ar
    38   110   107   ar
    39    50    51    1
    40   112   113   ar
    41   105   107   ar
    42   105   106   ar
    43   107   109   ar
    44    51    53   ar
    45    51    52   ar
    46    53    55   ar
    47   113   111   ar
    48   106   108   ar
    49   109   111   ar
    50   109   108   ar
    51    52    54   ar
    52    55    56   ar
    53    80    78   ar
    54    80    82   ar
    55    54    56   ar
    56    56    57    1
    57    77    78   ar
    58    77    75   ar
    59    78    76   ar
    60    82    81   ar
    61    75    74   ar
    62    99    98    1
    63    97    98    1
    64    97    96    1
    65    76    74   ar
    66    76    79   ar
    67    81    79   ar
    68    74    73    1
    69    93    96    1
    70    93    94    1
    71    93    92    1
    72    71    72    2
    73    71    70    1
    74    94    95    2
    75    69    70    1
    76    73    70    1
    77    22    23    2
    78    22    21    1
    79    19    17   ar
    80    28    26   ar
    81    16    17    1
    82    16    13    1
    83    21    24    1
    84    21    20    1
    85    17    18   ar
    86    26    27   ar
    87    26    25    1
    88    24    25    1
    89    13    14    1
    90    13    12    1
    91    15    14    2
    92    11    10   ar
    93    11     9   ar
    94    10     8   ar
    95     9     7   ar
    96     8     6   ar
    97     7     6   ar
    98     6     5    1
    99     5     2    1
   100    91    90    1
   101    90    89    1
   102    83    84    1
   103    88    89    1
   104    88    87    1
   105     2     1    1
   106     2     3    1
   107    84    87    1
   108    84    85    1
   109     3     4    2
   110    85    86    2
