@<TRIPOS>MOLECULE
tmp/5tu0A02.pdb
 91 87 0 0 0
SMALL
GASTEIGER

@<TRIPOS>ATOM
      1  N         55.5450   14.2000  -44.7080 N.3   128  LYS128     -0.1245
      2  CA        56.0890   13.6850  -45.9760 C.3   128  LYS128      0.1561
      3  C         55.9200   12.1580  -45.9730 C.2   128  LYS128      0.2260
      4  O         55.5350   11.5710  -46.9800 O.2   128  LYS128     -0.2867
      5  CB        57.5700   14.0410  -46.1470 C.3   128  LYS128      0.0271
      6  CG        57.8960   15.5210  -46.3120 C.3   128  LYS128      0.0035
      7  CD        57.9080   15.9930  -47.7590 C.3   128  LYS128      0.0206
      8  CE        56.5460   16.0030  -48.3980 C.3   128  LYS128      0.1093
      9  NZ        56.6040   16.5210  -49.7930 N.3   128  LYS128     -0.1314
     10  N         52.3590   11.3450  -46.5960 N.3   131  GLU131     -0.1245
     11  CA        52.0150   11.5290  -48.0100 C.3   131  GLU131      0.1567
     12  C         52.4130   10.2730  -48.8160 C.2   131  GLU131      0.2260
     13  O         51.6590    9.8170  -49.6950 O.2   131  GLU131     -0.2867
     14  CB        52.6740   12.7950  -48.5870 C.3   131  GLU131      0.0388
     15  CG        52.0890   14.0950  -48.0230 C.3   131  GLU131      0.1160
     16  CD        52.8420   15.3430  -48.4410 C.2   131  GLU131      0.3649
     17  OE1       53.6970   15.2630  -49.3470 O.co2 131  GLU131     -0.2457
     18  OE2       52.5990   16.4160  -47.8370 O.co2 131  GLU131     -0.2457
     19  N         50.1130    7.4440  -48.1320 N.3   134  SER134     -0.1202
     20  CA        48.8330    7.6150  -48.8450 C.3   134  SER134      0.2020
     21  C         48.8810    7.1800  -50.3060 C.2   134  SER134      0.2618
     22  O         47.8580    7.2700  -50.9810 O.2   134  SER134     -0.2717
     23  CB        48.3410    9.0720  -48.8400 C.3   134  SER134      0.2103
     24  OG        49.0180    9.8560  -49.8310 O.3   134  SER134     -0.2182
     25  N         50.0660    6.7910  -50.7860 N.am  135  LYS135     -0.1979
     26  CA        50.2610    6.2910  -52.1570 C.3   135  LYS135      0.1596
     27  C         50.5580    4.8030  -52.1370 C.2   135  LYS135      0.2287
     28  O         50.8280    4.2260  -53.1710 O.2   135  LYS135     -0.2864
     29  CB        51.4080    7.0250  -52.8590 C.3   135  LYS135      0.0298
     30  CG        51.1600    8.5130  -53.0580 C.3   135  LYS135      0.0038
     31  CD        52.4180    9.2040  -53.5610 C.3   135  LYS135      0.0206
     32  CE        52.2600   10.7160  -53.5950 C.3   135  LYS135      0.1093
     33  NZ        53.5580   11.4040  -53.8500 N.3   135  LYS135     -0.1314
     34  N         46.9200   23.1310  -47.5330 N.3   196  TYR196     -0.1241
     35  CA        47.4730   21.7950  -47.3360 C.3   196  TYR196      0.1605
     36  C         46.3640   20.7650  -47.0550 C.2   196  TYR196      0.2264
     37  O         46.3380   19.6670  -47.6540 O.2   196  TYR196     -0.2867
     38  CB        48.5170   21.7780  -46.2190 C.3   196  TYR196      0.0534
     39  CG        49.1820   20.4540  -46.1100 C.ar  196  TYR196     -0.0201
     40  CD1       50.1300   20.0480  -47.0660 C.ar  196  TYR196     -0.0009
     41  CD2       48.8520   19.5610  -45.0830 C.ar  196  TYR196     -0.0009
     42  CE1       50.7290   18.8120  -46.9840 C.ar  196  TYR196      0.0417
     43  CE2       49.4590   18.3120  -45.0010 C.ar  196  TYR196      0.0417
     44  CZ        50.3940   17.9480  -45.9430 C.ar  196  TYR196      0.1957
     45  OH        50.9870   16.6960  -45.8680 O.3   196  TYR196     -0.2866
     46  N         44.3840   19.7030  -50.1300 N.3   199  LYS199     -0.1231
     47  CA        45.0650   18.7300  -51.0110 C.3   199  LYS199      0.1693
     48  C         44.6990   17.3000  -50.5870 C.2   199  LYS199      0.2592
     49  O         44.4480   16.4380  -51.4380 O.2   199  LYS199     -0.2718
     50  CB        46.5910   18.9020  -50.9890 C.3   199  LYS199      0.0285
     51  CG        47.1400   20.2540  -51.4300 C.3   199  LYS199      0.0035
     52  CD        46.9090   20.5720  -52.8920 C.3   199  LYS199      0.0206
     53  CE        47.5960   21.8810  -53.2750 C.3   199  LYS199      0.1093
     54  NZ        47.1650   22.3410  -54.6320 N.3   199  LYS199     -0.1314
     55  N         44.6740   17.0420  -49.2750 N.am  200  TRP200     -0.1976
     56  CA        44.2800   15.7140  -48.7830 C.3   200  TRP200      0.1640
     57  C         42.8180   15.4170  -49.1280 C.2   200  TRP200      0.2290
     58  O         42.5070   14.3480  -49.6620 O.2   200  TRP200     -0.2864
     59  CB        44.5280   15.5720  -47.2820 C.3   200  TRP200      0.0576
     60  CG        45.9850   15.3200  -46.9460 C.ar  200  TRP200      0.0006
     61  CD1       46.9720   16.2620  -46.7480 C.ar  200  TRP200      0.0946
     62  CD2       46.6090   14.0390  -46.7600 C.ar  200  TRP200      0.0152
     63  NE1       48.1700   15.6320  -46.4660 N.ar  200  TRP200     -0.2442
     64  CE2       47.9730   14.2730  -46.4680 C.ar  200  TRP200      0.0810
     65  CE3       46.1500   12.7150  -46.8300 C.ar  200  TRP200      0.0012
     66  CZ2       48.8810   13.2280  -46.2330 C.ar  200  TRP200      0.0191
     67  CZ3       47.0460   11.6850  -46.6050 C.ar  200  TRP200      0.0001
     68  CH2       48.4020   11.9550  -46.2930 C.ar  200  TRP200      0.0015
     69  N         42.6640   15.3730  -53.3300 N.3   203  ASP203     -0.1225
     70  CA        43.5220   14.4400  -54.0850 C.3   203  ASP203      0.1805
     71  C         43.7110   13.0460  -53.5200 C.2   203  ASP203      0.2597
     72  O         44.1370   12.1530  -54.2490 O.2   203  ASP203     -0.2718
     73  CB        44.9340   15.0210  -54.2290 C.3   203  ASP203      0.1424
     74  CG        44.9550   16.3800  -54.8850 C.2   203  ASP203      0.3668
     75  OD1       43.9640   16.7840  -55.5000 O.co2 203  ASP203     -0.2456
     76  OD2       45.9930   17.0460  -54.7820 O.co2 203  ASP203     -0.2456
     77  N         43.4210   12.8380  -52.2520 N.am  204  VAL204     -0.1980
     78  CA        43.7390   11.5590  -51.6210 C.3   204  VAL204      0.1595
     79  C         42.5440   10.8490  -51.0040 C.2   204  VAL204      0.2287
     80  O         42.3030    9.6850  -51.2450 O.2   204  VAL204     -0.2864
     81  CB        44.7340   11.8170  -50.4540 C.3   204  VAL204      0.0276
     82  CG1       45.0200   10.5550  -49.6440 C.3   204  VAL204      0.0022
     83  CG2       46.0200   12.4410  -50.9610 C.3   204  VAL204      0.0022
     84  N         55.2570   19.8490  -43.1580 N.3   257  ASN257     -0.1240
     85  CA        56.1490   20.1340  -44.2770 C.3   257  ASN257      0.1653
     86  C         57.0260   21.3710  -44.1480 C.2   257  ASN257      0.2266
     87  O         58.0250   21.4850  -44.8610 O.2   257  ASN257     -0.2867
     88  CB        55.3580   20.2030  -45.6070 C.3   257  ASN257      0.1155
     89  CG        54.7990   18.8320  -46.0260 C.2   257  ASN257      0.2627
     90  OD1       54.9420   17.8170  -45.3050 O.2   257  ASN257     -0.2716
     91  ND2       54.1520   18.8080  -47.1740 N.am  257  ASN257     -0.0877
@<TRIPOS>BOND
     1    75    74   ar
     2    74    76   ar
     3    74    73    1
     4    54    53    1
     5    72    71    2
     6    73    70    1
     7    70    71    1
     8    70    69    1
     9    33    32    1
    10    32    31    1
    11    31    30    1
    12    71    77   am
    13    53    52    1
    14    28    27    2
    15    30    29    1
    16    52    51    1
    17    29    26    1
    18    77    78    1
    19    26    27    1
    20    26    25    1
    21    78    79    1
    22    78    81    1
    23    49    48    2
    24    51    50    1
    25    80    79    2
    26    47    50    1
    27    47    48    1
    28    47    46    1
    29    22    21    2
    30    83    81    1
    31    25    21   am
    32    48    55   am
    33    81    82    1
    34    21    20    1
    35    24    23    1
    36     9     8    1
    37    13    12    2
    38    58    57    2
    39    17    16   ar
    40    55    56    1
    41    57    56    1
    42    20    23    1
    43    20    19    1
    44    12    11    1
    45    56    59    1
    46    14    15    1
    47    14    11    1
    48    16    15    1
    49    16    18   ar
    50     8     7    1
    51    11    10    1
    52     7     6    1
    53    37    36    2
    54    34    35    1
    55    35    36    1
    56    35    38    1
    57    59    60    1
    58    91    89   am
    59    40    42   ar
    60    40    39   ar
    61    42    44   ar
    62     4     3    2
    63    60    62   ar
    64    60    61   ar
    65    65    62   ar
    66    65    67   ar
    67    62    64   ar
    68    61    63   ar
    69    67    68   ar
    70    64    63   ar
    71    64    66   ar
    72     6     5    1
    73    68    66   ar
    74    38    39    1
    75     5     2    1
    76    39    41   ar
    77    89    88    1
    78    89    90    2
    79     2     3    1
    80     2     1    1
    81    44    45    1
    82    44    43   ar
    83    88    85    1
    84    41    43   ar
    85    87    86    2
    86    85    86    1
    87    85    84    1
