@<TRIPOS>MOLECULE
tmp/5tu4A01.pdb
 156 149 0 0 0
SMALL
GASTEIGER

@<TRIPOS>ATOM
      1  N         39.1350   36.8450   -0.6310 N.3    51  GLU51      -0.1245
      2  CA        37.7340   36.6290   -0.9570 C.3    51  GLU51       0.1567
      3  C         36.9720   37.8970   -0.6080 C.2    51  GLU51       0.2260
      4  O         37.1680   38.4570    0.4740 O.2    51  GLU51      -0.2867
      5  CB        37.1710   35.4340   -0.1650 C.3    51  GLU51       0.0388
      6  CG        35.6750   35.1860   -0.3100 C.3    51  GLU51       0.1160
      7  CD        35.1510   34.1840    0.7210 C.2    51  GLU51       0.3649
      8  OE1       35.1870   32.9650    0.4620 O.co2  51  GLU51      -0.2457
      9  OE2       34.7160   34.6180    1.7960 O.co2  51  GLU51      -0.2457
     10  N         37.9660   37.7700    3.3090 N.3    67  LEU67      -0.1245
     11  CA        38.7040   36.6350    3.8500 C.3    67  LEU67       0.1561
     12  C         40.0620   36.5520    3.1740 C.2    67  LEU67       0.2260
     13  O         40.1600   36.7520    1.9650 O.2    67  LEU67      -0.2867
     14  CB        37.9370   35.3470    3.5880 C.3    67  LEU67       0.0270
     15  CG        37.9330   34.1940    4.5740 C.3    67  LEU67       0.0019
     16  CD1       37.4240   34.6530    5.9340 C.3    67  LEU67       0.0001
     17  CD2       37.0600   33.0910    3.9850 C.3    67  LEU67       0.0001
     18  N         43.0250   33.7470    2.3710 N.3    69  PHE69      -0.1241
     19  CA        43.4850   32.3600    2.3670 C.3    69  PHE69       0.1605
     20  C         45.0130   32.3450    2.3430 C.2    69  PHE69       0.2264
     21  O         45.6230   32.9650    1.4680 O.2    69  PHE69      -0.2867
     22  CB        42.9390   31.5970    1.1580 C.3    69  PHE69       0.0534
     23  CG        41.4530   31.3830    1.1960 C.ar   69  PHE69      -0.0203
     24  CD1       40.5810   32.3580    0.7340 C.ar   69  PHE69      -0.0042
     25  CD2       40.9260   30.2060    1.6940 C.ar   69  PHE69      -0.0042
     26  CE1       39.2080   32.1540    0.7680 C.ar   69  PHE69      -0.0003
     27  CE2       39.5530   29.9980    1.7350 C.ar   69  PHE69      -0.0003
     28  CZ        38.6950   30.9660    1.2720 C.ar   69  PHE69      -0.0000
     29  N         45.0400   21.5100    5.0980 N.3   118  THR118     -0.1203
     30  CA        45.2830   21.8470    3.7000 C.3   118  THR118      0.1994
     31  C         44.7690   23.2250    3.3020 C.2   118  THR118      0.2617
     32  O         45.1380   23.7040    2.2260 O.2   118  THR118     -0.2717
     33  CB        44.6560   20.8030    2.7560 C.3   118  THR118      0.1784
     34  OG1       43.2370   20.8190    2.9140 O.3   118  THR118     -0.2211
     35  CG2       45.1740   19.4120    3.0600 C.3   118  THR118      0.0376
     36  N         43.9260   23.8650    4.1190 N.am  119  VAL119     -0.1979
     37  CA        43.4370   25.2200    3.8680 C.3   119  VAL119      0.1595
     38  C         43.3080   25.9470    5.2060 C.2   119  VAL119      0.2287
     39  O         42.8670   25.3680    6.2060 O.2   119  VAL119     -0.2864
     40  CB        42.0870   25.2190    3.1120 C.3   119  VAL119      0.0276
     41  CG1       41.5200   26.6260    3.0100 C.3   119  VAL119      0.0022
     42  CG2       42.2470   24.6450    1.7070 C.3   119  VAL119      0.0022
     43  N         38.3010   29.4900    8.6640 N.3   138  HIS138     -0.1241
     44  CA        38.0220   28.1620    8.1320 C.3   138  HIS138      0.1621
     45  C         39.2930   27.3370    8.1960 C.2   138  HIS138      0.2264
     46  O         40.3860   27.8580    7.9560 O.2   138  HIS138     -0.2867
     47  CB        37.5340   28.2020    6.6830 C.3   138  HIS138      0.0745
     48  CG        36.3670   29.1050    6.4720 C.ar  138  HIS138      0.0817
     49  ND1       36.5070   30.4260    6.1040 N.ar  138  HIS138     -0.2268
     50  CD2       35.0390   28.8890    6.6080 C.ar  138  HIS138      0.1154
     51  CE1       35.3130   30.9780    6.0010 C.ar  138  HIS138      0.1986
     52  NE2       34.4060   30.0700    6.3070 N.ar  138  HIS138     -0.2212
     53  N         40.5310   23.4620    6.7480 N.3   140  ARG140     -0.1245
     54  CA        40.3050   22.2030    6.0460 C.3   140  ARG140      0.1563
     55  C         41.3460   21.1680    6.4720 C.2   140  ARG140      0.2260
     56  O         42.5500   21.4420    6.4450 O.2   140  ARG140     -0.2867
     57  CB        40.3640   22.3960    4.5370 C.3   140  ARG140      0.0307
     58  CG        40.0910   21.1220    3.7600 C.3   140  ARG140      0.0489
     59  CD        40.2430   21.3340    2.2660 C.3   140  ARG140      0.2205
     60  NE        40.0180   20.0660    1.6000 N.pl3 140  ARG140     -0.0865
     61  CZ        38.8190   19.6530    1.2250 C.cat 140  ARG140      0.5346
     62  NH1       37.7710   20.4400    1.4280 N.pl3 140  ARG140      0.1354
     63  NH2       38.6720   18.4710    0.6480 N.pl3 140  ARG140      0.1354
     64  N         35.9550   20.4280    5.8140 N.3   170  LEU170     -0.1245
     65  CA        36.0990   21.8480    6.1060 C.3   170  LEU170      0.1561
     66  C         35.3380   22.2170    7.3780 C.2   170  LEU170      0.2260
     67  O         34.1510   21.9000    7.5220 O.2   170  LEU170     -0.2867
     68  CB        35.6050   22.6810    4.9240 C.3   170  LEU170      0.0270
     69  CG        35.5690   24.1840    5.1720 C.3   170  LEU170      0.0019
     70  CD1       36.9930   24.7540    5.2120 C.3   170  LEU170      0.0001
     71  CD2       34.6950   24.8600    4.1160 C.3   170  LEU170      0.0001
     72  N         31.1930   17.7530    1.6000 N.3   188  GLU188     -0.1245
     73  CA        31.5720   18.1130    0.2390 C.3   188  GLU188      0.1567
     74  C         31.4770   16.9130   -0.6930 C.2   188  GLU188      0.2260
     75  O         31.5730   15.7610   -0.2670 O.2   188  GLU188     -0.2867
     76  CB        32.9920   18.6680    0.1670 C.3   188  GLU188      0.0388
     77  CG        34.0910   17.6750    0.4410 C.3   188  GLU188      0.1160
     78  CD        35.4590   18.3120    0.3540 C.2   188  GLU188      0.3649
     79  OE1       36.2890   17.8660   -0.4600 O.co2 188  GLU188     -0.2457
     80  OE2       35.7000   19.2770    1.1030 O.co2 188  GLU188     -0.2457
     81  N         33.1850   16.1850   -4.6210 N.3   190  GLN190     -0.1245
     82  CA        34.0120   16.7340   -5.6800 C.3   190  GLN190      0.1566
     83  C         33.4390   16.3630   -7.0500 C.2   190  GLN190      0.2260
     84  O         32.6930   15.3870   -7.2090 O.2   190  GLN190     -0.2867
     85  CB        35.4580   16.2520   -5.5390 C.3   190  GLN190      0.0367
     86  CG        36.4930   17.2740   -6.0050 C.3   190  GLN190      0.0905
     87  CD        37.8260   17.1630   -5.2770 C.2   190  GLN190      0.2608
     88  OE1       38.5270   18.1060   -5.0940 O.2   190  GLN190     -0.2717
     89  NE2       38.1820   16.0020   -4.8670 N.am  190  GLN190     -0.0878
     90  N         32.6230   21.5730   -7.4890 N.3   220  LEU220     -0.1245
     91  CA        32.6470   21.2620   -6.0690 C.3   220  LEU220      0.1561
     92  C         31.3130   21.6890   -5.4750 C.2   220  LEU220      0.2260
     93  O         30.6810   22.6350   -5.9590 O.2   220  LEU220     -0.2867
     94  CB        33.8230   21.9700   -5.3820 C.3   220  LEU220      0.0270
     95  CG        34.3670   21.4750   -4.0480 C.3   220  LEU220      0.0019
     96  CD1       34.8070   20.0300   -4.1500 C.3   220  LEU220      0.0001
     97  CD2       35.5390   22.3530   -3.6240 C.3   220  LEU220      0.0001
     98  N         29.2720   22.0080   -1.5140 N.3   222  PHE222     -0.1241
     99  CA        29.3420   21.9860   -0.0500 C.3   222  PHE222      0.1605
    100  C         27.9500   22.1500    0.5420 C.2   222  PHE222      0.2264
    101  O         27.0960   22.8170   -0.0480 O.2   222  PHE222     -0.2867
    102  CB        30.1850   23.1420    0.5630 C.3   222  PHE222      0.0534
    103  CG        31.6720   22.9890    0.4370 C.ar  222  PHE222     -0.0203
    104  CD1       32.2450   21.8820   -0.1450 C.ar  222  PHE222     -0.0042
    105  CD2       32.5020   23.9790    0.9300 C.ar  222  PHE222     -0.0042
    106  CE1       33.6240   21.7810   -0.2570 C.ar  222  PHE222     -0.0003
    107  CE2       33.8680   23.8730    0.8330 C.ar  222  PHE222     -0.0003
    108  CZ        34.4310   22.7660    0.2490 C.ar  222  PHE222     -0.0000
    109  N         30.6680   25.6870   -6.2540 N.3   237  HIS237     -0.1241
    110  CA        31.8870   26.3090   -6.7740 C.3   237  HIS237      0.1621
    111  C         31.7920   26.4090   -8.2900 C.2   237  HIS237      0.2264
    112  O         32.2930   25.5500   -9.0230 O.2   237  HIS237     -0.2867
    113  CB        33.1230   25.5210   -6.3720 C.3   237  HIS237      0.0745
    114  CG        34.3940   26.2720   -6.5860 C.ar  237  HIS237      0.0817
    115  ND1       35.6230   25.6540   -6.6850 N.ar  237  HIS237     -0.2268
    116  CD2       34.6300   27.6000   -6.6950 C.ar  237  HIS237      0.1154
    117  CE1       36.5620   26.5690   -6.8530 C.ar  237  HIS237      0.1986
    118  NE2       35.9870   27.7570   -6.8620 N.ar  237  HIS237     -0.2212
    119  N         32.0490   31.2250   -5.6960 N.3   271  TRP271     -0.1241
    120  CA        31.1680   30.3820   -4.9050 C.3   271  TRP271      0.1605
    121  C         29.8150   31.0570   -4.7880 C.2   271  TRP271      0.2264
    122  O         29.7100   32.2870   -4.7540 O.2   271  TRP271     -0.2867
    123  CB        31.7150   30.1030   -3.5000 C.3   271  TRP271      0.0550
    124  CG        32.7720   29.0110   -3.4110 C.ar  271  TRP271      0.0003
    125  CD1       34.1350   29.1740   -3.4520 C.ar  271  TRP271      0.0946
    126  CD2       32.5420   27.6020   -3.2280 C.ar  271  TRP271      0.0152
    127  NE1       34.7620   27.9530   -3.3110 N.ar  271  TRP271     -0.2442
    128  CE2       33.8100   26.9740   -3.1750 C.ar  271  TRP271      0.0810
    129  CE3       31.3910   26.8110   -3.1250 C.ar  271  TRP271      0.0012
    130  CZ2       33.9560   25.5950   -3.0090 C.ar  271  TRP271      0.0191
    131  CZ3       31.5380   25.4360   -2.9630 C.ar  271  TRP271      0.0001
    132  CH2       32.8100   24.8430   -2.9100 C.ar  271  TRP271      0.0015
    133  N         30.4720   34.9970   -3.6550 N.3   290  TYR290     -0.1241
    134  CA        31.8670   35.1070   -3.2350 C.3   290  TYR290      0.1605
    135  C         32.7510   35.1990   -4.4650 C.2   290  TYR290      0.2264
    136  O         32.6400   34.3550   -5.3540 O.2   290  TYR290     -0.2867
    137  CB        32.3090   33.9040   -2.3990 C.3   290  TYR290      0.0534
    138  CG        31.3930   33.4950   -1.2720 C.ar  290  TYR290     -0.0201
    139  CD1       30.2080   32.8100   -1.5200 C.ar  290  TYR290     -0.0009
    140  CD2       31.7340   33.7710    0.0480 C.ar  290  TYR290     -0.0009
    141  CE1       29.3870   32.4190   -0.4930 C.ar  290  TYR290      0.0417
    142  CE2       30.9210   33.3890    1.0850 C.ar  290  TYR290      0.0417
    143  CZ        29.7520   32.7110    0.8160 C.ar  290  TYR290      0.1957
    144  OH        28.9520   32.3330    1.8670 O.3   290  TYR290     -0.2866
    145  N         36.9870   36.1810   -5.8870 N.3   292  TYR292     -0.1241
    146  CA        38.3480   35.8500   -5.4620 C.3   292  TYR292      0.1605
    147  C         39.3810   36.4780   -6.3780 C.2   292  TYR292      0.2264
    148  O         39.1490   36.6710   -7.5710 O.2   292  TYR292     -0.2867
    149  CB        38.6050   34.3220   -5.4410 C.3   292  TYR292      0.0534
    150  CG        37.6340   33.6260   -4.5370 C.ar  292  TYR292     -0.0201
    151  CD1       36.4060   33.2000   -5.0140 C.ar  292  TYR292     -0.0009
    152  CD2       37.9190   33.4520   -3.1840 C.ar  292  TYR292     -0.0009
    153  CE1       35.4870   32.5950   -4.1770 C.ar  292  TYR292      0.0417
    154  CE2       37.0130   32.8310   -2.3360 C.ar  292  TYR292      0.0417
    155  CZ        35.7880   32.4160   -2.8420 C.ar  292  TYR292      0.1957
    156  OH        34.8790   31.8210   -2.0130 O.3   292  TYR292     -0.2866
@<TRIPOS>BOND
     1   112   111    2
     2   111   110    1
     3   148   147    2
     4    90    91    1
     5    84    83    2
     6    83    82    1
     7   118   117   ar
     8   118   116   ar
     9   117   115   ar
    10   110   113    1
    11   110   109    1
    12   116   114   ar
    13   115   114   ar
    14   114   113    1
    15   147   146    1
    16    91    92    1
    17    91    94    1
    18    86    85    1
    19    86    87    1
    20    93    92    2
    21   145   146    1
    22   119   120    1
    23    82    85    1
    24    82    81    1
    25   146   149    1
    26   149   150    1
    27    94    95    1
    28   136   135    2
    29    87    88    2
    30    87    89   am
    31   151   150   ar
    32   151   153   ar
    33   120   121    1
    34   120   123    1
    35   121   122    2
    36   150   152   ar
    37   135   134    1
    38   153   155   ar
    39    96    95    1
    40    95    97    1
    41   133   134    1
    42   123   124    1
    43   125   124   ar
    44   125   127   ar
    45   124   126   ar
    46   127   128   ar
    47   134   137    1
    48   126   128   ar
    49   126   129   ar
    50   152   154   ar
    51   128   130   ar
    52   129   131   ar
    53   130   132   ar
    54   131   132   ar
    55   155   154   ar
    56   155   156    1
    57   137   138    1
    58   139   138   ar
    59   139   141   ar
    60    98    99    1
    61   138   140   ar
    62     2     1    1
    63     2     3    1
    64     2     5    1
    65    74    75    2
    66    74    73    1
    67     3     4    2
    68   141   143   ar
    69    79    78   ar
    70     6     5    1
    71     6     7    1
    72   106   104   ar
    73   106   108   ar
    74   104   103   ar
    75    99   100    1
    76    99   102    1
    77   101   100    2
    78   140   142   ar
    79    76    73    1
    80    76    77    1
    81    73    72    1
    82   108   107   ar
    83    78    77    1
    84    78    80   ar
    85   103   102    1
    86   103   105   ar
    87     8     7   ar
    88    63    61    1
    89     7     9   ar
    90    24    26   ar
    91    24    23   ar
    92    26    28   ar
    93   143   142   ar
    94   143   144    1
    95   107   105   ar
    96    22    23    1
    97    22    19    1
    98    23    25   ar
    99    61    62    1
   100    61    60    2
   101    28    27   ar
   102    21    20    2
   103    60    59    1
   104    25    27   ar
   105    42    40    1
   106    13    12    2
   107    32    31    2
   108    59    58    1
   109    20    19    1
   110    19    18    1
   111    33    34    1
   112    33    35    1
   113    33    30    1
   114    41    40    1
   115    40    37    1
   116    12    11    1
   117    31    30    1
   118    31    36   am
   119    10    11    1
   120    14    11    1
   121    14    15    1
   122    30    29    1
   123    58    57    1
   124    37    36    1
   125    37    38    1
   126    17    15    1
   127    71    69    1
   128    57    54    1
   129    15    16    1
   130    68    69    1
   131    68    65    1
   132    69    70    1
   133    38    39    2
   134    64    65    1
   135    51    49   ar
   136    51    52   ar
   137    54    55    1
   138    54    53    1
   139    49    48   ar
   140    65    66    1
   141    52    50   ar
   142    56    55    2
   143    48    50   ar
   144    48    47    1
   145    47    44    1
   146    66    67    2
   147    46    45    2
   148    44    45    1
   149    44    43    1
