@<TRIPOS>MOLECULE
tmp/5tu4A00.pdb
 156 149 0 0 0
SMALL
GASTEIGER

@<TRIPOS>ATOM
      1  N         39.1350   36.8450   -0.6310 N.3    51  GLU51      -0.1245
      2  CA        37.7340   36.6290   -0.9570 C.3    51  GLU51       0.1567
      3  C         36.9720   37.8970   -0.6080 C.2    51  GLU51       0.2260
      4  O         37.1680   38.4570    0.4740 O.2    51  GLU51      -0.2867
      5  CB        37.1710   35.4340   -0.1650 C.3    51  GLU51       0.0388
      6  CG        35.6750   35.1860   -0.3100 C.3    51  GLU51       0.1160
      7  CD        35.1510   34.1840    0.7210 C.2    51  GLU51       0.3649
      8  OE1       35.1870   32.9650    0.4620 O.co2  51  GLU51      -0.2457
      9  OE2       34.7160   34.6180    1.7960 O.co2  51  GLU51      -0.2457
     10  N         26.3640   39.1190    1.0990 N.3    55  LYS55      -0.1245
     11  CA        25.2120   38.3610    1.5650 C.3    55  LYS55       0.1561
     12  C         23.9750   39.2020    1.2470 C.2    55  LYS55       0.2260
     13  O         23.9020   40.3740    1.6340 O.2    55  LYS55      -0.2867
     14  CB        25.3500   38.0640    3.0610 C.3    55  LYS55       0.0271
     15  CG        24.3200   37.1360    3.6330 C.3    55  LYS55       0.0035
     16  CD        24.5180   36.9410    5.1430 C.3    55  LYS55       0.0206
     17  CE        23.4310   36.0230    5.7190 C.3    55  LYS55       0.1093
     18  NZ        23.7240   35.5250    7.1080 N.3    55  LYS55      -0.1314
     19  N         32.4110   41.8810    3.8430 N.3    65  ARG65      -0.1245
     20  CA        32.8050   40.5000    4.1040 C.3    65  ARG65       0.1563
     21  C         34.0490   40.2050    3.2820 C.2    65  ARG65       0.2260
     22  O         33.9990   40.2450    2.0450 O.2    65  ARG65      -0.2867
     23  CB        31.7110   39.4910    3.7310 C.3    65  ARG65       0.0307
     24  CG        30.2660   39.8450    4.0220 C.3    65  ARG65       0.0489
     25  CD        29.3460   38.7180    3.4520 C.3    65  ARG65       0.2205
     26  NE        29.1040   37.7480    4.5030 N.pl3  65  ARG65      -0.0865
     27  CZ        29.1040   36.4360    4.3490 C.cat  65  ARG65       0.5346
     28  NH1       29.3500   35.8900    3.1640 N.pl3  65  ARG65       0.1354
     29  NH2       28.8790   35.6720    5.4030 N.pl3  65  ARG65       0.1354
     30  N         37.9660   37.7700    3.3090 N.3    67  LEU67      -0.1245
     31  CA        38.7040   36.6350    3.8500 C.3    67  LEU67       0.1561
     32  C         40.0620   36.5520    3.1740 C.2    67  LEU67       0.2260
     33  O         40.1600   36.7520    1.9650 O.2    67  LEU67      -0.2867
     34  CB        37.9370   35.3470    3.5880 C.3    67  LEU67       0.0270
     35  CG        37.9330   34.1940    4.5740 C.3    67  LEU67       0.0019
     36  CD1       37.4240   34.6530    5.9340 C.3    67  LEU67       0.0001
     37  CD2       37.0600   33.0910    3.9850 C.3    67  LEU67       0.0001
     38  N         36.1800   35.5570   11.3410 N.3   136  LYS136     -0.1245
     39  CA        35.9240   34.2780   10.6850 C.3   136  LYS136      0.1561
     40  C         37.2140   33.4990   10.4960 C.2   136  LYS136      0.2260
     41  O         38.2630   34.0870   10.2160 O.2   136  LYS136     -0.2867
     42  CB        35.2680   34.4890    9.3310 C.3   136  LYS136      0.0271
     43  CG        33.7840   34.8110    9.4070 C.3   136  LYS136      0.0035
     44  CD        33.3860   35.6820    8.2270 C.3   136  LYS136      0.0206
     45  CE        32.7130   34.8960    7.1280 C.3   136  LYS136      0.1093
     46  NZ        33.6050   33.9190    6.4950 N.3   136  LYS136     -0.1314
     47  N         38.3010   29.4900    8.6640 N.3   138  HIS138     -0.1241
     48  CA        38.0220   28.1620    8.1320 C.3   138  HIS138      0.1621
     49  C         39.2930   27.3370    8.1960 C.2   138  HIS138      0.2264
     50  O         40.3860   27.8580    7.9560 O.2   138  HIS138     -0.2867
     51  CB        37.5340   28.2020    6.6830 C.3   138  HIS138      0.0745
     52  CG        36.3670   29.1050    6.4720 C.ar  138  HIS138      0.0817
     53  ND1       36.5070   30.4260    6.1040 N.ar  138  HIS138     -0.2268
     54  CD2       35.0390   28.8890    6.6080 C.ar  138  HIS138      0.1154
     55  CE1       35.3130   30.9780    6.0010 C.ar  138  HIS138      0.1986
     56  NE2       34.4060   30.0700    6.3070 N.ar  138  HIS138     -0.2212
     57  N         35.9550   20.4280    5.8140 N.3   170  LEU170     -0.1245
     58  CA        36.0990   21.8480    6.1060 C.3   170  LEU170      0.1561
     59  C         35.3380   22.2170    7.3780 C.2   170  LEU170      0.2260
     60  O         34.1510   21.9000    7.5220 O.2   170  LEU170     -0.2867
     61  CB        35.6050   22.6810    4.9240 C.3   170  LEU170      0.0270
     62  CG        35.5690   24.1840    5.1720 C.3   170  LEU170      0.0019
     63  CD1       36.9930   24.7540    5.2120 C.3   170  LEU170      0.0001
     64  CD2       34.6950   24.8600    4.1160 C.3   170  LEU170      0.0001
     65  N         32.8200   31.0390   13.4680 N.3   174  ASP174     -0.1239
     66  CA        32.4220   32.4470   13.5260 C.3   174  ASP174      0.1674
     67  C         32.6030   32.9680   14.9460 C.2   174  ASP174      0.2266
     68  O         32.2460   32.2910   15.9170 O.2   174  ASP174     -0.2867
     69  CB        30.9720   32.6580   13.0910 C.3   174  ASP174      0.1410
     70  CG        30.7000   32.1380   11.6880 C.2   174  ASP174      0.3668
     71  OD1       31.4490   32.4950   10.7580 O.co2 174  ASP174     -0.2456
     72  OD2       29.7350   31.3640   11.5160 O.co2 174  ASP174     -0.2456
     73  N         31.1220   21.1690    7.1070 N.3   186  TYR186     -0.1241
     74  CA        30.6480   21.1860    5.7250 C.3   186  TYR186      0.1605
     75  C         30.9300   19.8400    5.0650 C.2   186  TYR186      0.2264
     76  O         32.0850   19.4010    4.9990 O.2   186  TYR186     -0.2867
     77  CB        31.3160   22.3150    4.9300 C.3   186  TYR186      0.0534
     78  CG        31.0590   23.6980    5.4950 C.ar  186  TYR186     -0.0201
     79  CD1       29.9610   24.4490    5.0800 C.ar  186  TYR186     -0.0009
     80  CD2       31.9150   24.2550    6.4380 C.ar  186  TYR186     -0.0009
     81  CE1       29.7200   25.7230    5.6000 C.ar  186  TYR186      0.0417
     82  CE2       31.6900   25.5310    6.9590 C.ar  186  TYR186      0.0417
     83  CZ        30.5880   26.2540    6.5400 C.ar  186  TYR186      0.1957
     84  OH        30.3560   27.5140    7.0560 O.3   186  TYR186     -0.2866
     85  N         29.2720   22.0080   -1.5140 N.3   222  PHE222     -0.1241
     86  CA        29.3420   21.9860   -0.0500 C.3   222  PHE222      0.1605
     87  C         27.9500   22.1500    0.5420 C.2   222  PHE222      0.2264
     88  O         27.0960   22.8170   -0.0480 O.2   222  PHE222     -0.2867
     89  CB        30.1850   23.1420    0.5630 C.3   222  PHE222      0.0534
     90  CG        31.6720   22.9890    0.4370 C.ar  222  PHE222     -0.0203
     91  CD1       32.2450   21.8820   -0.1450 C.ar  222  PHE222     -0.0042
     92  CD2       32.5020   23.9790    0.9300 C.ar  222  PHE222     -0.0042
     93  CE1       33.6240   21.7810   -0.2570 C.ar  222  PHE222     -0.0003
     94  CE2       33.8680   23.8730    0.8330 C.ar  222  PHE222     -0.0003
     95  CZ        34.4310   22.7660    0.2490 C.ar  222  PHE222     -0.0000
     96  N         26.2370   25.2160   -1.2310 N.3   235  TYR235     -0.1241
     97  CA        27.3250   25.9990   -1.8070 C.3   235  TYR235      0.1605
     98  C         27.8190   25.3390   -3.0900 C.2   235  TYR235      0.2264
     99  O         28.0510   24.1270   -3.1210 O.2   235  TYR235     -0.2867
    100  CB        28.4760   26.1470   -0.8060 C.3   235  TYR235      0.0534
    101  CG        28.1010   26.8510    0.4810 C.ar  235  TYR235     -0.0201
    102  CD1       28.2550   28.2250    0.6140 C.ar  235  TYR235     -0.0009
    103  CD2       27.5960   26.1410    1.5670 C.ar  235  TYR235     -0.0009
    104  CE1       27.9200   28.8700    1.7830 C.ar  235  TYR235      0.0417
    105  CE2       27.2590   26.7830    2.7490 C.ar  235  TYR235      0.0417
    106  CZ        27.4250   28.1490    2.8480 C.ar  235  TYR235      0.1957
    107  OH        27.1040   28.8000    4.0180 O.3   235  TYR235     -0.2866
    108  N         32.0490   31.2250   -5.6960 N.3   271  TRP271     -0.1241
    109  CA        31.1680   30.3820   -4.9050 C.3   271  TRP271      0.1605
    110  C         29.8150   31.0570   -4.7880 C.2   271  TRP271      0.2264
    111  O         29.7100   32.2870   -4.7540 O.2   271  TRP271     -0.2867
    112  CB        31.7150   30.1030   -3.5000 C.3   271  TRP271      0.0550
    113  CG        32.7720   29.0110   -3.4110 C.ar  271  TRP271      0.0003
    114  CD1       34.1350   29.1740   -3.4520 C.ar  271  TRP271      0.0946
    115  CD2       32.5420   27.6020   -3.2280 C.ar  271  TRP271      0.0152
    116  NE1       34.7620   27.9530   -3.3110 N.ar  271  TRP271     -0.2442
    117  CE2       33.8100   26.9740   -3.1750 C.ar  271  TRP271      0.0810
    118  CE3       31.3910   26.8110   -3.1250 C.ar  271  TRP271      0.0012
    119  CZ2       33.9560   25.5950   -3.0090 C.ar  271  TRP271      0.0191
    120  CZ3       31.5380   25.4360   -2.9630 C.ar  271  TRP271      0.0001
    121  CH2       32.8100   24.8430   -2.9100 C.ar  271  TRP271      0.0015
    122  N         24.3010   34.2410   -1.1230 N.3   288  ARG288     -0.1245
    123  CA        25.6360   34.7160   -0.7680 C.3   288  ARG288      0.1563
    124  C         26.5360   34.5080   -1.9720 C.2   288  ARG288      0.2260
    125  O         26.5810   33.3980   -2.5230 O.2   288  ARG288     -0.2867
    126  CB        26.2170   33.9610    0.4300 C.3   288  ARG288      0.0307
    127  CG        25.3640   33.9250    1.6960 C.3   288  ARG288      0.0489
    128  CD        25.2410   32.4770    2.1880 C.3   288  ARG288      0.2205
    129  NE        25.0020   32.3860    3.6270 N.pl3 288  ARG288     -0.0865
    130  CZ        23.8060   32.1920    4.1740 C.cat 288  ARG288      0.5346
    131  NH1       22.7280   32.0860    3.4030 N.pl3 288  ARG288      0.1354
    132  NH2       23.6890   32.1280    5.4930 N.pl3 288  ARG288      0.1354
    133  N         30.4720   34.9970   -3.6550 N.3   290  TYR290     -0.1241
    134  CA        31.8670   35.1070   -3.2350 C.3   290  TYR290      0.1605
    135  C         32.7510   35.1990   -4.4650 C.2   290  TYR290      0.2264
    136  O         32.6400   34.3550   -5.3540 O.2   290  TYR290     -0.2867
    137  CB        32.3090   33.9040   -2.3990 C.3   290  TYR290      0.0534
    138  CG        31.3930   33.4950   -1.2720 C.ar  290  TYR290     -0.0201
    139  CD1       30.2080   32.8100   -1.5200 C.ar  290  TYR290     -0.0009
    140  CD2       31.7340   33.7710    0.0480 C.ar  290  TYR290     -0.0009
    141  CE1       29.3870   32.4190   -0.4930 C.ar  290  TYR290      0.0417
    142  CE2       30.9210   33.3890    1.0850 C.ar  290  TYR290      0.0417
    143  CZ        29.7520   32.7110    0.8160 C.ar  290  TYR290      0.1957
    144  OH        28.9520   32.3330    1.8670 O.3   290  TYR290     -0.2866
    145  N         36.9870   36.1810   -5.8870 N.3   292  TYR292     -0.1241
    146  CA        38.3480   35.8500   -5.4620 C.3   292  TYR292      0.1605
    147  C         39.3810   36.4780   -6.3780 C.2   292  TYR292      0.2264
    148  O         39.1490   36.6710   -7.5710 O.2   292  TYR292     -0.2867
    149  CB        38.6050   34.3220   -5.4410 C.3   292  TYR292      0.0534
    150  CG        37.6340   33.6260   -4.5370 C.ar  292  TYR292     -0.0201
    151  CD1       36.4060   33.2000   -5.0140 C.ar  292  TYR292     -0.0009
    152  CD2       37.9190   33.4520   -3.1840 C.ar  292  TYR292     -0.0009
    153  CE1       35.4870   32.5950   -4.1770 C.ar  292  TYR292      0.0417
    154  CE2       37.0130   32.8310   -2.3360 C.ar  292  TYR292      0.0417
    155  CZ        35.7880   32.4160   -2.8420 C.ar  292  TYR292      0.1957
    156  OH        34.8790   31.8210   -2.0130 O.3   292  TYR292     -0.2866
@<TRIPOS>BOND
     1   148   147    2
     2   147   146    1
     3   145   146    1
     4   108   109    1
     5   146   149    1
     6   149   150    1
     7   136   135    2
     8   151   150   ar
     9   151   153   ar
    10   109   110    1
    11   109   112    1
    12   110   111    2
    13   150   152   ar
    14   135   134    1
    15   153   155   ar
    16   133   134    1
    17   112   113    1
    18   114   113   ar
    19   114   116   ar
    20   113   115   ar
    21   116   117   ar
    22   134   137    1
    23   115   117   ar
    24   115   118   ar
    25   152   154   ar
    26   117   119   ar
    27   118   120   ar
    28    99    98    2
    29    98    97    1
    30   119   121   ar
    31   120   121   ar
    32   155   154   ar
    33   155   156    1
    34   125   124    2
    35   137   138    1
    36   124   123    1
    37    97    96    1
    38    97   100    1
    39   139   138   ar
    40   139   141   ar
    41    85    86    1
    42   138   140   ar
    43   122   123    1
    44     2     1    1
    45     2     3    1
    46     2     5    1
    47   100   101    1
    48   123   126    1
    49     3     4    2
    50   141   143   ar
    51     6     5    1
    52     6     7    1
    53    93    91   ar
    54    93    95   ar
    55    91    90   ar
    56    86    87    1
    57    86    89    1
    58    88    87    2
    59   140   142   ar
    60    95    94   ar
    61   126   127    1
    62    90    89    1
    63    90    92   ar
    64     8     7   ar
    65   101   102   ar
    66   101   103   ar
    67   102   104   ar
    68     7     9   ar
    69   143   142   ar
    70   143   144    1
    71    94    92   ar
    72    10    11    1
    73    12    11    1
    74    12    13    2
    75    11    14    1
    76   103   105   ar
    77   127   128    1
    78   104   106   ar
    79    33    32    2
    80    22    21    2
    81   128   129    1
    82   105   106   ar
    83   106   107    1
    84    14    15    1
    85    28    27    1
    86    32    31    1
    87    21    20    1
    88    30    31    1
    89   131   130    1
    90    25    24    1
    91    25    26    1
    92    34    31    1
    93    34    35    1
    94   129   130    2
    95    15    16    1
    96    23    24    1
    97    23    20    1
    98    19    20    1
    99    37    35    1
   100    64    62    1
   101   130   132    1
   102    27    26    2
   103    27    29    1
   104    35    36    1
   105    61    62    1
   106    61    58    1
   107    77    78    1
   108    77    74    1
   109    76    75    2
   110    75    74    1
   111    79    78   ar
   112    79    81   ar
   113    16    17    1
   114    62    63    1
   115    78    80   ar
   116    81    83   ar
   117    17    18    1
   118    74    73    1
   119    57    58    1
   120    55    53   ar
   121    55    56   ar
   122    53    52   ar
   123    58    59    1
   124    56    54   ar
   125    80    82   ar
   126    52    54   ar
   127    52    51    1
   128    46    45    1
   129    83    82   ar
   130    83    84    1
   131    51    48    1
   132    45    44    1
   133    59    60    2
   134    50    49    2
   135    48    49    1
   136    48    47    1
   137    44    43    1
   138    42    43    1
   139    42    39    1
   140    41    40    2
   141    40    39    1
   142    39    38    1
   143    71    70   ar
   144    72    70   ar
   145    70    69    1
   146    69    66    1
   147    65    66    1
   148    66    67    1
   149    67    68    2
