@<TRIPOS>MOLECULE
tmp/5tufB01.pdb
 202 192 0 0 0
SMALL
GASTEIGER

@<TRIPOS>ATOM
      1  N         14.2850   65.5710   63.8830 N.3    40  GLN40      -0.1231
      2  CA        14.3380   66.2260   62.5830 C.3    40  GLN40       0.1698
      3  C         12.9560   66.1650   61.9390 C.2    40  GLN40       0.2592
      4  O         12.0290   65.5810   62.5000 O.2    40  GLN40      -0.2718
      5  CB        15.3890   65.5630   61.6850 C.3    40  GLN40       0.0381
      6  CG        15.8500   66.4210   60.5100 C.3    40  GLN40       0.0905
      7  CD        17.0800   65.8620   59.8220 C.2    40  GLN40       0.2608
      8  OE1       16.9910   64.9090   59.0440 O.2    40  GLN40      -0.2717
      9  NE2       18.2370   66.4530   60.1040 N.am   40  GLN40      -0.0878
     10  N         12.8180   66.7770   60.7690 N.am   41  ALA41      -0.1980
     11  CA        11.5630   66.7430   60.0310 C.3    41  ALA41       0.1597
     12  C         11.1490   65.3150   59.6910 C.2    41  ALA41       0.2287
     13  O         11.9590   64.5210   59.2160 O.2    41  ALA41      -0.2864
     14  CB        11.6790   67.5670   58.7640 C.3    41  ALA41       0.0319
     15  N         22.8650   70.9180   46.9310 N.3    73  TYR73      -0.1241
     16  CA        23.9070   69.8990   47.0270 C.3    73  TYR73       0.1605
     17  C         25.2780   70.4830   46.6950 C.2    73  TYR73       0.2264
     18  O         25.4700   71.0500   45.6180 O.2    73  TYR73      -0.2867
     19  CB        23.6040   68.7300   46.0870 C.3    73  TYR73       0.0534
     20  CG        22.3980   67.9040   46.4810 C.ar   73  TYR73      -0.0201
     21  CD1       21.1100   68.3290   46.1800 C.ar   73  TYR73      -0.0009
     22  CD2       22.5490   66.6910   47.1380 C.ar   73  TYR73      -0.0009
     23  CE1       20.0080   67.5710   46.5300 C.ar   73  TYR73       0.0417
     24  CE2       21.4530   65.9280   47.4930 C.ar   73  TYR73       0.0417
     25  CZ        20.1850   66.3730   47.1870 C.ar   73  TYR73       0.1957
     26  OH        19.0900   65.6180   47.5390 O.3    73  TYR73      -0.2866
     27  N         23.3480   57.5710   62.7260 N.3   177  VAL177     -0.1231
     28  CA        22.6920   58.8330   62.4240 C.3   177  VAL177      0.1692
     29  C         22.8530   59.7670   63.6170 C.2   177  VAL177      0.2593
     30  O         22.9080   59.3190   64.7630 O.2   177  VAL177     -0.2718
     31  CB        21.1940   58.6390   62.0990 C.3   177  VAL177      0.0266
     32  CG1       20.4570   58.0340   63.2880 C.3   177  VAL177      0.0020
     33  CG2       20.5590   59.9600   61.6790 C.3   177  VAL177      0.0020
     34  N         22.9410   61.0630   63.3450 N.am  178  SER178     -0.1938
     35  CA        23.0410   62.0480   64.4110 C.3   178  SER178      0.2055
     36  C         22.4820   63.3930   63.9760 C.2   178  SER178      0.2642
     37  O         22.5380   63.7500   62.8000 O.2   178  SER178     -0.2714
     38  CB        24.4920   62.2120   64.8590 C.3   178  SER178      0.2130
     39  OG        24.5900   63.1820   65.8850 O.3   178  SER178     -0.2179
     40  N         21.9440   64.1340   64.9380 N.am  179  ALA179     -0.1977
     41  CA        21.4040   65.4600   64.6780 C.3   179  ALA179      0.1597
     42  C         21.4820   66.3290   65.9260 C.2   179  ALA179      0.2287
     43  O         21.4510   65.8290   67.0500 O.2   179  ALA179     -0.2864
     44  CB        19.9670   65.3630   64.1970 C.3   179  ALA179      0.0319
     45  N         18.3420   74.1130   52.7870 N.3   192  GLU192     -0.1245
     46  CA        19.1060   72.9750   53.2760 C.3   192  GLU192      0.1567
     47  C         20.3440   72.7830   52.4160 C.2   192  GLU192      0.2260
     48  O         20.2600   72.7820   51.1860 O.2   192  GLU192     -0.2867
     49  CB        18.2600   71.7020   53.2650 C.3   192  GLU192      0.0388
     50  CG        18.9810   70.4780   53.8200 C.3   192  GLU192      0.1160
     51  CD        18.1320   69.2230   53.7590 C.2   192  GLU192      0.3649
     52  OE1       17.1220   69.2180   53.0220 O.co2 192  GLU192     -0.2457
     53  OE2       18.4740   68.2380   54.4470 O.co2 192  GLU192     -0.2457
     54  N         23.4820   70.1260   51.5630 N.3   194  LEU194     -0.1245
     55  CA        23.7420   68.6950   51.6270 C.3   194  LEU194      0.1561
     56  C         25.0880   68.3760   50.9940 C.2   194  LEU194      0.2260
     57  O         25.3160   68.6790   49.8230 O.2   194  LEU194     -0.2867
     58  CB        22.6300   67.9120   50.9260 C.3   194  LEU194      0.0270
     59  CG        21.2070   68.1960   51.4160 C.3   194  LEU194      0.0019
     60  CD1       20.5430   69.2720   50.5660 C.3   194  LEU194      0.0001
     61  CD2       20.3780   66.9260   51.4220 C.3   194  LEU194      0.0001
     62  N         28.0680   65.2830   50.3980 N.3   196  GLU196     -0.1245
     63  CA        28.1190   63.8400   50.2280 C.3   196  GLU196      0.1567
     64  C         29.5300   63.4180   49.8380 C.2   196  GLU196      0.2260
     65  O         30.0510   63.8670   48.8190 O.2   196  GLU196     -0.2867
     66  CB        27.1020   63.4260   49.1630 C.3   196  GLU196      0.0388
     67  CG        26.9930   61.9440   48.8990 C.3   196  GLU196      0.1160
     68  CD        25.9510   61.6240   47.8390 C.2   196  GLU196      0.3649
     69  OE1       24.8650   62.2460   47.8650 O.co2 196  GLU196     -0.2457
     70  OE2       26.2170   60.7540   46.9820 O.co2 196  GLU196     -0.2457
     71  N         27.3380   61.4740   55.0490 N.3   201  LEU201     -0.1245
     72  CA        26.4080   62.5250   54.6460 C.3   201  LEU201      0.1561
     73  C         26.2630   63.5720   55.7400 C.2   201  LEU201      0.2260
     74  O         25.9960   63.2380   56.8950 O.2   201  LEU201     -0.2867
     75  CB        25.0370   61.9340   54.3170 C.3   201  LEU201      0.0270
     76  CG        24.9750   60.9600   53.1410 C.3   201  LEU201      0.0019
     77  CD1       23.7230   60.1060   53.2340 C.3   201  LEU201      0.0001
     78  CD2       25.0090   61.7140   51.8230 C.3   201  LEU201      0.0001
     79  N         24.2540   67.3260   56.5540 N.3   203  THR203     -0.1218
     80  CA        23.2240   68.2700   56.1530 C.3   203  THR203      0.1862
     81  C         23.1270   69.4030   57.1620 C.2   203  THR203      0.2287
     82  O         23.3320   69.2080   58.3600 O.2   203  THR203     -0.2866
     83  CB        21.8470   67.5990   56.0200 C.3   203  THR203      0.1770
     84  OG1       21.4610   67.0400   57.2800 O.3   203  THR203     -0.2211
     85  CG2       21.8810   66.5060   54.9630 C.3   203  THR203      0.0375
     86  N         22.6780   67.5670   60.5190 N.3   216  GLY216     -0.1210
     87  CA        22.3780   66.1530   60.3910 C.3   216  GLY216      0.1956
     88  C         23.5960   65.4000   59.8980 C.2   216  GLY216      0.2612
     89  O         24.3290   65.8900   59.0400 O.2   216  GLY216     -0.2717
     90  N         23.8160   64.2120   60.4530 N.am  217  PHE217     -0.1962
     91  CA        24.9600   63.3890   60.0850 C.3   217  PHE217      0.1771
     92  C         24.5440   61.9410   59.8640 C.2   217  PHE217      0.2619
     93  O         23.7930   61.3730   60.6560 O.2   217  PHE217     -0.2715
     94  CB        26.0400   63.4530   61.1680 C.3   217  PHE217      0.0574
     95  CG        26.6180   64.8230   61.3730 C.ar  217  PHE217     -0.0200
     96  CD1       25.9280   65.7800   62.0980 C.ar  217  PHE217     -0.0042
     97  CD2       27.8590   65.1480   60.8560 C.ar  217  PHE217     -0.0042
     98  CE1       26.4600   67.0420   62.2930 C.ar  217  PHE217     -0.0003
     99  CE2       28.3980   66.4080   61.0470 C.ar  217  PHE217     -0.0003
    100  CZ        27.6970   67.3560   61.7670 C.ar  217  PHE217     -0.0000
    101  N         25.0360   61.3570   58.7760 N.am  218  MET218     -0.1977
    102  CA        24.8660   59.9340   58.5100 C.3   218  MET218      0.1605
    103  C         26.1630   59.3920   57.9390 C.2   218  MET218      0.2287
    104  O         26.7300   59.9770   57.0180 O.2   218  MET218     -0.2864
    105  CB        23.7140   59.6780   57.5410 C.3   218  MET218      0.0413
    106  CG        22.3480   59.6040   58.1940 C.3   218  MET218      0.0598
    107  SD        21.1420   58.8700   57.0750 S.3   218  MET218     -0.1393
    108  CE        19.7460   58.6470   58.1770 C.3   218  MET218      0.0692
    109  N         20.7990   64.2790   69.2400 N.3   257  TYR257     -0.1241
    110  CA        20.2050   62.9910   68.9090 C.3   257  TYR257      0.1605
    111  C         21.2540   62.1220   68.2280 C.2   257  TYR257      0.2264
    112  O         22.0170   62.5990   67.3900 O.2   257  TYR257     -0.2867
    113  CB        18.9780   63.1710   68.0120 C.3   257  TYR257      0.0534
    114  CG        18.5380   61.9060   67.3080 C.ar  257  TYR257     -0.0201
    115  CD1       18.0870   60.8060   68.0280 C.ar  257  TYR257     -0.0009
    116  CD2       18.5670   61.8150   65.9220 C.ar  257  TYR257     -0.0009
    117  CE1       17.6830   59.6490   67.3860 C.ar  257  TYR257      0.0417
    118  CE2       18.1650   60.6630   65.2720 C.ar  257  TYR257      0.0417
    119  CZ        17.7240   59.5830   66.0090 C.ar  257  TYR257      0.1957
    120  OH        17.3200   58.4340   65.3670 O.3   257  TYR257     -0.2866
    121  N         15.9290   55.2650   60.1230 N.3   286  PRO286     -0.2102
    122  CA        15.9800   56.6090   59.5330 C.3   286  PRO286      0.1504
    123  C         16.1970   56.6400   58.0180 C.2   286  PRO286      0.2576
    124  O         15.7000   57.5490   57.3550 O.2   286  PRO286     -0.2718
    125  CB        17.1700   57.2480   60.2520 C.3   286  PRO286      0.0282
    126  CG        17.1860   56.6050   61.5750 C.3   286  PRO286      0.0208
    127  CD        16.7170   55.1940   61.3690 C.3   286  PRO286      0.0893
    128  N         16.9270   55.6670   57.4800 N.am  287  LEU287     -0.1966
    129  CA        17.2230   55.6350   56.0470 C.3   287  LEU287      0.1728
    130  C         15.9750   55.3990   55.2000 C.2   287  LEU287      0.2617
    131  O         15.9520   55.7210   54.0140 O.2   287  LEU287     -0.2715
    132  CB        18.2550   54.5480   55.7410 C.3   287  LEU287      0.0311
    133  CG        19.6760   54.7860   56.2480 C.3   287  LEU287      0.0022
    134  CD1       20.5390   53.5780   55.9440 C.3   287  LEU287      0.0001
    135  CD2       20.2820   56.0340   55.6280 C.3   287  LEU287      0.0001
    136  N         14.9410   54.8310   55.8100 N.am  288  SER288     -0.1936
    137  CA        13.6980   54.5550   55.1010 C.3   288  SER288      0.2055
    138  C         12.8410   55.8100   55.0140 C.2   288  SER288      0.2643
    139  O         12.1610   56.0440   54.0170 O.2   288  SER288     -0.2714
    140  CB        12.9170   53.4440   55.8000 C.3   288  SER288      0.2130
    141  OG        12.3440   53.9290   57.0020 O.3   288  SER288     -0.2179
    142  N         12.8790   56.6130   56.0720 N.am  289  GLY289     -0.1954
    143  CA        12.0450   57.7970   56.1660 C.3   289  GLY289      0.1869
    144  C         10.5800   57.4500   56.3720 C.2   289  GLY289      0.2309
    145  O          9.7100   58.3120   56.2530 O.2   289  GLY289     -0.2863
    146  N         17.9910   51.8110   50.1000 N.3   338  VAL338     -0.1245
    147  CA        18.5200   53.1680   50.2300 C.3   338  VAL338      0.1561
    148  C         19.9500   53.1440   50.7630 C.2   338  VAL338      0.2260
    149  O         20.7990   53.9070   50.3030 O.2   338  VAL338     -0.2867
    150  CB        17.6400   54.0400   51.1650 C.3   338  VAL338      0.0252
    151  CG1       18.3700   55.3210   51.5880 C.3   338  VAL338      0.0019
    152  CG2       16.3280   54.3920   50.4860 C.3   338  VAL338      0.0019
    153  N         22.4630   52.2350   48.2210 N.3   341  SER341     -0.1202
    154  CA        22.5580   53.1860   47.1180 C.3   341  SER341      0.2020
    155  C         23.7330   54.1460   47.3020 C.2   341  SER341      0.2619
    156  O         24.2580   54.6770   46.3220 O.2   341  SER341     -0.2717
    157  CB        21.2560   53.9800   46.9720 C.3   341  SER341      0.2103
    158  OG        21.2600   55.1360   47.7920 O.3   341  SER341     -0.2182
    159  N         24.1440   54.3720   48.5500 N.am  342  PHE342     -0.1961
    160  CA        25.2940   55.2350   48.8200 C.3   342  PHE342      0.1771
    161  C         26.1330   54.8180   50.0330 C.2   342  PHE342      0.2619
    162  O         27.3300   54.5600   49.9000 O.2   342  PHE342     -0.2715
    163  CB        24.8470   56.6830   49.0190 C.3   342  PHE342      0.0574
    164  CG        25.9700   57.5950   49.4070 C.ar  342  PHE342     -0.0200
    165  CD1       26.9330   57.9560   48.4780 C.ar  342  PHE342     -0.0042
    166  CD2       26.0830   58.0690   50.7030 C.ar  342  PHE342     -0.0042
    167  CE1       27.9800   58.7830   48.8290 C.ar  342  PHE342     -0.0003
    168  CE2       27.1290   58.8980   51.0620 C.ar  342  PHE342     -0.0003
    169  CZ        28.0800   59.2530   50.1240 C.ar  342  PHE342     -0.0000
    170  N         25.5190   54.7820   51.2130 N.am  343  LEU343     -0.1977
    171  CA        26.2580   54.5230   52.4490 C.3   343  LEU343      0.1596
    172  C         27.0830   53.2370   52.3870 C.2   343  LEU343      0.2287
    173  O         28.2640   53.2370   52.7400 O.2   343  LEU343     -0.2864
    174  CB        25.3010   54.4510   53.6440 C.3   343  LEU343      0.0297
    175  CG        24.7860   55.7690   54.2320 C.3   343  LEU343      0.0022
    176  CD1       23.8250   55.4770   55.3720 C.3   343  LEU343      0.0001
    177  CD2       25.9250   56.6580   54.7210 C.3   343  LEU343      0.0001
    178  N         20.6190   60.6580   42.2840 N.3   350  ARG350     -0.1231
    179  CA        20.2470   59.6790   43.3010 C.3   350  ARG350      0.1694
    180  C         19.0390   60.1510   44.1030 C.2   350  ARG350      0.2592
    181  O         18.2160   59.3420   44.5310 O.2   350  ARG350     -0.2718
    182  CB        21.4210   59.4060   44.2430 C.3   350  ARG350      0.0321
    183  CG        22.6500   58.8440   43.5510 C.3   350  ARG350      0.0489
    184  CD        23.7340   58.4690   44.5500 C.3   350  ARG350      0.2205
    185  NE        24.9680   58.0570   43.8850 N.pl3 350  ARG350     -0.0865
    186  CZ        25.2010   56.8350   43.4120 C.cat 350  ARG350      0.5346
    187  NH1       24.2830   55.8820   43.5230 N.pl3 350  ARG350      0.1354
    188  NH2       26.3580   56.5640   42.8220 N.pl3 350  ARG350      0.1354
    189  N         18.9400   61.4610   44.3020 N.am  351  SER351     -0.1952
    190  CA        17.8340   62.0450   45.0530 C.3   351  SER351      0.1924
    191  C         16.4950   61.7160   44.4020 C.2   351  SER351      0.2314
    192  O         15.5770   61.2260   45.0610 O.2   351  SER351     -0.2863
    193  CB        18.0020   63.5620   45.1620 C.3   351  SER351      0.2116
    194  OG        17.9050   64.1800   43.8890 O.3   351  SER351     -0.2180
    195  N         15.4420   57.9980   44.6210 N.3   354  ILE354     -0.1245
    196  CA        14.8630   57.6200   45.9070 C.3   354  ILE354      0.1561
    197  C         13.4400   58.1640   46.0140 C.2   354  ILE354      0.2260
    198  O         12.5330   57.4670   46.4680 O.2   354  ILE354     -0.2867
    199  CB        15.7170   58.1330   47.0880 C.3   354  ILE354      0.0252
    200  CG1       17.0960   57.4660   47.0660 C.3   354  ILE354      0.0019
    201  CG2       15.0230   57.8520   48.4230 C.3   354  ILE354      0.0019
    202  CD1       18.0820   58.0230   48.0820 C.3   354  ILE354      0.0001
@<TRIPOS>BOND
     1   178   179    1
     2   188   186    1
     3   179   180    1
     4   179   182    1
     5   186   187    1
     6   186   185    2
     7   183   182    1
     8   183   184    1
     9   185   184    1
    10   194   193    1
    11   180   189   am
    12   180   181    2
    13   189   190    1
    14   191   190    1
    15   191   192    2
    16   195   196    1
    17   190   193    1
    18    18    17    2
    19   196   197    1
    20   196   199    1
    21   197   198    2
    22    19    20    1
    23    19    16    1
    24    21    20   ar
    25    21    23   ar
    26   156   155    2
    27    20    22   ar
    28    23    25   ar
    29    17    16    1
    30    15    16    1
    31   157   154    1
    32   157   158    1
    33    70    68   ar
    34   200   199    1
    35   200   202    1
    36   199   201    1
    37   154   155    1
    38   154   153    1
    39    22    24   ar
    40    25    24   ar
    41    25    26    1
    42   155   159   am
    43    68    69   ar
    44    68    67    1
    45   165   167   ar
    46   165   164   ar
    47   159   160    1
    48    65    64    2
    49   160   163    1
    50   160   161    1
    51   167   169   ar
    52    67    66    1
    53   163   164    1
    54    66    63    1
    55   164   166   ar
    56    57    56    2
    57    64    63    1
    58   162   161    2
    59   161   170   am
    60   146   147    1
    61   169   168   ar
    62    63    62    1
    63   147   148    1
    64   147   150    1
    65   149   148    2
    66   152   150    1
    67    60    59    1
    68   166   168   ar
    69    58    59    1
    70    58    55    1
    71    56    55    1
    72   150   151    1
    73    48    47    2
    74   170   171    1
    75    59    61    1
    76    54    55    1
    77    78    76    1
    78   172   171    1
    79   172   173    2
    80    47    46    1
    81   171   174    1
    82    45    46    1
    83    52    51   ar
    84    76    77    1
    85    76    75    1
    86    49    46    1
    87    49    50    1
    88   174   175    1
    89    51    50    1
    90    51    53   ar
    91   131   130    2
    92   139   138    2
    93   175   177    1
    94   175   176    1
    95    75    72    1
    96    72    71    1
    97    72    73    1
    98    85    83    1
    99   138   137    1
   100   138   142   am
   101   137   140    1
   102   137   136    1
   103   130   136   am
   104   130   129    1
   105   135   133    1
   106    73    74    2
   107   132   129    1
   108   132   133    1
   109   140   141    1
   110   134   133    1
   111    83    80    1
   112    83    84    1
   113   129   128    1
   114   142   143    1
   115    80    79    1
   116    80    81    1
   117   143   144    1
   118   145   144    2
   119   104   103    2
   120   107   108    1
   121   107   106    1
   122    81    82    2
   123   124   123    2
   124   128   123   am
   125   105   106    1
   126   105   102    1
   127   103   102    1
   128   123   122    1
   129   102   101    1
   130    14    11    1
   131   101    92   am
   132    89    88    2
   133     8     7    2
   134    13    12    2
   135   122   121    1
   136   122   125    1
   137    12    11    1
   138     7     9   am
   139     7     6    1
   140    92    91    1
   141    92    93    2
   142    88    87    1
   143    88    90   am
   144    11    10    1
   145    91    90    1
   146    91    94    1
   147   121   127    1
   148   125   126    1
   149    87    86    1
   150     6     5    1
   151    10     3   am
   152    97    99   ar
   153    97    95   ar
   154    99   100   ar
   155    94    95    1
   156   127   126    1
   157    95    96   ar
   158    33    31    1
   159     5     2    1
   160   100    98   ar
   161     3     4    2
   162     3     2    1
   163    96    98   ar
   164    31    28    1
   165    31    32    1
   166    28    27    1
   167    28    29    1
   168     2     1    1
   169    37    36    2
   170    34    29   am
   171    34    35    1
   172    29    30    2
   173    36    35    1
   174    36    40   am
   175    44    41    1
   176    35    38    1
   177    41    40    1
   178    41    42    1
   179    38    39    1
   180   118   116   ar
   181   118   119   ar
   182   120   119    1
   183   116   114   ar
   184    42    43    2
   185   119   117   ar
   186   114   113    1
   187   114   115   ar
   188   117   115   ar
   189   112   111    2
   190   113   110    1
   191   111   110    1
   192   110   109    1
