@<TRIPOS>MOLECULE
tmp/5tuoF00.pdb
 109 107 0 0 0
SMALL
GASTEIGER

@<TRIPOS>ATOM
      1  N         21.2180  -46.6830  -28.2490 N.3    61  LYS61      -0.1245
      2  CA        22.0210  -45.6060  -28.7690 C.3    61  LYS61       0.1561
      3  C         23.3020  -46.1640  -29.3070 C.2    61  LYS61       0.2260
      4  O         23.9610  -46.9570  -28.6340 O.2    61  LYS61      -0.2867
      5  CB        22.2660  -44.6570  -27.6250 C.3    61  LYS61       0.0271
      6  CG        23.1710  -43.5390  -27.8260 C.3    61  LYS61       0.0035
      7  CD        22.8030  -42.4700  -26.8540 C.3    61  LYS61       0.0206
      8  CE        23.9480  -41.7210  -26.4330 C.3    61  LYS61       0.1093
      9  NZ        23.5150  -40.2630  -26.4190 N.3    61  LYS61      -0.1314
     10  N         20.4510  -42.8080  -31.4430 N.3    83  HIS83      -0.1241
     11  CA        19.5500  -43.6320  -30.6610 C.3    83  HIS83       0.1621
     12  C         18.2800  -43.9090  -31.4100 C.2    83  HIS83       0.2264
     13  O         18.2030  -43.6930  -32.6390 O.2    83  HIS83      -0.2867
     14  CB        19.2360  -42.9630  -29.3280 C.3    83  HIS83       0.0745
     15  CG        18.9970  -41.4750  -29.4340 C.ar   83  HIS83       0.0817
     16  ND1       19.9750  -40.6060  -29.7470 N.ar   83  HIS83      -0.2268
     17  CD2       17.8400  -40.7180  -29.2560 C.ar   83  HIS83       0.1154
     18  CE1       19.4740  -39.3570  -29.7690 C.ar   83  HIS83       0.1986
     19  NE2       18.1670  -39.4270  -29.4680 N.ar   83  HIS83      -0.2212
     20  N         13.6070  -44.3960  -30.9030 N.3    85  HIS85      -0.1241
     21  CA        12.4270  -44.0380  -30.1410 C.3    85  HIS85       0.1621
     22  C         11.2300  -44.8230  -30.5910 C.2    85  HIS85       0.2264
     23  O         11.1770  -45.3030  -31.7440 O.2    85  HIS85      -0.2867
     24  CB        12.1480  -42.5450  -30.2580 C.3    85  HIS85       0.0745
     25  CG        13.0220  -41.6900  -29.3710 C.ar   85  HIS85       0.0817
     26  ND1       12.7450  -41.4750  -28.0730 N.ar   85  HIS85      -0.2268
     27  CD2       14.1980  -40.9920  -29.6440 C.ar   85  HIS85       0.1154
     28  CE1       13.6920  -40.6810  -27.5380 C.ar   85  HIS85       0.1986
     29  NE2       14.5800  -40.3860  -28.5010 N.ar   85  HIS85      -0.2212
     30  N         17.5180  -40.8150  -34.2490 N.3    99  HIS99      -0.1241
     31  CA        18.0430  -39.4600  -34.0460 C.3    99  HIS99       0.1621
     32  C         19.5190  -39.3170  -34.3530 C.2    99  HIS99       0.2264
     33  O         20.3650  -39.8860  -33.6530 O.2    99  HIS99      -0.2867
     34  CB        17.8360  -39.0240  -32.6070 C.3    99  HIS99       0.0745
     35  CG        16.4740  -38.4840  -32.3290 C.ar   99  HIS99       0.0817
     36  ND1       16.0700  -38.1140  -31.0680 N.ar   99  HIS99      -0.2268
     37  CD2       15.4270  -38.2480  -33.1520 C.ar   99  HIS99       0.1154
     38  CE1       14.8260  -37.6770  -31.1200 C.ar   99  HIS99       0.1986
     39  NE2       14.4160  -37.7400  -32.3710 N.ar   99  HIS99      -0.2212
     40  N         22.4130  -37.2780  -33.8810 N.3   101  VAL101     -0.1245
     41  CA        22.8250  -36.1810  -33.0380 C.3   101  VAL101      0.1561
     42  C         24.1670  -35.6540  -33.5030 C.2   101  VAL101      0.2260
     43  O         25.1000  -36.4260  -33.6830 O.2   101  VAL101     -0.2867
     44  CB        22.8940  -36.6400  -31.5930 C.3   101  VAL101      0.0252
     45  CG1       22.9030  -35.4650  -30.6550 C.3   101  VAL101      0.0019
     46  CG2       21.7180  -37.5170  -31.3010 C.3   101  VAL101      0.0019
     47  N         24.0310  -27.7380  -31.4480 N.3   109  LEU109     -0.1245
     48  CA        23.4620  -29.0410  -31.7210 C.3   109  LEU109      0.1561
     49  C         22.6250  -29.0790  -32.9880 C.2   109  LEU109      0.2260
     50  O         21.7570  -28.2250  -33.1910 O.2   109  LEU109     -0.2867
     51  CB        22.5930  -29.4640  -30.5470 C.3   109  LEU109      0.0270
     52  CG        23.2870  -29.6440  -29.2100 C.3   109  LEU109      0.0019
     53  CD1       22.3410  -29.2310  -28.1120 C.3   109  LEU109      0.0001
     54  CD2       23.6540  -31.1000  -29.0630 C.3   109  LEU109      0.0001
     55  N         20.2540  -31.9190  -35.0900 N.3   111  VAL111     -0.1245
     56  CA        19.7110  -33.2680  -35.0450 C.3   111  VAL111      0.1561
     57  C         18.8970  -33.5560  -36.2980 C.2   111  VAL111      0.2260
     58  O         18.3290  -32.6500  -36.9010 O.2   111  VAL111     -0.2867
     59  CB        18.8460  -33.5030  -33.7790 C.3   111  VAL111      0.0252
     60  CG1       18.3410  -34.9470  -33.7210 C.3   111  VAL111      0.0019
     61  CG2       19.6500  -33.2100  -32.5250 C.3   111  VAL111      0.0019
     62  N         15.7750  -30.4940  -27.1310 N.3   151  LEU151     -0.1231
     63  CA        15.8980  -31.9480  -26.9540 C.3   151  LEU151      0.1693
     64  C         14.5250  -32.5420  -26.6860 C.2   151  LEU151      0.2593
     65  O         13.5930  -31.8150  -26.3610 O.2   151  LEU151     -0.2718
     66  CB        16.8530  -32.2770  -25.8090 C.3   151  LEU151      0.0284
     67  CG        18.2430  -31.7250  -26.0850 C.3   151  LEU151      0.0019
     68  CD1       19.1580  -31.7790  -24.8660 C.3   151  LEU151      0.0001
     69  CD2       18.8230  -32.5040  -27.2350 C.3   151  LEU151      0.0001
     70  N         14.3780  -33.8500  -26.8320 N.am  152  THR152     -0.1939
     71  CA        13.1040  -34.4560  -26.4820 C.3   152  THR152      0.2028
     72  C         13.2760  -35.1340  -25.1420 C.2   152  THR152      0.2642
     73  O         12.4730  -35.9830  -24.7520 O.2   152  THR152     -0.2714
     74  CB        12.6060  -35.4630  -27.5480 C.3   152  THR152      0.1808
     75  OG1       13.2620  -36.7240  -27.3860 O.3   152  THR152     -0.2208
     76  CG2       12.8560  -34.9300  -28.9440 C.3   152  THR152      0.0379
     77  N         14.3270  -34.7320  -24.4330 N.am  153  ALA153     -0.1963
     78  CA        14.7610  -35.4560  -23.2500 C.3   153  ALA153      0.1713
     79  C         15.5620  -34.5790  -22.3140 C.2   153  ALA153      0.2458
     80  O         16.4570  -33.8620  -22.7480 O.2   153  ALA153     -0.2730
     81  CB        15.5840  -36.6750  -23.6550 C.3   153  ALA153      0.0333
     82  N         15.2470  -34.6540  -21.0180 N.am  154  PRO154     -0.2716
     83  CA        15.9100  -33.8350  -20.0010 C.3   154  PRO154      0.1521
     84  C         17.4050  -33.8950  -20.2260 C.2   154  PRO154      0.2440
     85  O         17.9030  -34.9810  -20.4890 O.2   154  PRO154     -0.2731
     86  CB        15.5040  -34.5000  -18.6880 C.3   154  PRO154      0.0310
     87  CG        14.2120  -35.1980  -19.0060 C.3   154  PRO154      0.0237
     88  CD        14.2970  -35.6150  -20.4360 C.3   154  PRO154      0.0939
     89  N         18.1100  -32.7570  -20.1730 N.am  155  PRO155     -0.2727
     90  CA        17.7380  -31.3970  -19.7580 C.3   155  PRO155      0.1402
     91  C         16.7940  -30.6340  -20.6900 C.2   155  PRO155      0.2269
     92  O         16.4380  -29.5070  -20.3340 O.2   155  PRO155     -0.2865
     93  CB        19.0880  -30.6810  -19.7150 C.3   155  PRO155      0.0296
     94  CG        19.9060  -31.3910  -20.7420 C.3   155  PRO155      0.0237
     95  CD        19.5120  -32.8240  -20.6230 C.3   155  PRO155      0.0939
     96  N         16.7420  -28.4960  -35.7600 N.3   162  TRP162     -0.1241
     97  CA        16.0150  -29.7290  -36.0380 C.3   162  TRP162      0.1605
     98  C         15.8200  -30.0080  -37.5140 C.2   162  TRP162      0.2264
     99  O         15.5850  -29.0930  -38.2990 O.2   162  TRP162     -0.2867
    100  CB        14.6640  -29.6960  -35.3550 C.3   162  TRP162      0.0550
    101  CG        14.7660  -30.3490  -34.0860 C.ar  162  TRP162      0.0003
    102  CD1       14.8170  -29.7630  -32.8640 C.ar  162  TRP162      0.0946
    103  CD2       14.9090  -31.7530  -33.8760 C.ar  162  TRP162      0.0152
    104  NE1       14.9520  -30.7220  -31.8910 N.ar  162  TRP162     -0.2442
    105  CE2       15.0120  -31.9490  -32.4860 C.ar  162  TRP162      0.0810
    106  CE3       14.9440  -32.8580  -34.7270 C.ar  162  TRP162      0.0012
    107  CZ2       15.1470  -33.2200  -31.9280 C.ar  162  TRP162      0.0191
    108  CZ3       15.0750  -34.1050  -34.1730 C.ar  162  TRP162      0.0001
    109  CH2       15.1740  -34.2800  -32.7850 C.ar  162  TRP162      0.0015
@<TRIPOS>BOND
     1    99    98    2
     2    98    97    1
     3    58    57    2
     4    57    56    1
     5    97    96    1
     6    97   100    1
     7   100   101    1
     8    55    56    1
     9    56    59    1
    10   106   108   ar
    11   106   103   ar
    12    32    31    1
    13    32    33    2
    14    30    31    1
    15   108   109   ar
    16   101   103   ar
    17   101   102   ar
    18    31    34    1
    19    40    41    1
    20   103   105   ar
    21    59    60    1
    22    59    61    1
    23    43    42    2
    24    42    41    1
    25    50    49    2
    26    37    39   ar
    27    37    35   ar
    28    41    44    1
    29    49    48    1
    30   102   104   ar
    31   109   107   ar
    32    13    12    2
    33    34    35    1
    34   105   107   ar
    35   105   104   ar
    36    39    38   ar
    37    35    36   ar
    38    23    22    2
    39    48    47    1
    40    48    51    1
    41    44    46    1
    42    44    45    1
    43    10    11    1
    44    12    11    1
    45    38    36   ar
    46    20    21    1
    47    11    14    1
    48    22    21    1
    49    51    52    1
    50    24    21    1
    51    24    25    1
    52    18    16   ar
    53    18    19   ar
    54    16    15   ar
    55    27    25   ar
    56    27    29   ar
    57    19    17   ar
    58    15    14    1
    59    15    17   ar
    60    25    26   ar
    61     3     2    1
    62     3     4    2
    63    52    54    1
    64    52    53    1
    65    76    74    1
    66     2     1    1
    67     2     5    1
    68    29    28   ar
    69    26    28   ar
    70     6     5    1
    71     6     7    1
    72    74    75    1
    73    74    71    1
    74    69    67    1
    75    62    63    1
    76    63    64    1
    77    63    66    1
    78     7     8    1
    79    70    64   am
    80    70    71    1
    81    64    65    2
    82    71    72    1
    83     8     9    1
    84    67    66    1
    85    67    68    1
    86    72    73    2
    87    72    77   am
    88    77    78    1
    89    81    78    1
    90    78    79    1
    91    80    79    2
    92    79    82   am
    93    82    88    1
    94    82    83    1
    95    94    95    1
    96    94    93    1
    97    91    92    2
    98    91    90    1
    99    95    89    1
   100    85    84    2
   101    88    87    1
   102    84    89   am
   103    84    83    1
   104    89    90    1
   105    83    86    1
   106    90    93    1
   107    87    86    1
