@<TRIPOS>MOLECULE
tmp/5tusB02.pdb
 147 142 0 0 0
SMALL
GASTEIGER

@<TRIPOS>ATOM
      1  N         14.3080  -31.4500  -28.3020 N.3   199  THR199     -0.1203
      2  CA        14.9000  -30.4580  -29.1740 C.3   199  THR199      0.1994
      3  C         15.8120  -29.4900  -28.4220 C.2   199  THR199      0.2618
      4  O         15.6500  -29.2350  -27.2190 O.2   199  THR199     -0.2717
      5  CB        13.8410  -29.6120  -29.9200 C.3   199  THR199      0.1784
      6  OG1       14.4980  -28.5580  -30.6820 O.3   199  THR199     -0.2211
      7  CG2       12.8090  -29.0200  -28.9020 C.3   199  THR199      0.0376
      8  N         16.7510  -28.9460  -29.1870 N.am  200  HIS200     -0.1961
      9  CA        17.6350  -27.9460  -28.7140 C.3   200  HIS200      0.1787
     10  C         16.9210  -26.6130  -28.8720 C.2   200  HIS200      0.2620
     11  O         16.0110  -26.4730  -29.7020 O.2   200  HIS200     -0.2715
     12  CB        18.9470  -27.9660  -29.5080 C.3   200  HIS200      0.0785
     13  CG        19.9140  -29.0110  -29.0430 C.ar  200  HIS200      0.0821
     14  ND1       20.7670  -28.8110  -27.9790 N.ar  200  HIS200     -0.2267
     15  CD2       20.1700  -30.2570  -29.5010 C.ar  200  HIS200      0.1154
     16  CE1       21.5060  -29.8900  -27.8020 C.ar  200  HIS200      0.1986
     17  NE2       21.1580  -30.7830  -28.7090 N.ar  200  HIS200     -0.2212
     18  N         17.3510  -25.6540  -28.0460 N.am  201  ALA201     -0.1963
     19  CA        16.8910  -24.2850  -28.0500 C.3   201  ALA201      0.1728
     20  C         17.1080  -23.6010  -29.3920 C.2   201  ALA201      0.2617
     21  O         18.0340  -23.9550  -30.1220 O.2   201  ALA201     -0.2715
     22  CB        17.6040  -23.5210  -26.9670 C.3   201  ALA201      0.0334
     23  N         16.2620  -22.6110  -29.6890 N.am  202  SER202     -0.1936
     24  CA        16.2640  -21.9450  -30.9880 C.3   202  SER202      0.2040
     25  C         17.6250  -21.4280  -31.4580 C.2   202  SER202      0.2485
     26  O         17.9810  -21.6570  -32.6140 O.2   202  SER202     -0.2729
     27  CB        15.2410  -20.8330  -31.0170 C.3   202  SER202      0.2129
     28  OG        13.9460  -21.3740  -30.9750 O.3   202  SER202     -0.2179
     29  N         18.3880  -20.7370  -30.5760 N.am  203  PRO203     -0.2726
     30  CA        19.7440  -20.3250  -30.9740 C.3   203  PRO203      0.1402
     31  C         20.5780  -21.4680  -31.5160 C.2   203  PRO203      0.2269
     32  O         21.2780  -21.2710  -32.5100 O.2   203  PRO203     -0.2865
     33  CB        20.3710  -19.8200  -29.6700 C.3   203  PRO203      0.0296
     34  CG        19.2190  -19.3790  -28.8560 C.3   203  PRO203      0.0237
     35  CD        18.0570  -20.2600  -29.2170 C.3   203  PRO203      0.0939
     36  N         21.2390  -19.0950  -25.1890 N.3   217  SER217     -0.1202
     37  CA        19.9170  -18.5800  -25.2420 C.3   217  SER217      0.2020
     38  C         19.8850  -17.2140  -24.5160 C.2   217  SER217      0.2619
     39  O         19.9010  -16.1670  -25.1690 O.2   217  SER217     -0.2717
     40  CB        19.0190  -19.6820  -24.6370 C.3   217  SER217      0.2103
     41  OG        17.6710  -19.5150  -24.9620 O.3   217  SER217     -0.2182
     42  N         19.9360  -17.2230  -23.1930 N.am  218  CYS218     -0.1969
     43  CA        19.8810  -16.0200  -22.4160 C.3   218  CYS218      0.1712
     44  C         21.2390  -15.7270  -21.7240 C.2   218  CYS218      0.2296
     45  O         22.1930  -16.5000  -21.7980 O.2   218  CYS218     -0.2864
     46  CB        18.7180  -16.1330  -21.4110 C.3   218  CYS218      0.0983
     47  SG        17.0460  -16.2360  -22.1080 S.3   218  CYS218     -0.0798
     48  N         21.7220  -11.6000  -30.3710 N.3   245  ALA245     -0.1231
     49  CA        20.3360  -12.0370  -30.1280 C.3   245  ALA245      0.1694
     50  C         20.0840  -12.7390  -28.7760 C.2   245  ALA245      0.2593
     51  O         19.1970  -13.6030  -28.6780 O.2   245  ALA245     -0.2718
     52  CB        19.8270  -12.8960  -31.2930 C.3   245  ALA245      0.0304
     53  N         20.8180  -12.3440  -27.7360 N.am  246  GLY246     -0.1942
     54  CA        20.5950  -12.9060  -26.3940 C.3   246  GLY246      0.2014
     55  C         19.5070  -12.1940  -25.5750 C.2   246  GLY246      0.2639
     56  O         19.4680  -10.9610  -25.5530 O.2   246  GLY246     -0.2714
     57  N         18.6290  -12.9590  -24.9070 N.am  247  GLY247     -0.1954
     58  CA        17.7740  -12.4180  -23.8330 C.3   247  GLY247      0.1869
     59  C         18.6590  -12.0750  -22.6300 C.2   247  GLY247      0.2309
     60  O         19.7090  -12.7060  -22.4090 O.2   247  GLY247     -0.2863
     61  N         15.3830   -7.5540  -25.5220 N.3   292  ALA292     -0.1245
     62  CA        14.5010   -7.6610  -24.3480 C.3   292  ALA292      0.1562
     63  C         15.4010   -7.7580  -23.1480 C.2   292  ALA292      0.2260
     64  O         16.1870   -8.7030  -23.0790 O.2   292  ALA292     -0.2867
     65  CB        13.6350   -8.9010  -24.4510 C.3   292  ALA292      0.0290
     66  N         15.8110  -13.4670  -18.2470 N.3   417  LEU417     -0.1231
     67  CA        14.6540  -12.8340  -18.8930 C.3   417  LEU417      0.1693
     68  C         13.3310  -13.5390  -18.6750 C.2   417  LEU417      0.2592
     69  O         12.2950  -12.8990  -18.6900 O.2   417  LEU417     -0.2718
     70  CB        14.9060  -12.7130  -20.3980 C.3   417  LEU417      0.0284
     71  CG        13.8310  -12.0480  -21.2590 C.3   417  LEU417      0.0019
     72  CD1       13.7070  -10.6100  -20.8000 C.3   417  LEU417      0.0001
     73  CD2       14.1580  -12.1440  -22.7370 C.3   417  LEU417      0.0001
     74  N         13.3570  -14.8520  -18.4960 N.am  418  CYS418     -0.1970
     75  CA        12.1400  -15.6660  -18.3730 C.3   418  CYS418      0.1712
     76  C         11.9440  -16.3240  -17.0130 C.2   418  CYS418      0.2296
     77  O         10.9730  -17.0440  -16.8280 O.2   418  CYS418     -0.2864
     78  CB        12.1270  -16.7250  -19.5020 C.3   418  CYS418      0.0983
     79  SG        12.0600  -16.0170  -21.1780 S.3   418  CYS418     -0.0798
     80  N         13.4840  -18.6730  -15.1280 N.3   420  GLU420     -0.1245
     81  CA        13.8200  -20.0820  -14.8750 C.3   420  GLU420      0.1567
     82  C         15.2550  -20.2640  -14.4260 C.2   420  GLU420      0.2260
     83  O         15.5320  -21.2120  -13.6920 O.2   420  GLU420     -0.2867
     84  CB        13.5440  -20.9650  -16.1130 C.3   420  GLU420      0.0388
     85  CG        14.6440  -21.1490  -17.1910 C.3   420  GLU420      0.1160
     86  CD        14.6900  -20.0560  -18.2920 C.2   420  GLU420      0.3649
     87  OE1       15.5060  -20.1690  -19.2720 O.co2 420  GLU420     -0.2457
     88  OE2       13.9120  -19.0670  -18.1930 O.co2 420  GLU420     -0.2457
     89  N         20.3680  -24.3460  -23.2870 N.3   435  LEU435     -0.1231
     90  CA        19.0640  -24.9130  -23.0500 C.3   435  LEU435      0.1693
     91  C         18.5610  -25.9750  -24.0370 C.2   435  LEU435      0.2592
     92  O         18.8850  -25.9620  -25.2310 O.2   435  LEU435     -0.2718
     93  CB        18.0700  -23.7900  -22.9980 C.3   435  LEU435      0.0284
     94  CG        18.3460  -22.6440  -22.0300 C.3   435  LEU435      0.0019
     95  CD1       17.3700  -21.4840  -22.1610 C.3   435  LEU435      0.0001
     96  CD2       18.3850  -23.1420  -20.5980 C.3   435  LEU435      0.0001
     97  N         17.7700  -26.9040  -23.5020 N.am  436  ALA436     -0.1966
     98  CA        17.0600  -27.8520  -24.3020 C.3   436  ALA436      0.1728
     99  C         15.8140  -28.3810  -23.5650 C.2   436  ALA436      0.2616
    100  O         15.6870  -28.2350  -22.3670 O.2   436  ALA436     -0.2715
    101  CB        17.9870  -28.9650  -24.7060 C.3   436  ALA436      0.0334
    102  N         14.8960  -28.9840  -24.3110 N.am  437  SER437     -0.1950
    103  CA        13.6620  -29.4510  -23.7480 C.3   437  SER437      0.1924
    104  C         13.3190  -30.8860  -24.2180 C.2   437  SER437      0.2314
    105  O         13.4550  -31.2200  -25.3970 O.2   437  SER437     -0.2863
    106  CB        12.5120  -28.4930  -24.0660 C.3   437  SER437      0.2116
    107  OG        11.9140  -28.7790  -25.3270 O.3   437  SER437     -0.2180
    108  N         11.4800  -24.0660  -18.9920 N.3   591  MET591     -0.1231
    109  CA        11.5420  -22.7810  -19.6680 C.3   591  MET591      0.1687
    110  C         10.2640  -22.5970  -20.4750 C.2   591  MET591      0.2434
    111  O          9.5280  -23.5600  -20.6310 O.2   591  MET591     -0.2733
    112  CB        12.7360  -22.8710  -20.6000 C.3   591  MET591      0.0400
    113  CG        12.5480  -23.9840  -21.6580 C.3   591  MET591      0.0596
    114  SD        13.8190  -25.1800  -21.6240 S.3   591  MET591     -0.1393
    115  CE        15.1470  -24.0210  -21.8740 C.3   591  MET591      0.0692
    116  N         10.0420  -21.4110  -21.0630 N.am  592  PRO592     -0.2718
    117  CA         8.7980  -21.1780  -21.7940 C.3   592  PRO592      0.1535
    118  C          8.5320  -22.0760  -22.9890 C.2   592  PRO592      0.2599
    119  O          7.3490  -22.3930  -23.2240 O.2   592  PRO592     -0.2715
    120  CB         8.9150  -19.7330  -22.2390 C.3   592  PRO592      0.0310
    121  CG         9.7580  -19.0870  -21.2120 C.3   592  PRO592      0.0237
    122  CD        10.7870  -20.1550  -20.9080 C.3   592  PRO592      0.0939
    123  N          9.5870  -22.4980  -23.7050 N.am  593  THR593     -0.1937
    124  CA         9.4490  -23.2310  -24.9900 C.3   593  THR593      0.2028
    125  C          8.3980  -22.5510  -25.9010 C.2   593  THR593      0.2642
    126  O          7.4840  -23.1710  -26.4400 O.2   593  THR593     -0.2714
    127  CB         9.1580  -24.7520  -24.8170 C.3   593  THR593      0.1808
    128  OG1        7.8880  -24.9740  -24.1850 O.3   593  THR593     -0.2208
    129  CG2       10.2370  -25.4460  -24.0250 C.3   593  THR593      0.0379
    130  N          8.5260  -21.2360  -26.0270 N.am  594  ALA594     -0.1963
    131  CA         7.6050  -20.4350  -26.8360 C.3   594  ALA594      0.1728
    132  C          7.6350  -20.8660  -28.2940 C.2   594  ALA594      0.2617
    133  O          6.6090  -21.1270  -28.8480 O.2   594  ALA594     -0.2715
    134  CB         7.9440  -18.9520  -26.7040 C.3   594  ALA594      0.0334
    135  N          8.8220  -21.0160  -28.8820 N.am  595  SER595     -0.1936
    136  CA         8.9500  -21.3110  -30.3250 C.3   595  SER595      0.2055
    137  C          8.9780  -22.8080  -30.6220 C.2   595  SER595      0.2643
    138  O          8.3110  -23.2460  -31.5510 O.2   595  SER595     -0.2714
    139  CB        10.2060  -20.6780  -30.9270 C.3   595  SER595      0.2130
    140  OG        10.7310  -19.6430  -30.1070 O.3   595  SER595     -0.2179
    141  N          9.7460  -23.5950  -29.8650 N.am  596  THR596     -0.1950
    142  CA         9.9510  -24.9900  -30.2440 C.3   596  THR596      0.1897
    143  C          8.8050  -25.9110  -29.9380 C.2   596  THR596      0.2313
    144  O          8.7000  -26.9400  -30.5670 O.2   596  THR596     -0.2863
    145  CB        11.2060  -25.6520  -29.6250 C.3   596  THR596      0.1794
    146  OG1       11.2050  -25.4880  -28.2120 O.3   596  THR596     -0.2208
    147  CG2       12.5100  -25.1370  -30.2840 C.3   596  THR596      0.0378
@<TRIPOS>BOND
     1    26    25    2
     2    32    31    2
     3   138   137    2
     4    31    30    1
     5    25    24    1
     6    25    29   am
     7    52    49    1
     8    27    24    1
     9    27    28    1
    10    24    23    1
    11    30    29    1
    12    30    33    1
    13   139   136    1
    14   139   140    1
    15     6     5    1
    16   137   136    1
    17   137   141   am
    18    29    35    1
    19   144   143    2
    20    48    49    1
    21   136   135    1
    22   147   145    1
    23   142   143    1
    24   142   141    1
    25   142   145    1
    26    49    50    1
    27    21    20    2
    28     5     2    1
    29     5     7    1
    30    11    10    2
    31    23    20   am
    32    33    34    1
    33   145   146    1
    34    12    13    1
    35    12     9    1
    36    15    13   ar
    37    15    17   ar
    38    20    19    1
    39    35    34    1
    40     8     9    1
    41     8     3   am
    42     2     3    1
    43     2     1    1
    44    13    14   ar
    45   135   132   am
    46    10     9    1
    47    10    18   am
    48   133   132    2
    49    50    51    2
    50    50    53   am
    51    17    16   ar
    52     3     4    2
    53   132   131    1
    54    19    18    1
    55    19    22    1
    56    14    16   ar
    57    53    54    1
    58   131   134    1
    59   131   130    1
    60   126   125    2
    61    54    55    1
    62   130   125   am
    63   125   124    1
    64    55    56    2
    65    55    57   am
    66    61    62    1
    67   105   104    2
    68   107   106    1
    69    37    36    1
    70    37    40    1
    71    37    38    1
    72    92    91    2
    73    39    38    2
    74   124   127    1
    75   124   123    1
    76    41    40    1
    77    57    58    1
    78   127   128    1
    79   127   129    1
    80   101    98    1
    81    38    42   am
    82    65    62    1
    83    62    63    1
    84   102   103    1
    85   102    99   am
    86    98    99    1
    87    98    97    1
    88   104   103    1
    89   106   103    1
    90    91    97   am
    91    91    90    1
    92    58    59    1
    93   123   118   am
    94    99   100    2
    95    89    90    1
    96   119   118    2
    97    42    43    1
    98    63    64    2
    99    90    93    1
   100    93    94    1
   101   118   117    1
   102    73    71    1
   103    59    60    2
   104    43    44    1
   105    43    46    1
   106   120   117    1
   107   120   121    1
   108    95    94    1
   109    47    46    1
   110    94    96    1
   111   115   114    1
   112    45    44    2
   113   117   116    1
   114   113   114    1
   115   113   112    1
   116    71    72    1
   117    71    70    1
   118   121   122    1
   119    79    78    1
   120   116   122    1
   121   116   110   am
   122   111   110    2
   123   112   109    1
   124   110   109    1
   125    70    67    1
   126   109   108    1
   127    78    75    1
   128    87    86   ar
   129    67    68    1
   130    67    66    1
   131    69    68    2
   132    68    74   am
   133    74    75    1
   134    75    76    1
   135    86    88   ar
   136    86    85    1
   137    85    84    1
   138    76    77    2
   139    84    81    1
   140    80    81    1
   141    81    82    1
   142    82    83    2
