@<TRIPOS>MOLECULE
tmp/5tuyB01.pdb
 147 141 0 0 0
SMALL
GASTEIGER

@<TRIPOS>ATOM
      1  N         10.5600  -20.8890    1.7610 N.3   152  ASP152     -0.1239
      2  CA         9.7010  -21.2190    0.6320 C.3   152  ASP152      0.1674
      3  C          8.6620  -22.2870    1.0160 C.2   152  ASP152      0.2266
      4  O          7.4930  -22.1880    0.6360 O.2   152  ASP152     -0.2867
      5  CB        10.5390  -21.6650   -0.5790 C.3   152  ASP152      0.1410
      6  CG        11.5600  -22.7460   -0.2350 C.2   152  ASP152      0.3668
      7  OD1       11.4260  -23.3980    0.8230 O.co2 152  ASP152     -0.2456
      8  OD2       12.5040  -22.9480   -1.0280 O.co2 152  ASP152     -0.2456
      9  N          6.0490  -20.5530    2.7780 N.3   155  ALA155     -0.1231
     10  CA         5.3530  -19.6220    1.8940 C.3   155  ALA155      0.1694
     11  C          4.2940  -20.3700    1.1130 C.2   155  ALA155      0.2592
     12  O          3.2520  -19.8140    0.7580 O.2   155  ALA155     -0.2718
     13  CB         6.3140  -18.9210    0.9510 C.3   155  ALA155      0.0304
     14  N          4.5750  -21.6400    0.8470 N.am  156  ASP156     -0.1960
     15  CA         3.6550  -22.4810    0.0980 C.3   156  ASP156      0.1840
     16  C          2.3600  -22.7860    0.8540 C.2   156  ASP156      0.2622
     17  O          1.3160  -22.9370    0.2380 O.2   156  ASP156     -0.2715
     18  CB         4.3610  -23.7760   -0.2950 C.3   156  ASP156      0.1450
     19  CG         5.0350  -23.6730   -1.6510 C.2   156  ASP156      0.3671
     20  OD1        4.6460  -22.7880   -2.4520 O.co2 156  ASP156     -0.2456
     21  OD2        5.9690  -24.4610   -1.9070 O.co2 156  ASP156     -0.2456
     22  N          2.4190  -22.8450    2.1800 N.am  157  VAL157     -0.1963
     23  CA         1.2570  -23.2340    2.9830 C.3   157  VAL157      0.1727
     24  C          0.3460  -22.0660    3.3780 C.2   157  VAL157      0.2616
     25  O         -0.6990  -22.2720    4.0060 O.2   157  VAL157     -0.2715
     26  CB         1.6830  -23.9890    4.2610 C.3   157  VAL157      0.0290
     27  CG1        2.7610  -25.0050    3.9280 C.3   157  VAL157      0.0023
     28  CG2        2.1480  -23.0210    5.3580 C.3   157  VAL157      0.0023
     29  N          0.7650  -20.8420    3.0660 N.am  158  ARG158     -0.1963
     30  CA        -0.0120  -19.6510    3.4300 C.3   158  ARG158      0.1729
     31  C         -1.0100  -19.2210    2.3650 C.2   158  ARG158      0.2616
     32  O         -0.6450  -19.0320    1.2080 O.2   158  ARG158     -0.2715
     33  CB         0.9250  -18.4880    3.7540 C.3   158  ARG158      0.0348
     34  CG         1.9180  -18.8390    4.8400 C.3   158  ARG158      0.0492
     35  CD         2.5760  -17.6170    5.4050 C.3   158  ARG158      0.2205
     36  NE         3.2550  -17.9330    6.6570 N.pl3 158  ARG158     -0.0865
     37  CZ         3.8300  -17.0190    7.4290 C.cat 158  ARG158      0.5346
     38  NH1        3.7960  -15.7370    7.0690 N.pl3 158  ARG158      0.1354
     39  NH2        4.4160  -17.3780    8.5620 N.pl3 158  ARG158      0.1354
     40  N         -2.2670  -19.0550    2.7740 N.am  159  GLU159     -0.1977
     41  CA        -3.3490  -18.7050    1.8560 C.3   159  GLU159      0.1602
     42  C         -3.1800  -17.3290    1.2170 C.2   159  GLU159      0.2287
     43  O         -3.3830  -17.1600    0.0140 O.2   159  GLU159     -0.2864
     44  CB        -4.6890  -18.7320    2.5950 C.3   159  GLU159      0.0415
     45  CG        -4.8780  -19.9310    3.5110 C.3   159  GLU159      0.1163
     46  CD        -6.3350  -20.1720    3.8740 C.2   159  GLU159      0.3649
     47  OE1       -6.7320  -19.8140    5.0030 O.co2 159  GLU159     -0.2457
     48  OE2       -7.0790  -20.7220    3.0330 O.co2 159  GLU159     -0.2457
     49  N         -1.0620  -14.4480   -0.2470 N.3   161  ASP161     -0.1239
     50  CA         0.2760  -14.1330   -0.7750 C.3   161  ASP161      0.1674
     51  C          0.3650  -12.7540   -1.4140 C.2   161  ASP161      0.2266
     52  O          1.2350  -12.5080   -2.2510 O.2   161  ASP161     -0.2867
     53  CB         0.7360  -15.1810   -1.7980 C.3   161  ASP161      0.1410
     54  CG        -0.2860  -15.4270   -2.8870 C.2   161  ASP161      0.3668
     55  OD1       -1.4440  -15.0090   -2.6970 O.co2 161  ASP161     -0.2456
     56  OD2        0.0630  -16.0370   -3.9250 O.co2 161  ASP161     -0.2456
     57  N          3.8990  -10.7590   -0.4530 N.3   164  LEU164     -0.1231
     58  CA         5.1380  -11.5340   -0.4730 C.3   164  LEU164      0.1693
     59  C          6.2120  -10.8980   -1.3330 C.2   164  LEU164      0.2592
     60  O          5.9510  -10.4550   -2.4600 O.2   164  LEU164     -0.2718
     61  CB         4.9000  -12.9480   -0.9900 C.3   164  LEU164      0.0284
     62  CG         4.3780  -14.0720   -0.1040 C.3   164  LEU164      0.0019
     63  CD1        4.3140  -15.3090   -0.9480 C.3   164  LEU164      0.0001
     64  CD2        5.3000  -14.3010    1.0420 C.3   164  LEU164      0.0001
     65  N          7.4310  -10.8720   -0.8080 N.am  165  PHE165     -0.1962
     66  CA         8.5790  -10.4800   -1.6150 C.3   165  PHE165      0.1771
     67  C          9.5710  -11.6440   -1.6720 C.2   165  PHE165      0.2619
     68  O          9.9370  -12.1930   -0.6380 O.2   165  PHE165     -0.2715
     69  CB         9.2300   -9.2300   -1.0520 C.3   165  PHE165      0.0574
     70  CG        10.1310   -8.5470   -2.0180 C.ar  165  PHE165     -0.0200
     71  CD1       11.4480   -8.9820   -2.1840 C.ar  165  PHE165     -0.0042
     72  CD2        9.6750   -7.4570   -2.7580 C.ar  165  PHE165     -0.0042
     73  CE1       12.2890   -8.3490   -3.0740 C.ar  165  PHE165     -0.0003
     74  CE2       10.5000   -6.8190   -3.6550 C.ar  165  PHE165     -0.0003
     75  CZ        11.8180   -7.2600   -3.8230 C.ar  165  PHE165     -0.0000
     76  N          9.9890  -12.0390   -2.8710 N.am  166  ASP166     -0.1971
     77  CA        10.8820  -13.1920   -3.0140 C.3   166  ASP166      0.1709
     78  C         12.3480  -12.8440   -2.7740 C.2   166  ASP166      0.2293
     79  O         12.8240  -11.7820   -3.1740 O.2   166  ASP166     -0.2864
     80  CB        10.7320  -13.8240   -4.3980 C.3   166  ASP166      0.1436
     81  CG         9.4620  -14.6650   -4.5310 C.2   166  ASP166      0.3671
     82  OD1        9.0130  -15.2330   -3.5150 O.co2 166  ASP166     -0.2456
     83  OD2        8.9050  -14.7520   -5.6520 O.co2 166  ASP166     -0.2456
     84  N         15.8060  -21.1030   -1.0620 N.3   171  VAL171     -0.1245
     85  CA        14.9900  -19.8880   -1.2390 C.3   171  VAL171      0.1561
     86  C         14.1890  -19.4590    0.0140 C.2   171  VAL171      0.2260
     87  O         13.7190  -20.3060    0.7790 O.2   171  VAL171     -0.2867
     88  CB        14.0120  -20.0620   -2.4150 C.3   171  VAL171      0.0252
     89  CG1       13.3250  -18.7470   -2.7140 C.3   171  VAL171      0.0019
     90  CG2       14.7670  -20.5250   -3.6420 C.3   171  VAL171      0.0019
     91  N         11.4380  -16.0100    1.6750 N.3   173  CYS173     -0.1235
     92  CA        10.5490  -14.8890    1.3270 C.3   173  CYS173      0.1677
     93  C         10.3280  -13.9210    2.4850 C.2   173  CYS173      0.2270
     94  O         10.4000  -14.3080    3.6580 O.2   173  CYS173     -0.2867
     95  CB         9.1940  -15.3990    0.8430 C.3   173  CYS173      0.0956
     96  SG         9.3060  -16.4600   -0.5630 S.3   173  CYS173     -0.0801
     97  N          6.1880   -5.4970   -9.3210 N.3   229  TYR229     -0.1241
     98  CA         6.0500   -6.7530   -8.5880 C.3   229  TYR229      0.1605
     99  C          6.6640   -7.9350   -9.3480 C.2   229  TYR229      0.2264
    100  O          6.9160   -8.9950   -8.7720 O.2   229  TYR229     -0.2867
    101  CB         4.5860   -7.0900   -8.3050 C.3   229  TYR229      0.0534
    102  CG         3.8340   -6.2340   -7.3020 C.ar  229  TYR229     -0.0201
    103  CD1        4.4390   -5.1830   -6.6290 C.ar  229  TYR229     -0.0009
    104  CD2        2.4860   -6.4920   -7.0380 C.ar  229  TYR229     -0.0009
    105  CE1        3.7190   -4.4110   -5.7150 C.ar  229  TYR229      0.0417
    106  CE2        1.7670   -5.7310   -6.1340 C.ar  229  TYR229      0.0417
    107  CZ         2.3850   -4.6940   -5.4780 C.ar  229  TYR229      0.1957
    108  OH         1.6550   -3.9530   -4.5850 O.3   229  TYR229     -0.2866
    109  N          6.1110  -13.2080  -11.4960 N.3   232  ARG232     -0.1231
    110  CA         5.6850  -14.3320  -10.6810 C.3   232  ARG232      0.1694
    111  C          4.4170  -13.8870   -9.9620 C.2   232  ARG232      0.2592
    112  O          3.4820  -14.6680   -9.7910 O.2   232  ARG232     -0.2718
    113  CB         6.7640  -14.7720   -9.6830 C.3   232  ARG232      0.0321
    114  CG         6.3040  -15.8750   -8.7330 C.3   232  ARG232      0.0489
    115  CD         7.4570  -16.4340   -7.9090 C.3   232  ARG232      0.2205
    116  NE         8.5230  -17.0040   -8.7320 N.pl3 232  ARG232     -0.0865
    117  CZ         9.7940  -17.1110   -8.3420 C.cat 232  ARG232      0.5346
    118  NH1       10.7050  -17.6320   -9.1550 N.pl3 232  ARG232      0.1354
    119  NH2       10.1600  -16.7040   -7.1350 N.pl3 232  ARG232      0.1354
    120  N          4.3770  -12.6150   -9.5730 N.am  233  PHE233     -0.1976
    121  CA         3.1770  -12.0620   -8.9620 C.3   233  PHE233      0.1639
    122  C          1.9820  -12.1060   -9.9260 C.2   233  PHE233      0.2290
    123  O          0.9200  -12.6550   -9.5960 O.2   233  PHE233     -0.2864
    124  CB         3.4140  -10.6270   -8.5020 C.3   233  PHE233      0.0560
    125  CG         2.2030   -9.9890   -7.8650 C.ar  233  PHE233     -0.0200
    126  CD1        1.2150   -9.3950   -8.6400 C.ar  233  PHE233     -0.0042
    127  CD2        2.0500   -9.9890   -6.4880 C.ar  233  PHE233     -0.0042
    128  CE1        0.1070   -8.8160   -8.0440 C.ar  233  PHE233     -0.0003
    129  CE2        0.9450   -9.3940   -5.8870 C.ar  233  PHE233     -0.0003
    130  CZ        -0.0210   -8.8110   -6.6590 C.ar  233  PHE233     -0.0000
    131  N          0.3070  -15.4400  -11.1180 N.3   236  ILE236     -0.1231
    132  CA        -0.6190  -16.0060  -10.1470 C.3   236  ILE236      0.1692
    133  C         -1.9040  -15.1880  -10.0170 C.2   236  ILE236      0.2591
    134  O         -2.9930  -15.7470  -10.0270 O.2   236  ILE236     -0.2718
    135  CB         0.0390  -16.1180   -8.7770 C.3   236  ILE236      0.0266
    136  CG1        0.9400  -17.3530   -8.7290 C.3   236  ILE236      0.0019
    137  CG2       -1.0070  -16.1750   -7.6820 C.3   236  ILE236      0.0020
    138  CD1        1.8700  -17.3630   -7.5360 C.3   236  ILE236      0.0001
    139  N         -1.7650  -13.8680   -9.9150 N.am  237  LYS237     -0.1980
    140  CA        -2.8560  -12.9830   -9.5120 C.3   237  LYS237      0.1596
    141  C         -3.8180  -12.5280  -10.6130 C.2   237  LYS237      0.2287
    142  O         -4.9230  -12.0610  -10.3090 O.2   237  LYS237     -0.2864
    143  CB        -2.2730  -11.7330   -8.8430 C.3   237  LYS237      0.0298
    144  CG        -1.7390  -11.9500   -7.4360 C.3   237  LYS237      0.0038
    145  CD        -2.8560  -12.2790   -6.4550 C.3   237  LYS237      0.0206
    146  CE        -2.3670  -12.1650   -5.0210 C.3   237  LYS237      0.1093
    147  NZ        -3.0370  -13.1600   -4.1630 N.3   237  LYS237     -0.1314
@<TRIPOS>BOND
     1   109   110    1
     2   131   132    1
     3   110   111    1
     4   110   113    1
     5   141   142    2
     6   141   140    1
     7   132   133    1
     8   132   135    1
     9   134   133    2
    10   133   139   am
    11   111   112    2
    12   111   120   am
    13   122   123    2
    14   122   121    1
    15   139   140    1
    16   113   114    1
    17   120   121    1
    18   140   143    1
    19    99   100    2
    20    99    98    1
    21    97    98    1
    22   118   117    1
    23   121   124    1
    24   143   144    1
    25   135   136    1
    26   135   137    1
    27   114   115    1
    28   116   117    2
    29   116   115    1
    30   136   138    1
    31   126   128   ar
    32   126   125   ar
    33    98   101    1
    34   124   125    1
    35   117   119    1
    36   101   102    1
    37   128   130   ar
    38   125   127   ar
    39   144   145    1
    40   102   104   ar
    41   102   103   ar
    42   104   106   ar
    43   130   129   ar
    44   103   105   ar
    45   127   129   ar
    46   145   146    1
    47   106   107   ar
    48   105   107   ar
    49    83    81   ar
    50   107   108    1
    51   146   147    1
    52    81    80    1
    53    81    82   ar
    54    80    77    1
    55    56    54   ar
    56    75    74   ar
    57    75    73   ar
    58    74    72   ar
    59    90    88    1
    60    79    78    2
    61    73    71   ar
    62    77    76    1
    63    77    78    1
    64    54    55   ar
    65    54    53    1
    66    76    67   am
    67    72    70   ar
    68    89    88    1
    69    60    59    2
    70    20    19   ar
    71    88    85    1
    72    52    51    2
    73    71    70   ar
    74    70    69    1
    75    21    19   ar
    76    53    50    1
    77    67    66    1
    78    67    68    2
    79    19    18    1
    80    66    69    1
    81    66    65    1
    82    51    50    1
    83    59    65   am
    84    59    58    1
    85    85    84    1
    86    85    86    1
    87     8     6   ar
    88    61    58    1
    89    61    62    1
    90    63    62    1
    91    50    49    1
    92     5     6    1
    93     5     2    1
    94    96    95    1
    95    58    57    1
    96    18    15    1
    97     6     7   ar
    98    62    64    1
    99    86    87    2
   100    43    42    2
   101    15    14    1
   102    15    16    1
   103    17    16    2
   104     2     3    1
   105     2     1    1
   106     4     3    2
   107    12    11    2
   108    95    92    1
   109    14    11   am
   110    16    22   am
   111    13    10    1
   112    11    10    1
   113    32    31    2
   114    42    41    1
   115    92    91    1
   116    92    93    1
   117    41    44    1
   118    41    40    1
   119    10     9    1
   120    22    23    1
   121    31    40   am
   122    31    30    1
   123    93    94    2
   124    44    45    1
   125    23    24    1
   126    23    26    1
   127    48    46   ar
   128    29    24   am
   129    29    30    1
   130    24    25    2
   131    30    33    1
   132    45    46    1
   133    33    34    1
   134    46    47   ar
   135    27    26    1
   136    26    28    1
   137    34    35    1
   138    35    36    1
   139    36    37    2
   140    38    37    1
   141    37    39    1
