@<TRIPOS>MOLECULE
tmp/5tuzA01.pdb
 147 141 0 0 0
SMALL
GASTEIGER

@<TRIPOS>ATOM
      1  N        -21.7650  -14.0330   12.4980 N.3   157  ASP157     -0.1239
      2  CA       -22.5940  -13.7550   11.3230 C.3   157  ASP157      0.1674
      3  C        -23.1560  -12.3270   11.3120 C.2   157  ASP157      0.2266
      4  O        -23.2290  -11.6910   10.2600 O.2   157  ASP157     -0.2867
      5  CB       -23.7450  -14.7620   11.2260 C.3   157  ASP157      0.1410
      6  CG       -24.4880  -14.9430   12.5410 C.2   157  ASP157      0.3668
      7  OD1      -24.2980  -14.1330   13.4730 O.co2 157  ASP157     -0.2456
      8  OD2      -25.2760  -15.9060   12.6390 O.co2 157  ASP157     -0.2456
      9  N        -20.4220  -10.1080   10.1090 N.3   160  ALA160     -0.1231
     10  CA       -20.2730  -10.2770    8.6630 C.3   160  ALA160      0.1694
     11  C        -21.3520   -9.5000    7.9020 C.2   160  ALA160      0.2592
     12  O        -21.0990   -8.9520    6.8270 O.2   160  ALA160     -0.2718
     13  CB       -20.3220  -11.7670    8.2870 C.3   160  ALA160      0.0304
     14  N        -22.5490   -9.4400    8.4810 N.am  161  ASP161     -0.1960
     15  CA       -23.6860   -8.7640    7.8580 C.3   161  ASP161      0.1840
     16  C        -23.5210   -7.2460    7.7450 C.2   161  ASP161      0.2622
     17  O        -24.2630   -6.5970    7.0070 O.2   161  ASP161     -0.2715
     18  CB       -24.9710   -9.0700    8.6300 C.3   161  ASP161      0.1450
     19  CG       -25.8030  -10.1620    7.9770 C.2   161  ASP161      0.3671
     20  OD1      -25.6700  -10.3710    6.7490 O.co2 161  ASP161     -0.2456
     21  OD2      -26.6030  -10.8050    8.6950 O.co2 161  ASP161     -0.2456
     22  N        -22.5650   -6.6750    8.4700 N.am  162  VAL162     -0.1963
     23  CA       -22.3240   -5.2370    8.3680 C.3   162  VAL162      0.1727
     24  C        -20.9270   -4.9450    7.8290 C.2   162  VAL162      0.2616
     25  O        -20.4500   -3.8150    7.9020 O.2   162  VAL162     -0.2715
     26  CB       -22.5170   -4.5150    9.7250 C.3   162  VAL162      0.0290
     27  CG1      -23.9710   -4.6090   10.1790 C.3   162  VAL162      0.0023
     28  CG2      -21.5790   -5.0760   10.7800 C.3   162  VAL162      0.0023
     29  N        -20.2750   -5.9650    7.2830 N.am  163  ARG163     -0.1963
     30  CA       -19.0140   -5.7510    6.5830 C.3   163  ARG163      0.1729
     31  C        -19.2420   -5.6150    5.0900 C.2   163  ARG163      0.2616
     32  O        -19.6640   -6.5640    4.4210 O.2   163  ARG163     -0.2715
     33  CB       -18.0280   -6.8800    6.8710 C.3   163  ARG163      0.0348
     34  CG       -17.6090   -6.8760    8.3200 C.3   163  ARG163      0.0492
     35  CD       -16.2890   -7.5520    8.5690 C.3   163  ARG163      0.2205
     36  NE       -15.8650   -7.2740    9.9390 N.pl3 163  ARG163     -0.0865
     37  CZ       -14.7110   -7.6670   10.4580 C.cat 163  ARG163      0.5346
     38  NH1      -13.8600   -8.3520    9.7140 N.pl3 163  ARG163      0.1354
     39  NH2      -14.4050   -7.3550   11.7160 N.pl3 163  ARG163      0.1354
     40  N        -18.9440   -4.4270    4.5780 N.am  164  GLU164     -0.1977
     41  CA       -19.1360   -4.1230    3.1670 C.3   164  GLU164      0.1602
     42  C        -18.3010   -5.0360    2.2550 C.2   164  GLU164      0.2287
     43  O        -18.7820   -5.4730    1.2130 O.2   164  GLU164     -0.2864
     44  CB       -18.8170   -2.6470    2.9120 C.3   164  GLU164      0.0415
     45  CG       -18.4000   -2.2930    1.4910 C.3   164  GLU164      0.1163
     46  CD       -16.8920   -2.1960    1.3230 C.2   164  GLU164      0.3649
     47  OE1      -16.2470   -1.4930    2.1330 O.co2 164  GLU164     -0.2457
     48  OE2      -16.3540   -2.8210    0.3820 O.co2 164  GLU164     -0.2457
     49  N        -17.0820   -8.3710    1.3840 N.3   166  ASP166     -0.1239
     50  CA       -17.4120   -9.7460    1.7060 C.3   166  ASP166      0.1674
     51  C        -16.8090  -10.7410    0.7120 C.2   166  ASP166      0.2266
     52  O        -17.2640  -11.8800    0.6190 O.2   166  ASP166     -0.2867
     53  CB       -18.9330   -9.9060    1.7750 C.3   166  ASP166      0.1410
     54  CG       -19.6170   -9.5930    0.4510 C.2   166  ASP166      0.3668
     55  OD1      -18.9900   -8.9380   -0.4110 O.co2 166  ASP166     -0.2456
     56  OD2      -20.7850  -10.0030    0.2730 O.co2 166  ASP166     -0.2456
     57  N        -14.6490  -14.0330    2.5430 N.3   169  LEU169     -0.1231
     58  CA       -15.3690  -14.6200    3.6680 C.3   169  LEU169      0.1693
     59  C        -15.5750  -16.1020    3.4520 C.2   169  LEU169      0.2592
     60  O        -15.9670  -16.5200    2.3570 O.2   169  LEU169     -0.2718
     61  CB       -16.7390  -13.9640    3.8540 C.3   169  LEU169      0.0284
     62  CG       -16.9470  -12.7300    4.7150 C.3   169  LEU169      0.0019
     63  CD1      -18.4110  -12.3020    4.5900 C.3   169  LEU169      0.0001
     64  CD2      -16.5790  -13.0190    6.1630 C.3   169  LEU169      0.0001
     65  N        -15.3380  -16.8840    4.5030 N.am  170  PHE170     -0.1962
     66  CA       -15.6720  -18.3010    4.5020 C.3   170  PHE170      0.1771
     67  C        -16.6860  -18.5850    5.6200 C.2   170  PHE170      0.2619
     68  O        -16.4290  -18.2600    6.7830 O.2   170  PHE170     -0.2715
     69  CB       -14.4180  -19.1570    4.6860 C.3   170  PHE170      0.0574
     70  CG       -14.6120  -20.5990    4.3020 C.ar  170  PHE170     -0.0200
     71  CD1      -15.2990  -21.4720    5.1390 C.ar  170  PHE170     -0.0042
     72  CD2      -14.1220  -21.0790    3.0900 C.ar  170  PHE170     -0.0042
     73  CE1      -15.4890  -22.8050    4.7780 C.ar  170  PHE170     -0.0003
     74  CE2      -14.3130  -22.4100    2.7180 C.ar  170  PHE170     -0.0003
     75  CZ       -14.9910  -23.2730    3.5710 C.ar  170  PHE170     -0.0000
     76  N        -17.8270  -19.1850    5.2700 N.am  171  ASP171     -0.1971
     77  CA       -18.8670  -19.4910    6.2610 C.3   171  ASP171      0.1709
     78  C        -18.5590  -20.7470    7.0640 C.2   171  ASP171      0.2293
     79  O        -18.2740  -21.7910    6.4930 O.2   171  ASP171     -0.2864
     80  CB       -20.2290  -19.6680    5.5920 C.3   171  ASP171      0.1436
     81  CG       -20.7870  -18.3700    5.0390 C.2   171  ASP171      0.3671
     82  OD1      -20.5380  -17.3030    5.6430 O.co2 171  ASP171     -0.2456
     83  OD2      -21.4820  -18.4250    4.0050 O.co2 171  ASP171     -0.2456
     84  N        -23.8820  -19.0520   14.0810 N.3   177  VAL177     -0.1245
     85  CA       -23.0540  -19.1150   12.8860 C.3   177  VAL177      0.1561
     86  C        -21.8910  -18.1120   12.9210 C.2   177  VAL177      0.2260
     87  O        -22.0560  -16.9460   13.3010 O.2   177  VAL177     -0.2867
     88  CB       -23.9190  -18.8810   11.6220 C.3   177  VAL177      0.0252
     89  CG1      -23.0600  -18.7840   10.3740 C.3   177  VAL177      0.0019
     90  CG2      -24.9500  -19.9940   11.4810 C.3   177  VAL177      0.0019
     91  N        -18.0090  -16.8100   10.8690 N.3   179  CYS179     -0.1235
     92  CA       -17.2790  -16.7160    9.6120 C.3   179  CYS179      0.1677
     93  C        -15.8050  -16.5190    9.8640 C.2   179  CYS179      0.2270
     94  O        -15.4050  -16.0160   10.9220 O.2   179  CYS179     -0.2867
     95  CB       -17.7970  -15.5420    8.7750 C.3   179  CYS179      0.0956
     96  SG       -19.5410  -15.5970    8.3890 S.3   179  CYS179     -0.0801
     97  N        -16.1100  -21.7660   -4.1090 N.3   235  TYR235     -0.1241
     98  CA       -16.5270  -20.7610   -3.1260 C.3   235  TYR235      0.1605
     99  C        -17.9320  -21.0280   -2.6070 C.2   235  TYR235      0.2264
    100  O        -18.3110  -20.5360   -1.5500 O.2   235  TYR235     -0.2867
    101  CB       -16.5090  -19.3500   -3.7210 C.3   235  TYR235      0.0534
    102  CG       -15.1540  -18.7230   -3.9600 C.ar  235  TYR235     -0.0201
    103  CD1      -13.9690  -19.4160   -3.7340 C.ar  235  TYR235     -0.0009
    104  CD2      -15.0720  -17.4170   -4.4190 C.ar  235  TYR235     -0.0009
    105  CE1      -12.7400  -18.8120   -3.9550 C.ar  235  TYR235      0.0417
    106  CE2      -13.8730  -16.8160   -4.6500 C.ar  235  TYR235      0.0417
    107  CZ       -12.7120  -17.5030   -4.4250 C.ar  235  TYR235      0.1957
    108  OH       -11.5350  -16.8480   -4.6690 O.3   235  TYR235     -0.2866
    109  N        -23.5640  -19.4030   -1.8870 N.3   238  ARG238     -0.1231
    110  CA       -23.8660  -18.1130   -1.2710 C.3   238  ARG238      0.1694
    111  C        -23.0360  -17.0160   -1.9390 C.2   238  ARG238      0.2592
    112  O        -23.5610  -15.9510   -2.2910 O.2   238  ARG238     -0.2718
    113  CB       -23.6150  -18.1320    0.2390 C.3   238  ARG238      0.0321
    114  CG       -23.7800  -16.7510    0.8820 C.3   238  ARG238      0.0489
    115  CD       -23.7340  -16.7770    2.4150 C.3   238  ARG238      0.2205
    116  NE       -25.0380  -17.0560    3.0090 N.pl3 238  ARG238     -0.0865
    117  CZ       -25.2570  -17.9930    3.9270 C.cat 238  ARG238      0.5346
    118  NH1      -24.2500  -18.7360    4.3680 N.pl3 238  ARG238      0.1354
    119  NH2      -26.4800  -18.1820    4.4090 N.pl3 238  ARG238      0.1354
    120  N        -21.7480  -17.2910   -2.1250 N.am  239  PHE239     -0.1976
    121  CA       -20.8450  -16.3740   -2.8070 C.3   239  PHE239      0.1639
    122  C        -21.4110  -15.9420   -4.1530 C.2   239  PHE239      0.2290
    123  O        -21.5170  -14.7450   -4.4500 O.2   239  PHE239     -0.2864
    124  CB       -19.4620  -17.0150   -3.0140 C.3   239  PHE239      0.0560
    125  CG       -18.4880  -16.1280   -3.7530 C.ar  239  PHE239     -0.0200
    126  CD1      -18.4600  -16.1020   -5.1450 C.ar  239  PHE239     -0.0042
    127  CD2      -17.6060  -15.3080   -3.0530 C.ar  239  PHE239     -0.0042
    128  CE1      -17.5810  -15.2700   -5.8270 C.ar  239  PHE239     -0.0003
    129  CE2      -16.7190  -14.4810   -3.7340 C.ar  239  PHE239     -0.0003
    130  CZ       -16.7100  -14.4620   -5.1230 C.ar  239  PHE239     -0.0000
    131  N        -24.6040  -13.9060   -4.5480 N.3   242  ILE242     -0.1231
    132  CA       -24.3590  -12.4860   -4.3120 C.3   242  ILE242      0.1692
    133  C        -23.5450  -11.8340   -5.4300 C.2   242  ILE242      0.2591
    134  O        -23.9660  -10.8400   -6.0140 O.2   242  ILE242     -0.2718
    135  CB       -23.6210  -12.2630   -2.9750 C.3   242  ILE242      0.0266
    136  CG1      -24.5270  -12.6290   -1.7950 C.3   242  ILE242      0.0019
    137  CG2      -23.1440  -10.8200   -2.8680 C.3   242  ILE242      0.0020
    138  CD1      -23.8070  -12.6790   -0.4470 C.3   242  ILE242      0.0001
    139  N        -22.3820  -12.4040   -5.7330 N.am  243  LYS243     -0.1980
    140  CA       -21.4510  -11.7690   -6.6580 C.3   243  LYS243      0.1596
    141  C        -21.8080  -12.0070   -8.1260 C.2   243  LYS243      0.2287
    142  O        -21.3030  -11.3080   -9.0070 O.2   243  LYS243     -0.2864
    143  CB       -20.0230  -12.2500   -6.3900 C.3   243  LYS243      0.0298
    144  CG       -19.4260  -11.7560   -5.0750 C.3   243  LYS243      0.0038
    145  CD       -19.3900  -10.2350   -4.9910 C.3   243  LYS243      0.0206
    146  CE       -18.8340   -9.7750   -3.6400 C.3   243  LYS243      0.1093
    147  NZ       -18.8350   -8.2900   -3.4950 N.3   243  LYS243     -0.1314
@<TRIPOS>BOND
     1   142   141    2
     2   141   140    1
     3   140   143    1
     4   140   139    1
     5   143   144    1
     6   134   133    2
     7   128   126   ar
     8   128   130   ar
     9   139   133   am
    10   133   132    1
    11   126   125   ar
    12   130   129   ar
    13   144   145    1
    14   145   146    1
    15   108   107    1
    16   106   107   ar
    17   106   104   ar
    18   131   132    1
    19   123   122    2
    20   107   105   ar
    21   104   102   ar
    22   132   135    1
    23   122   121    1
    24    97    98    1
    25   102   103   ar
    26   102   101    1
    27   105   103   ar
    28   125   127   ar
    29   125   124    1
    30   129   127   ar
    31   101    98    1
    32   146   147    1
    33    98    99    1
    34   124   121    1
    35   135   137    1
    36   135   136    1
    37   121   120    1
    38    99   100    2
    39   112   111    2
    40   120   111   am
    41   111   110    1
    42   109   110    1
    43   136   138    1
    44   110   113    1
    45    55    54   ar
    46   113   114    1
    47    56    54   ar
    48    48    46   ar
    49    54    53    1
    50    52    51    2
    51    51    50    1
    52   114   115    1
    53    43    42    2
    54    46    45    1
    55    46    47   ar
    56    49    50    1
    57    45    44    1
    58    50    53    1
    59    42    41    1
    60    60    59    2
    61   115   116    1
    62    57    58    1
    63    74    72   ar
    64    74    75   ar
    65    44    41    1
    66   116   117    2
    67    72    70   ar
    68    41    40    1
    69    59    58    1
    70    59    65   am
    71    75    73   ar
    72    58    61    1
    73    61    62    1
    74   117   118    1
    75   117   119    1
    76    83    81   ar
    77    70    69    1
    78    70    71   ar
    79    32    31    2
    80    66    65    1
    81    66    69    1
    82    66    67    1
    83    40    31   am
    84    63    62    1
    85    62    64    1
    86    73    71   ar
    87    81    80    1
    88    81    82   ar
    89    31    30    1
    90    76    67   am
    91    76    77    1
    92    80    77    1
    93    67    68    2
    94    77    78    1
    95    79    78    2
    96    30    33    1
    97    30    29    1
    98    20    19   ar
    99    12    11    2
   100    33    34    1
   101    17    16    2
   102    29    24   am
   103    16    15    1
   104    16    22   am
   105    24    25    2
   106    24    23    1
   107    15    14    1
   108    15    18    1
   109    11    14   am
   110    11    10    1
   111    19    18    1
   112    19    21   ar
   113    13    10    1
   114    34    35    1
   115    23    22    1
   116    23    26    1
   117    96    95    1
   118    35    36    1
   119    10     9    1
   120    95    92    1
   121    92    93    1
   122    92    91    1
   123    38    37    1
   124    26    27    1
   125    26    28    1
   126    93    94    2
   127    36    37    2
   128     4     3    2
   129    89    88    1
   130    37    39    1
   131     5     2    1
   132     5     6    1
   133     3     2    1
   134     2     1    1
   135    90    88    1
   136    88    85    1
   137     6     8   ar
   138     6     7   ar
   139    85    86    1
   140    85    84    1
   141    86    87    2
