@<TRIPOS>MOLECULE
tmp/5tv3D00.pdb
 168 164 0 0 0
SMALL
GASTEIGER

@<TRIPOS>ATOM
      1  N          3.8830   -6.3630   68.6900 N.3     1  TRP1       -0.1241
      2  CA         4.8640   -6.6960   67.6540 C.3     1  TRP1        0.1605
      3  C          4.8340   -5.7280   66.4820 C.2     1  TRP1        0.2264
      4  O          3.7790   -5.2260   66.1100 O.2     1  TRP1       -0.2867
      5  CB         4.6860   -8.1310   67.1380 C.3     1  TRP1        0.0550
      6  CG         3.3660   -8.4500   66.5100 C.ar    1  TRP1        0.0003
      7  CD1        2.2580   -8.9490   67.1380 C.ar    1  TRP1        0.0946
      8  CD2        3.0030   -8.2740   65.1340 C.ar    1  TRP1        0.0152
      9  NE1        1.2350   -9.1180   66.2330 N.ar    1  TRP1       -0.2442
     10  CE2        1.6630   -8.7040   64.9960 C.ar    1  TRP1        0.0810
     11  CE3        3.6770   -7.7920   64.0040 C.ar    1  TRP1        0.0012
     12  CZ2        0.9870   -8.6650   63.7820 C.ar    1  TRP1        0.0191
     13  CZ3        3.0030   -7.7530   62.7930 C.ar    1  TRP1        0.0001
     14  CH2        1.6740   -8.1880   62.6940 C.ar    1  TRP1        0.0015
     15  N         -2.8550   -3.4290   61.5590 N.3    60  HIS60      -0.1241
     16  CA        -1.5540   -4.0970   61.6640 C.3    60  HIS60       0.1621
     17  C         -0.4500   -3.5630   60.7480 C.2    60  HIS60       0.2264
     18  O          0.1830   -4.3390   60.0530 O.2    60  HIS60      -0.2867
     19  CB        -1.7150   -5.5940   61.3810 C.3    60  HIS60       0.0745
     20  CG        -2.5780   -6.3230   62.3650 C.ar   60  HIS60       0.0817
     21  ND1       -3.9520   -6.3740   62.2630 N.ar   60  HIS60      -0.2268
     22  CD2       -2.2560   -7.0650   63.4500 C.ar   60  HIS60       0.1154
     23  CE1       -4.4390   -7.0980   63.2530 C.ar   60  HIS60       0.1986
     24  NE2       -3.4300   -7.5340   63.9880 N.ar   60  HIS60      -0.2212
     25  N         -5.9530   -2.1800   54.3710 N.3    64  LYS64      -0.1245
     26  CA        -6.7390   -3.3530   54.0070 C.3    64  LYS64       0.1561
     27  C         -8.1500   -2.9810   53.6150 C.2    64  LYS64       0.2260
     28  O         -8.8010   -2.1700   54.2630 O.2    64  LYS64      -0.2867
     29  CB        -6.8470   -4.3610   55.1660 C.3    64  LYS64       0.0271
     30  CG        -7.8300   -5.5030   54.8450 C.3    64  LYS64       0.0035
     31  CD        -8.0020   -6.5270   55.9360 C.3    64  LYS64       0.0206
     32  CE        -6.7220   -7.2900   56.1730 C.3    64  LYS64       0.1093
     33  NZ        -6.9600   -8.2980   57.2320 N.3    64  LYS64      -0.1314
     34  N        -10.9450  -12.6730   50.3670 N.3    83  ASP83      -0.1225
     35  CA       -11.3980  -11.9390   51.5300 C.3    83  ASP83       0.1805
     36  C        -10.9410  -10.4870   51.4230 C.2    83  ASP83       0.2597
     37  O        -11.7150   -9.5590   51.6350 O.2    83  ASP83      -0.2718
     38  CB       -10.8860  -12.5640   52.8220 C.3    83  ASP83       0.1424
     39  CG       -11.2160  -11.7180   54.0450 C.2    83  ASP83       0.3668
     40  OD1      -10.4150  -10.8180   54.3790 O.co2  83  ASP83      -0.2456
     41  OD2      -12.2790  -11.9380   54.6680 O.co2  83  ASP83      -0.2456
     42  N         -9.6770  -10.2790   51.1120 N.am   84  ASN84      -0.1974
     43  CA        -9.1810   -8.9300   51.0770 C.3    84  ASN84       0.1688
     44  C         -7.9870   -8.7440   50.1840 C.2    84  ASN84       0.2292
     45  O         -7.4410   -9.6850   49.6130 O.2    84  ASN84      -0.2864
     46  CB        -8.8140   -8.4580   52.4810 C.3    84  ASN84       0.1181
     47  CG        -7.4300   -8.9060   52.9080 C.2    84  ASN84       0.2629
     48  OD1       -6.4310   -8.2880   52.5600 O.2    84  ASN84      -0.2716
     49  ND2       -7.3730   -9.9470   53.7110 N.am   84  ASN84      -0.0877
     50  N         -4.5310   -6.2820   50.7280 N.3    86  HIS86      -0.1241
     51  CA        -3.8340   -5.4310   51.6590 C.3    86  HIS86       0.1621
     52  C         -2.4960   -5.1230   51.0150 C.2    86  HIS86       0.2264
     53  O         -2.2520   -5.5910   49.9190 O.2    86  HIS86      -0.2867
     54  CB        -3.7070   -6.1050   53.0170 C.3    86  HIS86       0.0745
     55  CG        -3.0180   -7.4270   52.9680 C.ar   86  HIS86       0.0817
     56  ND1       -3.7030   -8.6150   52.8470 N.ar   86  HIS86      -0.2268
     57  CD2       -1.7050   -7.7500   53.0020 C.ar   86  HIS86       0.1154
     58  CE1       -2.8420   -9.6150   52.8280 C.ar   86  HIS86       0.1986
     59  NE2       -1.6230   -9.1150   52.9180 N.ar   86  HIS86      -0.2212
     60  N          1.9090   -4.0570   51.0350 N.3    88  HIS88      -0.1241
     61  CA         3.2210   -4.1000   51.6760 C.3    88  HIS88       0.1621
     62  C          4.2230   -3.2360   50.8900 C.2    88  HIS88       0.2264
     63  O          4.3750   -3.3940   49.6760 O.2    88  HIS88      -0.2867
     64  CB         3.7000   -5.5610   51.7910 C.3    88  HIS88       0.0745
     65  CG         2.8630   -6.4040   52.7100 C.ar   88  HIS88       0.0817
     66  ND1        3.2450   -6.7140   53.9940 N.ar   88  HIS88      -0.2268
     67  CD2        1.6530   -6.9880   52.5340 C.ar   88  HIS88       0.1154
     68  CE1        2.3170   -7.4530   54.5720 C.ar   88  HIS88       0.1986
     69  NE2        1.3370   -7.6290   53.7050 N.ar   88  HIS88      -0.2212
     70  N         -1.6230   -7.9660   48.5540 N.3   104  HIS104     -0.1241
     71  CA        -1.9480   -9.3650   48.6040 C.3   104  HIS104      0.1621
     72  C         -3.4200   -9.7060   48.5670 C.2   104  HIS104      0.2264
     73  O         -4.2050   -9.2620   49.3890 O.2   104  HIS104     -0.2867
     74  CB        -1.3250   -9.9460   49.8520 C.3   104  HIS104      0.0745
     75  CG         0.1700   -9.9240   49.8160 C.ar  104  HIS104      0.0817
     76  ND1        0.9430  -10.0590   50.9500 N.ar  104  HIS104     -0.2268
     77  CD2        1.0190   -9.8130   48.7800 C.ar  104  HIS104      0.1154
     78  CE1        2.2190  -10.0150   50.6000 C.ar  104  HIS104      0.1986
     79  NE2        2.2940   -9.8680   49.2950 N.ar  104  HIS104     -0.2212
     80  N         -5.9620  -12.2380   49.3590 N.3   106  VAL106     -0.1245
     81  CA        -5.9970  -13.3790   50.2390 C.3   106  VAL106      0.1561
     82  C         -7.2330  -14.2030   49.9650 C.2   106  VAL106      0.2260
     83  O         -8.3170  -13.6790   49.7350 O.2   106  VAL106     -0.2867
     84  CB        -5.9420  -12.9520   51.7080 C.3   106  VAL106      0.0252
     85  CG1       -5.0740  -11.7210   51.8400 C.3   106  VAL106      0.0019
     86  CG2       -7.3250  -12.6920   52.2590 C.3   106  VAL106      0.0019
     87  N         -9.3080  -18.2230   50.6140 N.3   108  LYS108     -0.1245
     88  CA        -9.3390  -19.4330   51.3980 C.3   108  LYS108      0.1561
     89  C        -10.3640  -20.3650   50.8340 C.2   108  LYS108      0.2260
     90  O        -11.4930  -19.9550   50.5950 O.2   108  LYS108     -0.2867
     91  CB        -9.6790  -19.1720   52.8510 C.3   108  LYS108      0.0271
     92  CG        -9.6540  -20.4640   53.6410 C.3   108  LYS108      0.0035
     93  CD       -10.2080  -20.3410   55.0300 C.3   108  LYS108      0.0206
     94  CE       -11.6830  -20.0690   54.9300 C.3   108  LYS108      0.1093
     95  NZ       -12.3340  -21.2610   54.3270 N.3   108  LYS108     -0.1314
     96  N         -9.7470  -24.9170   54.2250 N.3   112  GLY112     -0.1225
     97  CA        -9.1140  -23.8710   55.0190 C.3   112  GLY112      0.1811
     98  C         -7.9030  -23.2650   54.3150 C.2   112  GLY112      0.2280
     99  O         -7.3420  -22.2610   54.7530 O.2   112  GLY112     -0.2866
    100  N         -5.0470  -21.6460   51.7680 N.3   114  LEU114     -0.1245
    101  CA        -4.8680  -20.2690   51.3090 C.3   114  LEU114      0.1561
    102  C         -4.2470  -20.1420   49.9140 C.2   114  LEU114      0.2260
    103  O         -3.4270  -20.9650   49.4980 O.2   114  LEU114     -0.2867
    104  CB        -4.0030  -19.4990   52.2990 C.3   114  LEU114      0.0270
    105  CG        -4.6150  -19.3450   53.6870 C.3   114  LEU114      0.0019
    106  CD1       -3.6060  -18.7590   54.6550 C.3   114  LEU114      0.0001
    107  CD2       -5.8760  -18.5060   53.6500 C.3   114  LEU114      0.0001
    108  N         -2.6160  -16.8120   48.2290 N.3   116  VAL116     -0.1245
    109  CA        -2.3400  -15.4000   48.3540 C.3   116  VAL116      0.1561
    110  C         -1.5290  -15.0290   47.1770 C.2   116  VAL116      0.2260
    111  O         -0.6830  -15.7800   46.7400 O.2   116  VAL116     -0.2867
    112  CB        -1.6290  -15.0430   49.6570 C.3   116  VAL116      0.0252
    113  CG1       -1.5290  -13.5320   49.8110 C.3   116  VAL116      0.0019
    114  CG2       -2.3930  -15.6430   50.8360 C.3   116  VAL116      0.0019
    115  N          4.5740  -19.1620   53.6010 N.3   162  SER162     -0.1202
    116  CA         3.9040  -18.8900   54.8560 C.3   162  SER162      0.2020
    117  C          3.3110  -17.5130   54.7990 C.2   162  SER162      0.2619
    118  O          3.5630  -16.7610   53.8620 O.2   162  SER162     -0.2717
    119  CB         4.8780  -19.0130   56.0470 C.3   162  SER162      0.2103
    120  OG         5.6450  -17.8380   56.2590 O.3   162  SER162     -0.2182
    121  N          2.5430  -17.1650   55.8170 N.am  163  LEU163     -0.1965
    122  CA         2.0860  -15.8110   55.8950 C.3   163  LEU163      0.1728
    123  C          3.3120  -14.9700   56.1480 C.2   163  LEU163      0.2617
    124  O          4.2990  -15.4410   56.7060 O.2   163  LEU163     -0.2715
    125  CB         1.0230  -15.6380   56.9740 C.3   163  LEU163      0.0311
    126  CG        -0.2770  -16.3450   56.6010 C.3   163  LEU163      0.0022
    127  CD1       -1.3220  -16.1310   57.6610 C.3   163  LEU163      0.0001
    128  CD2       -0.7590  -15.8780   55.2420 C.3   163  LEU163      0.0001
    129  N          3.2610  -13.7400   55.6690 N.am  164  THR164     -0.1937
    130  CA         4.3900  -12.8470   55.7280 C.3   164  THR164      0.2028
    131  C          4.2600  -12.0060   56.9560 C.2   164  THR164      0.2642
    132  O          5.0780  -11.1360   57.2260 O.2   164  THR164     -0.2714
    133  CB         4.4160  -11.9420   54.5080 C.3   164  THR164      0.1808
    134  OG1        3.1610  -11.2590   54.4120 O.3   164  THR164     -0.2208
    135  CG2        4.5870  -12.7580   53.2580 C.3   164  THR164      0.0379
    136  N          3.2100  -12.2790   57.7080 N.am  165  ALA165     -0.1963
    137  CA         2.9550  -11.5660   58.9370 C.3   165  ALA165      0.1713
    138  C          2.4900  -12.5570   59.9710 C.2   165  ALA165      0.2458
    139  O          2.0080  -13.6280   59.6250 O.2   165  ALA165     -0.2730
    140  CB         1.9200  -10.4740   58.7170 C.3   165  ALA165      0.0333
    141  N          2.6860  -12.2340   61.2450 N.am  166  PRO166     -0.2716
    142  CA         2.1650  -13.1000   62.3010 C.3   166  PRO166      0.1521
    143  C          0.6780  -13.3470   62.0760 C.2   166  PRO166      0.2440
    144  O         -0.0380  -12.4140   61.7440 O.2   166  PRO166     -0.2731
    145  CB         2.4120  -12.2860   63.5670 C.3   166  PRO166      0.0310
    146  CG         3.6080  -11.4670   63.2280 C.3   166  PRO166      0.0237
    147  CD         3.4340  -11.0940   61.7900 C.3   166  PRO166      0.0939
    148  N          0.2180  -14.5870   62.2620 N.am  167  PRO167     -0.2727
    149  CA         0.9650  -15.6990   62.8560 C.3   167  PRO167      0.1402
    150  C          1.8960  -16.4450   61.8980 C.2   167  PRO167      0.2269
    151  O          2.3170  -17.5200   62.2710 O.2   167  PRO167     -0.2865
    152  CB        -0.1520  -16.6190   63.3510 C.3   167  PRO167      0.0296
    153  CG        -1.2480  -16.4070   62.3650 C.3   167  PRO167      0.0237
    154  CD        -1.1700  -14.9650   61.9410 C.3   167  PRO167      0.0939
    155  N          1.3850  -19.4680   46.8590 N.3   174  TRP174     -0.1241
    156  CA         1.7560  -18.1640   46.3470 C.3   174  TRP174      0.1605
    157  C          1.8390  -18.1630   44.8340 C.2   174  TRP174      0.2264
    158  O          2.4670  -19.0170   44.2280 O.2   174  TRP174     -0.2867
    159  CB         3.0750  -17.7080   46.9470 C.3   174  TRP174      0.0550
    160  CG         2.8900  -17.0940   48.2580 C.ar  174  TRP174      0.0003
    161  CD1        3.0730  -17.6770   49.4660 C.ar  174  TRP174      0.0946
    162  CD2        2.4880  -15.7460   48.5180 C.ar  174  TRP174      0.0152
    163  NE1        2.8080  -16.7800   50.4720 N.ar  174  TRP174     -0.2442
    164  CE2        2.4480  -15.5830   49.9100 C.ar  174  TRP174      0.0810
    165  CE3        2.1540  -14.6600   47.7040 C.ar  174  TRP174      0.0012
    166  CZ2        2.0860  -14.3760   50.5110 C.ar  174  TRP174      0.0191
    167  CZ3        1.7970  -13.4620   48.3060 C.ar  174  TRP174      0.0001
    168  CH2        1.7780  -13.3290   49.6930 C.ar  174  TRP174      0.0015
@<TRIPOS>BOND
     1   158   157    2
     2   157   156    1
     3   156   155    1
     4   156   159    1
     5   111   110    2
     6   159   160    1
     7   110   109    1
     8   165   167   ar
     9   165   162   ar
    10   108   109    1
    11   160   162   ar
    12   160   161   ar
    13   167   168   ar
    14   109   112    1
    15   162   164   ar
    16    70    71    1
    17    72    71    1
    18    72    73    2
    19    71    74    1
    20    77    79   ar
    21    77    75   ar
    22    79    78   ar
    23    80    81    1
    24   161   163   ar
    25   103   102    2
    26    45    44    2
    27   112   113    1
    28   112   114    1
    29    63    62    2
    30   168   166   ar
    31    83    82    2
    32    75    74    1
    33    75    76   ar
    34   164   163   ar
    35   164   166   ar
    36   102   101    1
    37    53    52    2
    38    82    81    1
    39    44    43    1
    40    81    84    1
    41    34    35    1
    42    90    89    2
    43    78    76   ar
    44    87    88    1
    45    50    51    1
    46    89    88    1
    47    62    61    1
    48    52    51    1
    49    60    61    1
    50    43    42    1
    51    43    46    1
    52    42    36   am
    53   101   100    1
    54   101   104    1
    55    88    91    1
    56    36    35    1
    57    36    37    2
    58    35    38    1
    59    51    54    1
    60    61    64    1
    61    84    85    1
    62    84    86    1
    63    64    65    1
    64   104   105    1
    65    46    47    1
    66    67    65   ar
    67    67    69   ar
    68    48    47    2
    69    65    66   ar
    70    38    39    1
    71    58    56   ar
    72    58    59   ar
    73    56    55   ar
    74    91    92    1
    75    47    49   am
    76    59    57   ar
    77    55    57   ar
    78    55    54    1
    79   135   133    1
    80   115   116    1
    81    27    26    1
    82    27    28    2
    83    92    93    1
    84   107   105    1
    85   105   106    1
    86    69    68   ar
    87   118   117    2
    88    66    68   ar
    89    26    25    1
    90    26    29    1
    91    39    40   ar
    92    39    41   ar
    93    96    97    1
    94    98    99    2
    95    98    97    1
    96    95    94    1
    97   134   133    1
    98   133   130    1
    99   117   116    1
   100   117   121   am
   101    30    29    1
   102    30    31    1
   103   116   119    1
   104    94    93    1
   105   128   126    1
   106   129   130    1
   107   129   123   am
   108   130   131    1
   109   121   122    1
   110   122   123    1
   111   122   125    1
   112    31    32    1
   113   119   120    1
   114   123   124    2
   115    32    33    1
   116   126   125    1
   117   126   127    1
   118   131   132    2
   119   131   136   am
   120   136   137    1
   121   140   137    1
   122   137   138    1
   123   139   138    2
   124   138   141   am
   125    18    17    2
   126    17    16    1
   127   141   147    1
   128   141   142    1
   129    19    16    1
   130    19    20    1
   131    15    16    1
   132   144   143    2
   133   147   146    1
   134   150   151    2
   135   150   149    1
   136   154   148    1
   137   154   153    1
   138   143   148   am
   139   143   142    1
   140   148   149    1
   141    21    20   ar
   142    21    23   ar
   143   142   145    1
   144   153   152    1
   145    20    22   ar
   146    14    13   ar
   147    14    12   ar
   148    13    11   ar
   149   149   152    1
   150   146   145    1
   151    23    24   ar
   152    22    24   ar
   153    12    10   ar
   154    11     8   ar
   155    10     8   ar
   156    10     9   ar
   157     8     6   ar
   158     4     3    2
   159     9     7   ar
   160     3     2    1
   161     6     7   ar
   162     6     5    1
   163     5     2    1
   164     2     1    1
