@<TRIPOS>MOLECULE
tmp/5tv6B00.pdb
 126 123 0 0 0
SMALL
GASTEIGER

@<TRIPOS>ATOM
      1  N          9.2340  -21.9210   -0.3670 N.3   154  ARG154     -0.1231
      2  CA         7.9850  -21.2010   -0.6080 C.3   154  ARG154      0.1694
      3  C          7.3650  -21.5940   -1.9430 C.2   154  ARG154      0.2592
      4  O          6.1320  -21.6680   -2.0610 O.2   154  ARG154     -0.2718
      5  CB         8.2090  -19.6960   -0.5450 C.3   154  ARG154      0.0321
      6  CG         8.2330  -19.1780    0.8700 C.3   154  ARG154      0.0489
      7  CD         8.4140  -17.6890    0.8820 C.3   154  ARG154      0.2205
      8  NE         8.5580  -17.1870    2.2450 N.pl3 154  ARG154     -0.0865
      9  CZ         7.5370  -16.9560    3.0580 C.cat 154  ARG154      0.5346
     10  NH1        6.2900  -17.1820    2.6430 N.pl3 154  ARG154      0.1354
     11  NH2        7.7620  -16.4970    4.2820 N.pl3 154  ARG154      0.1354
     12  N          8.1990  -21.8570   -2.9560 N.am  155  THR155     -0.1953
     13  CA         7.6740  -22.3430   -4.2250 C.3   155  THR155      0.1897
     14  C          7.0320  -23.7070   -4.0480 C.2   155  THR155      0.2313
     15  O          5.9340  -23.9660   -4.5630 O.2   155  THR155     -0.2863
     16  CB         8.7830  -22.4340   -5.2690 C.3   155  THR155      0.1794
     17  OG1        9.4660  -21.1760   -5.3850 O.3   155  THR155     -0.2208
     18  CG2        8.2000  -22.8510   -6.6200 C.3   155  THR155      0.0378
     19  N          3.6820  -23.0810   -2.5430 N.3   158  ALA158     -0.1245
     20  CA         2.7750  -22.3140   -3.3940 C.3   158  ALA158      0.1562
     21  C          2.3160  -23.1260   -4.6020 C.2   158  ALA158      0.2260
     22  O          1.1490  -23.0190   -5.0140 O.2   158  ALA158     -0.2867
     23  CB         3.4460  -21.0190   -3.8450 C.3   158  ALA158      0.0290
     24  N         -0.6870  -13.6030   -6.6670 N.3   175  CYS175     -0.1221
     25  CA        -0.1520  -13.8640   -5.3410 C.3   175  CYS175      0.1808
     26  C          1.2200  -13.2260   -5.1530 C.2   175  CYS175      0.2601
     27  O          2.0760  -13.2880   -6.0410 O.2   175  CYS175     -0.2717
     28  CB        -0.0540  -15.3680   -5.0980 C.3   175  CYS175      0.0970
     29  SG         0.8440  -15.7500   -3.5810 S.3   175  CYS175     -0.0800
     30  N          1.4250  -12.6120   -3.9940 N.am  176  TRP176     -0.1962
     31  CA         2.7830  -12.3920   -3.5290 C.3   176  TRP176      0.1771
     32  C          2.7740  -12.4620   -2.0160 C.2   176  TRP176      0.2620
     33  O          1.7170  -12.4600   -1.3810 O.2   176  TRP176     -0.2715
     34  CB         3.4030  -11.0920   -4.0580 C.3   176  TRP176      0.0590
     35  CG         2.8500   -9.7640   -3.5950 C.ar  176  TRP176      0.0006
     36  CD1        3.0880   -9.1460   -2.4000 C.ar  176  TRP176      0.0946
     37  CD2        2.0640   -8.8400   -4.3700 C.ar  176  TRP176      0.0152
     38  NE1        2.4710   -7.9150   -2.3710 N.ar  176  TRP176     -0.2442
     39  CE2        1.8290   -7.7050   -3.5600 C.ar  176  TRP176      0.0810
     40  CE3        1.5110   -8.8770   -5.6610 C.ar  176  TRP176      0.0012
     41  CZ2        1.0600   -6.6180   -3.9880 C.ar  176  TRP176      0.0191
     42  CZ3        0.7580   -7.7850   -6.0910 C.ar  176  TRP176      0.0001
     43  CH2        0.5460   -6.6690   -5.2550 C.ar  176  TRP176      0.0015
     44  N          3.9740  -12.5610   -1.4520 N.am  177  SER177     -0.1936
     45  CA         4.1470  -12.8990   -0.0470 C.3   177  SER177      0.2055
     46  C          3.8540  -11.7060    0.8480 C.2   177  SER177      0.2643
     47  O          3.9800  -10.5480    0.4410 O.2   177  SER177     -0.2714
     48  CB         5.5690  -13.3840    0.2070 C.3   177  SER177      0.2130
     49  OG         5.7040  -13.9150    1.5030 O.3   177  SER177     -0.2179
     50  N          3.4260  -11.9970    2.0740 N.am  178  ASP178     -0.1971
     51  CA         3.3460  -10.9530    3.0840 C.3   178  ASP178      0.1709
     52  C          4.6420  -10.8220    3.8650 C.2   178  ASP178      0.2293
     53  O          4.8350   -9.8190    4.5600 O.2   178  ASP178     -0.2864
     54  CB         2.1790  -11.2070    4.0470 C.3   178  ASP178      0.1436
     55  CG         2.3100  -12.5100    4.7850 C.2   178  ASP178      0.3671
     56  OD1        3.0410  -13.3940    4.3010 O.co2 178  ASP178     -0.2456
     57  OD2        1.6900  -12.6580    5.8520 O.co2 178  ASP178     -0.2456
     58  N         10.5510  -11.4570    1.2590 N.3   182  TYR182     -0.1241
     59  CA        10.3830  -12.3290    0.0940 C.3   182  TYR182      0.1605
     60  C          9.5110  -11.6240   -0.9390 C.2   182  TYR182      0.2264
     61  O          8.3010  -11.4590   -0.7380 O.2   182  TYR182     -0.2867
     62  CB         9.7890  -13.6700    0.5000 C.3   182  TYR182      0.0534
     63  CG         9.9140  -14.7600   -0.5490 C.ar  182  TYR182     -0.0201
     64  CD1        8.9390  -14.9410   -1.5300 C.ar  182  TYR182     -0.0009
     65  CD2       11.0040  -15.6190   -0.5540 C.ar  182  TYR182     -0.0009
     66  CE1        9.0550  -15.9510   -2.4800 C.ar  182  TYR182      0.0417
     67  CE2       11.1200  -16.6360   -1.4900 C.ar  182  TYR182      0.0417
     68  CZ        10.1470  -16.8000   -2.4500 C.ar  182  TYR182      0.1957
     69  OH        10.2830  -17.8140   -3.3730 O.3   182  TYR182     -0.2866
     70  N          9.2910  -12.3070   -4.4190 N.3   184  THR184     -0.1203
     71  CA         8.8270  -13.0240   -5.5960 C.3   184  THR184      0.1994
     72  C          7.4020  -13.5130   -5.3740 C.2   184  THR184      0.2618
     73  O          7.1010  -14.1190   -4.3430 O.2   184  THR184     -0.2717
     74  CB         9.7330  -14.1970   -5.9240 C.3   184  THR184      0.1784
     75  OG1       11.0430  -13.6890   -6.1980 O.3   184  THR184     -0.2211
     76  CG2        9.1920  -14.9460   -7.1600 C.3   184  THR184      0.0376
     77  N          6.5310  -13.2350   -6.3360 N.am  185  GLY185     -0.1942
     78  CA         5.1740  -13.7130   -6.2650 C.3   185  GLY185      0.2014
     79  C          4.8430  -14.4740   -7.5220 C.2   185  GLY185      0.2638
     80  O          5.7470  -14.9430   -8.2140 O.2   185  GLY185     -0.2714
     81  N          3.5720  -14.6160   -7.8520 N.am  186  TYR186     -0.1973
     82  CA         3.2760  -15.3280   -9.0770 C.3   186  TYR186      0.1639
     83  C          1.8990  -14.9420   -9.5530 C.2   186  TYR186      0.2290
     84  O          1.0970  -14.3340   -8.8450 O.2   186  TYR186     -0.2864
     85  CB         3.3790  -16.8590   -8.9190 C.3   186  TYR186      0.0560
     86  CG         2.4370  -17.4580   -7.9100 C.ar  186  TYR186     -0.0198
     87  CD1        1.1680  -17.9280   -8.2790 C.ar  186  TYR186     -0.0009
     88  CD2        2.8080  -17.5530   -6.5730 C.ar  186  TYR186     -0.0009
     89  CE1        0.2950  -18.4940   -7.3140 C.ar  186  TYR186      0.0417
     90  CE2        1.9630  -18.1010   -5.6220 C.ar  186  TYR186      0.0417
     91  CZ         0.7160  -18.5630   -5.9870 C.ar  186  TYR186      0.1957
     92  OH        -0.0820  -19.0920   -5.0140 O.3   186  TYR186     -0.2866
     93  N          2.2990  -21.4440  -14.2620 N.3   194  TYR194     -0.1241
     94  CA         2.7250  -20.8650  -12.9920 C.3   194  TYR194      0.1605
     95  C          3.8400  -19.8860  -13.3070 C.2   194  TYR194      0.2264
     96  O          4.9540  -20.3050  -13.6510 O.2   194  TYR194     -0.2867
     97  CB         3.1920  -21.9590  -12.0360 C.3   194  TYR194      0.0534
     98  CG         3.6550  -21.4780  -10.6780 C.ar  194  TYR194     -0.0201
     99  CD1        2.7370  -21.1570   -9.6810 C.ar  194  TYR194     -0.0009
    100  CD2        5.0150  -21.4020  -10.3710 C.ar  194  TYR194     -0.0009
    101  CE1        3.1540  -20.7350   -8.4270 C.ar  194  TYR194      0.0417
    102  CE2        5.4460  -20.9830   -9.1290 C.ar  194  TYR194      0.0417
    103  CZ         4.5090  -20.6470   -8.1580 C.ar  194  TYR194      0.1957
    104  OH         4.9380  -20.2290   -6.9180 O.3   194  TYR194     -0.2866
    105  N          6.2480  -17.1570  -12.1500 N.3   196  ARG196     -0.1245
    106  CA         6.9610  -16.4130  -11.1160 C.3   196  ARG196      0.1563
    107  C          7.4370  -15.0680  -11.6550 C.2   196  ARG196      0.2260
    108  O          7.9490  -14.9790  -12.7730 O.2   196  ARG196     -0.2867
    109  CB         8.1430  -17.2380  -10.6000 C.3   196  ARG196      0.0307
    110  CG         7.7580  -18.6970  -10.4880 C.3   196  ARG196      0.0489
    111  CD         8.8470  -19.5630   -9.9240 C.3   196  ARG196      0.2205
    112  NE         9.3560  -19.0680   -8.6540 N.pl3 196  ARG196     -0.0865
    113  CZ        10.6200  -18.7100   -8.4640 C.cat 196  ARG196      0.5346
    114  NH1       11.4880  -18.7970   -9.4770 N.pl3 196  ARG196      0.1354
    115  NH2       11.0100  -18.2760   -7.2720 N.pl3 196  ARG196      0.1354
    116  N         -3.2420  -13.0420   -1.5510 N.3   210  ARG210     -0.1245
    117  CA        -3.7710  -13.7730   -2.6880 C.3   210  ARG210      0.1563
    118  C         -5.1110  -13.2190   -3.1480 C.2   210  ARG210      0.2260
    119  O         -5.9540  -12.8210   -2.3330 O.2   210  ARG210     -0.2867
    120  CB        -3.9340  -15.2410   -2.3490 C.3   210  ARG210      0.0307
    121  CG        -2.6330  -15.9820   -2.2190 C.3   210  ARG210      0.0489
    122  CD        -2.9000  -17.4190   -1.8560 C.3   210  ARG210      0.2205
    123  NE        -1.8590  -18.3130   -2.3420 N.pl3 210  ARG210     -0.0865
    124  CZ        -0.8500  -18.7400   -1.5900 C.cat 210  ARG210      0.5346
    125  NH1       -0.7570  -18.3480   -0.3300 N.pl3 210  ARG210      0.1354
    126  NH2        0.0590  -19.5550   -2.0910 N.pl3 210  ARG210      0.1354
@<TRIPOS>BOND
     1    93    94    1
     2    96    95    2
     3    95    94    1
     4    94    97    1
     5   108   107    2
     6   105   106    1
     7    97    98    1
     8   107   106    1
     9   106   109    1
    10    98   100   ar
    11    98    99   ar
    12   109   110    1
    13   110   111    1
    14   100   102   ar
    15   111   112    1
    16    99   101   ar
    17    83    82    1
    18    83    84    2
    19   114   113    1
    20   102   103   ar
    21    82    85    1
    22    82    81    1
    23    85    86    1
    24   112   113    2
    25   113   115    1
    26   101   103   ar
    27    87    86   ar
    28    87    89   ar
    29    80    79    2
    30   103   104    1
    31    86    88   ar
    32    81    79   am
    33    79    78    1
    34    89    91   ar
    35    76    74    1
    36    24    25    1
    37    18    16    1
    38    88    90   ar
    39    77    78    1
    40    77    72   am
    41    75    74    1
    42    42    40   ar
    43    42    43   ar
    44    27    26    2
    45    91    90   ar
    46    91    92    1
    47    74    71    1
    48    40    37   ar
    49    71    72    1
    50    71    70    1
    51    17    16    1
    52    72    73    2
    53    25    26    1
    54    25    28    1
    55    16    13    1
    56    43    41   ar
    57    26    30   am
    58    28    29    1
    59    22    21    2
    60    21    20    1
    61    15    14    2
    62    37    35   ar
    63    37    39   ar
    64    13    14    1
    65    13    12    1
    66    34    35    1
    67    34    31    1
    68    30    31    1
    69    41    39   ar
    70    23    20    1
    71    35    36   ar
    72    39    38   ar
    73    31    32    1
    74    20    19    1
    75    69    68    1
    76   118   117    1
    77   118   119    2
    78    12     3   am
    79   117   120    1
    80   117   116    1
    81    66    68   ar
    82    66    64   ar
    83    68    67   ar
    84    36    38   ar
    85   120   121    1
    86   123   122    1
    87   123   124    2
    88   121   122    1
    89   126   124    1
    90     4     3    2
    91    32    44   am
    92    32    33    2
    93     3     2    1
    94   124   125    1
    95    64    63   ar
    96    67    65   ar
    97    44    45    1
    98    60    61    2
    99    60    59    1
   100     2     5    1
   101     2     1    1
   102    65    63   ar
   103    63    62    1
   104     5     6    1
   105    45    48    1
   106    45    46    1
   107    59    62    1
   108    59    58    1
   109    48    49    1
   110    47    46    2
   111    46    50   am
   112     6     7    1
   113     7     8    1
   114    50    51    1
   115     8     9    2
   116    10     9    1
   117     9    11    1
   118    51    52    1
   119    51    54    1
   120    52    53    2
   121    54    55    1
   122    56    55   ar
   123    55    57   ar
