@<TRIPOS>MOLECULE
tmp/5tv7A00.pdb
 72 66 0 0 0
SMALL
GASTEIGER

@<TRIPOS>ATOM
      1  N         23.1300   23.1130    5.6750 N.3    85  VAL85      -0.1245
      2  CA        23.9490   23.5480    4.5680 C.3    85  VAL85       0.1561
      3  C         23.0270   24.1980    3.5420 C.2    85  VAL85       0.2260
      4  O         22.0230   23.5930    3.1550 O.2    85  VAL85      -0.2867
      5  CB        24.7190   22.3640    3.9470 C.3    85  VAL85       0.0252
      6  CG1       25.4970   22.8110    2.7210 C.3    85  VAL85       0.0019
      7  CG2       25.6740   21.7640    4.9700 C.3    85  VAL85       0.0019
      8  N         22.9300   26.5420   -0.2860 N.3    87  ARG87      -0.1245
      9  CA        23.7000   26.8540   -1.4790 C.3    87  ARG87       0.1563
     10  C         22.8160   27.4740   -2.5470 C.2    87  ARG87       0.2260
     11  O         21.5930   27.5850   -2.3760 O.2    87  ARG87      -0.2867
     12  CB        24.3410   25.5720   -1.9920 C.3    87  ARG87       0.0307
     13  CG        23.3420   24.4450   -2.1560 C.3    87  ARG87       0.0489
     14  CD        24.0430   23.1290   -2.4120 C.3    87  ARG87       0.2205
     15  NE        24.8010   23.1310   -3.6560 N.pl3  87  ARG87      -0.0865
     16  CZ        25.5740   22.1270   -4.0460 C.cat  87  ARG87       0.5346
     17  NH1       25.6840   21.0490   -3.2860 N.pl3  87  ARG87       0.1354
     18  NH2       26.2320   22.2010   -5.1910 N.pl3  87  ARG87       0.1354
     19  N         34.1460   34.1170    2.2370 N.3   126  GLN126     -0.1245
     20  CA        35.0060   32.9730    2.5130 C.3   126  GLN126      0.1566
     21  C         36.4690   33.2800    2.2100 C.2   126  GLN126      0.2260
     22  O         37.3640   32.9100    2.9900 O.2   126  GLN126     -0.2867
     23  CB        34.5140   31.7470    1.7420 C.3   126  GLN126      0.0367
     24  CG        33.2360   31.1870    2.3260 C.3   126  GLN126      0.0905
     25  CD        32.5260   30.2110    1.4200 C.2   126  GLN126      0.2608
     26  OE1       32.6610   30.2610    0.1960 O.2   126  GLN126     -0.2717
     27  NE2       31.7150   29.3470    2.0190 N.am  126  GLN126     -0.0878
     28  N         37.3140   27.8620    2.9070 N.3   132  SER132     -0.1217
     29  CA        37.2340   27.3340    1.5540 C.3   132  SER132      0.1889
     30  C         36.1030   28.0900    0.8350 C.2   132  SER132      0.2288
     31  O         34.9840   28.1980    1.3400 O.2   132  SER132     -0.2866
     32  CB        36.9720   25.8300    1.5620 C.3   132  SER132      0.2089
     33  OG        38.1370   25.1360    1.9370 O.3   132  SER132     -0.2183
     34  N         33.8460   27.8100   -1.5120 N.3   134  ASP134     -0.1239
     35  CA        32.9700   26.9770   -2.3440 C.3   134  ASP134      0.1674
     36  C         31.5720   27.5710   -2.5740 C.2   134  ASP134      0.2266
     37  O         30.7610   26.9680   -3.2740 O.2   134  ASP134     -0.2867
     38  CB        32.8520   25.5640   -1.7460 C.3   134  ASP134      0.1410
     39  CG        32.3250   25.5640   -0.3100 C.2   134  ASP134      0.3668
     40  OD1       31.9120   26.6380    0.1870 O.co2 134  ASP134     -0.2456
     41  OD2       32.3210   24.4810    0.3220 O.co2 134  ASP134     -0.2456
     42  N         29.2030   27.7570   -0.5260 N.3   136  ILE136     -0.1245
     43  CA        28.2250   27.0080    0.2370 C.3   136  ILE136      0.1561
     44  C         28.2960   27.4140    1.6970 C.2   136  ILE136      0.2260
     45  O         29.3730   27.4940    2.2840 O.2   136  ILE136     -0.2867
     46  CB        28.4800   25.5010    0.0820 C.3   136  ILE136      0.0252
     47  CG1       28.3090   25.1170   -1.3950 C.3   136  ILE136      0.0019
     48  CG2       27.5300   24.6940    0.9640 C.3   136  ILE136      0.0019
     49  CD1       28.4800   23.6530   -1.6700 C.3   136  ILE136      0.0001
     50  N         27.9260   26.3010    5.1130 N.3   138  GLY138     -0.1210
     51  CA        27.8720   25.1500    5.9870 C.3   138  GLY138      0.1940
     52  C         28.3890   25.5810    7.3470 C.2   138  GLY138      0.2454
     53  O         28.5700   26.7790    7.5940 O.2   138  GLY138     -0.2732
     54  N         28.6360   24.6210    8.2280 N.am  139  PRO139     -0.2717
     55  CA        29.0700   24.8840    9.6060 C.3   139  PRO139      0.1535
     56  C         30.1720   25.9210    9.8010 C.2   139  PRO139      0.2598
     57  O         30.0110   26.8190   10.6200 O.2   139  PRO139     -0.2715
     58  CB        29.5460   23.5040   10.0770 C.3   139  PRO139      0.0310
     59  CG        28.6380   22.5590    9.3620 C.3   139  PRO139      0.0237
     60  CD        28.3330   23.1880    8.0210 C.3   139  PRO139      0.0939
     61  N         31.2730   25.8070    9.0630 N.am  140  ALA140     -0.1964
     62  CA        32.3870   26.7480    9.2290 C.3   140  ALA140      0.1728
     63  C         31.9960   28.1730    8.8350 C.2   140  ALA140      0.2616
     64  O         32.3770   29.1270    9.5050 O.2   140  ALA140     -0.2715
     65  CB        33.6010   26.2940    8.4290 C.3   140  ALA140      0.0334
     66  N         31.2390   28.3090    7.7500 N.am  141  THR141     -0.1951
     67  CA        30.8380   29.6320    7.2820 C.3   141  THR141      0.1897
     68  C         29.7910   30.2530    8.2290 C.2   141  THR141      0.2313
     69  O         29.8510   31.4540    8.5020 O.2   141  THR141     -0.2863
     70  CB        30.3510   29.5840    5.8190 C.3   141  THR141      0.1794
     71  OG1       31.4280   29.1230    4.9930 O.3   141  THR141     -0.2208
     72  CG2       29.9100   30.9730    5.3300 C.3   141  THR141      0.0378
@<TRIPOS>BOND
     1    18    16    1
     2    16    15    2
     3    16    17    1
     4    15    14    1
     5    37    36    2
     6    36    35    1
     7    10    11    2
     8    10     9    1
     9    14    13    1
    10    35    38    1
    11    35    34    1
    12    13    12    1
    13    12     9    1
    14    38    39    1
    15    49    47    1
    16     9     8    1
    17    47    46    1
    18    42    43    1
    19    39    40   ar
    20    39    41   ar
    21    46    43    1
    22    46    48    1
    23    26    25    2
    24    43    44    1
    25    30    31    2
    26    30    29    1
    27    25    27   am
    28    25    24    1
    29    29    32    1
    30    29    28    1
    31    32    33    1
    32    44    45    2
    33    23    24    1
    34    23    20    1
    35    21    20    1
    36    21    22    2
    37    19    20    1
    38     6     5    1
    39     4     3    2
    40     3     2    1
    41     5     2    1
    42     5     7    1
    43     2     1    1
    44    71    70    1
    45    50    51    1
    46    72    70    1
    47    70    67    1
    48    51    52    1
    49    67    66    1
    50    67    68    1
    51    52    53    2
    52    52    54   am
    53    66    63   am
    54    60    54    1
    55    60    59    1
    56    54    55    1
    57    68    69    2
    58    65    62    1
    59    63    62    1
    60    63    64    2
    61    61    62    1
    62    61    56   am
    63    59    58    1
    64    55    56    1
    65    55    58    1
    66    56    57    2
