@<TRIPOS>MOLECULE
tmp/5tv8B00.pdb
 210 205 0 0 0
SMALL
GASTEIGER

@<TRIPOS>ATOM
      1  N         15.1200   41.2490   22.0600 N.3    15  HIS15      -0.1226
      2  CA        13.8370   41.1860   22.7590 C.3    15  HIS15       0.1752
      3  C         13.2450   42.5640   23.0060 C.2    15  HIS15       0.2596
      4  O         13.8660   43.3990   23.6430 O.2    15  HIS15      -0.2718
      5  CB        13.9990   40.4410   24.0900 C.3    15  HIS15       0.0759
      6  CG        12.7320   40.3340   24.8850 C.ar   15  HIS15       0.0818
      7  ND1       11.8100   39.3280   24.6870 N.ar   15  HIS15      -0.2268
      8  CD2       12.2300   41.1130   25.8730 C.ar   15  HIS15       0.1154
      9  CE1       10.8000   39.4880   25.5230 C.ar   15  HIS15       0.1986
     10  NE2       11.0270   40.5680   26.2480 N.ar   15  HIS15      -0.2212
     11  N         12.0360   42.7940   22.5100 N.am   16  VAL16      -0.1966
     12  CA        11.3870   44.0970   22.6570 C.3    16  VAL16       0.1727
     13  C         10.0930   44.0710   23.4610 C.2    16  VAL16       0.2617
     14  O          9.6640   45.1130   23.9460 O.2    16  VAL16      -0.2715
     15  CB        11.1210   44.8030   21.3040 C.3    16  VAL16       0.0290
     16  CG1       12.4360   45.1640   20.6190 C.3    16  VAL16       0.0023
     17  CG2       10.2210   43.9600   20.4080 C.3    16  VAL16       0.0023
     18  N          9.4820   42.8960   23.6060 N.am   17  SER17      -0.1936
     19  CA         8.1830   42.7780   24.2680 C.3    17  SER17       0.2055
     20  C          7.8710   41.3390   24.6140 C.2    17  SER17       0.2643
     21  O          8.4220   40.4080   24.0250 O.2    17  SER17      -0.2714
     22  CB         7.0700   43.3450   23.3870 C.3    17  SER17       0.2130
     23  OG         5.8420   43.4040   24.0880 O.3    17  SER17      -0.2179
     24  N          6.9750   41.1610   25.5740 N.am   18  GLY18      -0.1954
     25  CA         6.6280   39.8350   26.0580 C.3    18  GLY18       0.1869
     26  C          5.5760   39.9120   27.1410 C.2    18  GLY18       0.2309
     27  O          5.6440   40.7580   28.0310 O.2    18  GLY18      -0.2863
     28  N          0.4250   44.3890   21.3220 N.3    38  ARG38      -0.1245
     29  CA         1.1810   44.9640   22.4230 C.3    38  ARG38       0.1563
     30  C          2.5280   45.6120   22.0210 C.2    38  ARG38       0.2260
     31  O          2.7580   46.7940   22.3360 O.2    38  ARG38      -0.2867
     32  CB         1.3460   43.9290   23.5320 C.3    38  ARG38       0.0307
     33  CG         2.3350   44.3000   24.6160 C.3    38  ARG38       0.0489
     34  CD         2.3740   43.2030   25.6590 C.3    38  ARG38       0.2205
     35  NE         3.2250   43.5530   26.7840 N.pl3  38  ARG38      -0.0865
     36  CZ         2.8130   44.2430   27.8380 C.cat  38  ARG38       0.5346
     37  NH1        1.5610   44.6580   27.9110 N.pl3  38  ARG38       0.1354
     38  NH2        3.6560   44.5160   28.8190 N.pl3  38  ARG38       0.1354
     39  N         21.9540   42.4900   30.5290 N.3   110  ASN110     -0.1225
     40  CA        20.9260   41.9510   31.4140 C.3   110  ASN110      0.1785
     41  C         20.5950   40.4810   31.1940 C.2   110  ASN110      0.2597
     42  O         20.6490   39.9910   30.0670 O.2   110  ASN110     -0.2718
     43  CB        19.6520   42.7850   31.2900 C.3   110  ASN110      0.1169
     44  CG        19.7910   44.1480   31.9260 C.2   110  ASN110      0.2627
     45  OD1       20.2440   44.2730   33.0660 O.2   110  ASN110     -0.2716
     46  ND2       19.4050   45.1800   31.1920 N.am  110  ASN110     -0.0877
     47  N         20.2540   39.7910   32.2850 N.am  111  MET111     -0.1965
     48  CA        19.7020   38.4340   32.2330 C.3   111  MET111      0.1736
     49  C         18.2680   38.5120   31.7370 C.2   111  MET111      0.2616
     50  O         17.5910   39.5090   31.9690 O.2   111  MET111     -0.2715
     51  CB        19.6980   37.8030   33.6240 C.3   111  MET111      0.0427
     52  CG        21.0640   37.6890   34.2810 C.3   111  MET111      0.0599
     53  SD        20.9880   37.2960   36.0420 S.3   111  MET111     -0.1393
     54  CE        20.2450   35.6670   36.0390 C.3   111  MET111      0.0692
     55  N         17.7930   37.4700   31.0600 N.am  112  ARG112     -0.1963
     56  CA        16.3890   37.4310   30.6550 C.3   112  ARG112      0.1729
     57  C         15.5330   36.9660   31.8430 C.2   112  ARG112      0.2617
     58  O         14.3000   37.0390   31.8010 O.2   112  ARG112     -0.2715
     59  CB        16.1820   36.5560   29.4040 C.3   112  ARG112      0.0348
     60  CG        15.1780   37.1170   28.3890 C.3   112  ARG112      0.0492
     61  CD        15.2960   36.4060   27.0410 C.3   112  ARG112      0.2205
     62  NE        14.2820   36.8040   26.0540 N.pl3 112  ARG112     -0.0865
     63  CZ        14.1360   36.2420   24.8500 C.cat 112  ARG112      0.5346
     64  NH1       14.9320   35.2500   24.4660 N.pl3 112  ARG112      0.1354
     65  NH2       13.1880   36.6640   24.0210 N.pl3 112  ARG112      0.1354
     66  N         16.1990   36.5280   32.9130 N.am  113  GLY113     -0.1940
     67  CA        15.5160   36.0300   34.1040 C.3   113  GLY113      0.2014
     68  C         16.1350   36.4210   35.4340 C.2   113  GLY113      0.2638
     69  O         16.9580   37.3400   35.5140 O.2   113  GLY113     -0.2714
     70  N         15.7360   35.7110   36.4870 N.am  114  ALA114     -0.1977
     71  CA        16.1000   36.0900   37.8500 C.3   114  ALA114      0.1597
     72  C         17.2610   35.2860   38.4080 C.2   114  ALA114      0.2287
     73  O         17.4220   34.1120   38.0830 O.2   114  ALA114     -0.2864
     74  CB        14.8970   35.9820   38.7740 C.3   114  ALA114      0.0319
     75  N         16.3800   31.9250   36.3210 N.3   133  VAL133     -0.1231
     76  CA        15.0150   31.4020   36.3160 C.3   133  VAL133      0.1692
     77  C         14.0780   32.4150   35.6840 C.2   133  VAL133      0.2592
     78  O         14.3160   33.6230   35.7530 O.2   133  VAL133     -0.2718
     79  CB        14.4750   31.1280   37.7330 C.3   133  VAL133      0.0266
     80  CG1       13.6830   29.8270   37.7620 C.3   133  VAL133      0.0020
     81  CG2       15.6020   31.0840   38.7420 C.3   133  VAL133      0.0020
     82  N         13.0170   31.9060   35.0650 N.am  134  ARG134     -0.1966
     83  CA        11.9170   32.7240   34.5790 C.3   134  ARG134      0.1729
     84  C         10.6140   32.2180   35.1890 C.2   134  ARG134      0.2617
     85  O         10.1690   31.1020   34.8970 O.2   134  ARG134     -0.2715
     86  CB        11.8540   32.7310   33.0460 C.3   134  ARG134      0.0348
     87  CG        12.8020   33.7350   32.4040 C.3   134  ARG134      0.0492
     88  CD        12.4730   34.0000   30.9390 C.3   134  ARG134      0.2205
     89  NE        11.1700   34.6480   30.7510 N.pl3 134  ARG134     -0.0865
     90  CZ        10.9700   35.9630   30.6270 C.cat 134  ARG134      0.5346
     91  NH1       11.9820   36.8210   30.6710 N.pl3 134  ARG134      0.1354
     92  NH2        9.7420   36.4280   30.4540 N.pl3 134  ARG134      0.1354
     93  N         10.0370   33.0400   36.0630 N.am  135  THR135     -0.1937
     94  CA         8.7230   32.8000   36.6450 C.3   135  THR135      0.2028
     95  C          7.6970   32.9400   35.5460 C.2   135  THR135      0.2642
     96  O          7.6350   33.9800   34.8900 O.2   135  THR135     -0.2714
     97  CB         8.3940   33.8680   37.7000 C.3   135  THR135      0.1808
     98  OG1        9.4680   33.9890   38.6450 O.3   135  THR135     -0.2208
     99  CG2        7.0960   33.5440   38.4150 C.3   135  THR135      0.0379
    100  N          6.9000   31.9030   35.3260 N.am  136  ILE136     -0.1977
    101  CA         5.8760   31.9550   34.2810 C.3   136  ILE136      0.1596
    102  C          4.5840   31.3060   34.7540 C.2   136  ILE136      0.2287
    103  O          4.4680   30.9570   35.9230 O.2   136  ILE136     -0.2864
    104  CB         6.3470   31.3040   32.9630 C.3   136  ILE136      0.0276
    105  CG1        6.8730   29.8840   33.2070 C.3   136  ILE136      0.0022
    106  CG2        7.3850   32.1670   32.2560 C.3   136  ILE136      0.0022
    107  CD1        6.8470   29.0030   31.9730 C.3   136  ILE136      0.0001
    108  N          1.5700   32.3730   35.4400 N.3   138  PHE138     -0.1241
    109  CA         0.7910   33.0740   36.4690 C.3   138  PHE138      0.1605
    110  C         -0.0380   34.1470   35.7860 C.2   138  PHE138      0.2264
    111  O          0.3450   34.6350   34.7260 O.2   138  PHE138     -0.2867
    112  CB         1.7080   33.7210   37.5120 C.3   138  PHE138      0.0534
    113  CG         2.6080   34.7900   36.9490 C.ar  138  PHE138     -0.0203
    114  CD1        3.8420   34.4620   36.3990 C.ar  138  PHE138     -0.0042
    115  CD2        2.2150   36.1210   36.9540 C.ar  138  PHE138     -0.0042
    116  CE1        4.6630   35.4450   35.8690 C.ar  138  PHE138     -0.0003
    117  CE2        3.0260   37.1060   36.4200 C.ar  138  PHE138     -0.0003
    118  CZ         4.2530   36.7710   35.8830 C.ar  138  PHE138     -0.0000
    119  N          2.9890   48.6280   34.8920 N.3   158  ARG158     -0.1245
    120  CA         4.0970   47.7910   35.3550 C.3   158  ARG158      0.1563
    121  C          3.7960   47.2320   36.7350 C.2   158  ARG158      0.2260
    122  O          4.0870   46.0710   37.0000 O.2   158  ARG158     -0.2867
    123  CB         5.4340   48.5460   35.3480 C.3   158  ARG158      0.0307
    124  CG         5.8040   49.1120   33.9830 C.3   158  ARG158      0.0489
    125  CD         7.2080   49.6840   33.9500 C.3   158  ARG158      0.2205
    126  NE         8.1640   48.7360   33.3850 N.pl3 158  ARG158     -0.0865
    127  CZ         8.7100   48.8480   32.1780 C.cat 158  ARG158      0.5346
    128  NH1        8.4080   49.8780   31.4010 N.pl3 158  ARG158      0.1354
    129  NH2        9.5660   47.9280   31.7500 N.pl3 158  ARG158      0.1354
    130  N          3.5820   38.8560   39.3350 N.3   165  LEU165     -0.1245
    131  CA         4.8520   38.1650   39.2790 C.3   165  LEU165      0.1561
    132  C          5.4160   37.8470   40.6790 C.2   165  LEU165      0.2260
    133  O          5.5740   36.6640   40.9950 O.2   165  LEU165     -0.2867
    134  CB         5.8160   38.9510   38.3820 C.3   165  LEU165      0.0270
    135  CG         7.2420   38.5020   38.0320 C.3   165  LEU165      0.0019
    136  CD1        7.5060   37.0300   38.2890 C.3   165  LEU165      0.0001
    137  CD2        7.5820   38.8640   36.5900 C.3   165  LEU165      0.0001
    138  N         14.1170   43.7770   43.0260 N.3   179  CYS179     -0.1221
    139  CA        13.8940   43.9550   41.5910 C.3   179  CYS179      0.1808
    140  C         13.8810   45.4220   41.1770 C.2   179  CYS179      0.2601
    141  O         13.3500   46.2600   41.8960 O.2   179  CYS179     -0.2717
    142  CB        12.5620   43.3190   41.1700 C.3   179  CYS179      0.0970
    143  SG        11.9960   43.8610   39.5400 S.3   179  CYS179     -0.0800
    144  N         14.4680   45.7140   40.0190 N.am  180  TRP180     -0.1962
    145  CA        14.1890   46.9500   39.3080 C.3   180  TRP180      0.1771
    146  C         14.3280   46.7940   37.7870 C.2   180  TRP180      0.2620
    147  O         15.0930   45.9660   37.3140 O.2   180  TRP180     -0.2715
    148  CB        14.9520   48.1490   39.8930 C.3   180  TRP180      0.0590
    149  CG        16.4550   48.1860   39.7560 C.ar  180  TRP180      0.0006
    150  CD1       17.1640   48.5880   38.6580 C.ar  180  TRP180      0.0946
    151  CD2       17.4290   47.8930   40.7730 C.ar  180  TRP180      0.0152
    152  NE1       18.5090   48.5290   38.9140 N.ar  180  TRP180     -0.2442
    153  CE2       18.7040   48.1070   40.2030 C.ar  180  TRP180      0.0810
    154  CE3       17.3490   47.4460   42.1000 C.ar  180  TRP180      0.0012
    155  CZ2       19.8990   47.8940   40.9160 C.ar  180  TRP180      0.0191
    156  CZ3       18.5370   47.2300   42.8120 C.ar  180  TRP180      0.0001
    157  CH2       19.7970   47.4560   42.2110 C.ar  180  TRP180      0.0015
    158  N         13.5490   47.5730   37.0370 N.am  181  SER181     -0.1936
    159  CA        13.4050   47.4170   35.5850 C.3   181  SER181      0.2055
    160  C         14.6980   47.6970   34.8280 C.2   181  SER181      0.2643
    161  O         15.5350   48.4870   35.2710 O.2   181  SER181     -0.2714
    162  CB        12.2910   48.3330   35.0620 C.3   181  SER181      0.2130
    163  OG        12.0090   48.0930   33.6920 O.3   181  SER181     -0.2179
    164  N         14.8620   47.0420   33.6820 N.am  182  ASP182     -0.1957
    165  CA        16.0120   47.3250   32.8290 C.3   182  ASP182      0.1840
    166  C         15.7790   48.5590   31.9470 C.2   182  ASP182      0.2622
    167  O         16.7360   49.1710   31.4630 O.2   182  ASP182     -0.2715
    168  CB        16.4530   46.0900   32.0250 C.3   182  ASP182      0.1450
    169  CG        15.2900   45.2790   31.4870 C.2   182  ASP182      0.3671
    170  OD1       14.3540   45.8700   30.9020 O.co2 182  ASP182     -0.2456
    171  OD2       15.3280   44.0380   31.6390 O.co2 182  ASP182     -0.2456
    172  N         14.5060   48.9130   31.7610 N.am  183  ASP183     -0.1971
    173  CA        14.0990   50.1670   31.1320 C.3   183  ASP183      0.1709
    174  C         14.8680   51.3510   31.7340 C.2   183  ASP183      0.2293
    175  O         14.8740   51.5230   32.9540 O.2   183  ASP183     -0.2864
    176  CB        12.5970   50.3650   31.3490 C.3   183  ASP183      0.1436
    177  CG        12.0090   51.4940   30.5120 C.2   183  ASP183      0.3671
    178  OD1       12.6570   52.5500   30.3220 O.co2 183  ASP183     -0.2456
    179  OD2       10.8590   51.3230   30.0610 O.co2 183  ASP183     -0.2456
    180  N         19.1040   46.4220   34.6170 N.3   212  GLY212     -0.1210
    181  CA        18.0480   46.0610   35.5570 C.3   212  GLY212      0.1956
    182  C         18.3110   44.6580   36.0600 C.2   212  GLY212      0.2612
    183  O         19.4120   44.1370   35.8760 O.2   212  GLY212     -0.2717
    184  N         17.3160   44.0450   36.6990 N.am  213  GLY213     -0.1942
    185  CA        17.4500   42.6740   37.1820 C.3   213  GLY213      0.2014
    186  C         16.5340   42.2790   38.3220 C.2   213  GLY213      0.2638
    187  O         15.8220   43.1090   38.8790 O.2   213  GLY213     -0.2714
    188  N         16.5640   40.9980   38.6710 N.am  214  ARG214     -0.1977
    189  CA        15.6990   40.4490   39.7090 C.3   214  ARG214      0.1597
    190  C         16.4960   39.4070   40.5100 C.2   214  ARG214      0.2287
    191  O         17.1940   38.5750   39.9310 O.2   214  ARG214     -0.2864
    192  CB        14.4550   39.8260   39.0620 C.3   214  ARG214      0.0334
    193  CG        13.1320   40.1320   39.7470 C.3   214  ARG214      0.0492
    194  CD        11.9150   39.6480   38.9520 C.3   214  ARG214      0.2205
    195  NE        11.4880   40.5730   37.8980 N.pl3 214  ARG214     -0.0865
    196  CZ        10.3060   41.1890   37.8500 C.cat 214  ARG214      0.5346
    197  NH1        9.3960   40.9920   38.7880 N.pl3 214  ARG214      0.1354
    198  NH2       10.0290   42.0090   36.8500 N.pl3 214  ARG214      0.1354
    199  N         15.8820   36.5510   43.4690 N.3   216  TYR216     -0.1241
    200  CA        15.0020   35.7930   44.3550 C.3   216  TYR216      0.1605
    201  C         15.8140   35.2040   45.4940 C.2   216  TYR216      0.2264
    202  O         16.8300   34.5590   45.2540 O.2   216  TYR216     -0.2867
    203  CB        14.3070   34.6550   43.6040 C.3   216  TYR216      0.0534
    204  CG        13.4270   35.0540   42.4310 C.ar  216  TYR216     -0.0201
    205  CD1       13.1020   36.3890   42.1730 C.ar  216  TYR216     -0.0009
    206  CD2       12.8900   34.0770   41.5970 C.ar  216  TYR216     -0.0009
    207  CE1       12.2900   36.7320   41.1050 C.ar  216  TYR216      0.0417
    208  CE2       12.0760   34.4110   40.5310 C.ar  216  TYR216      0.0417
    209  CZ        11.7810   35.7350   40.2910 C.ar  216  TYR216      0.1957
    210  OH        10.9720   36.0530   39.2350 O.3   216  TYR216     -0.2866
@<TRIPOS>BOND
     1    17    15    1
     2    16    15    1
     3    15    12    1
     4    28    29    1
     5    30    31    2
     6    30    29    1
     7     1     2    1
     8    29    32    1
     9    11    12    1
    10    11     3   am
    11    12    13    1
    12     2     3    1
    13     2     5    1
    14     3     4    2
    15    22    23    1
    16    22    19    1
    17    13    18   am
    18    13    14    2
    19    32    33    1
    20    18    19    1
    21    65    63    1
    22    21    20    2
    23     5     6    1
    24    19    20    1
    25    64    63    1
    26    20    24   am
    27    33    34    1
    28     7     6   ar
    29     7     9   ar
    30    63    62    2
    31     6     8   ar
    32     9    10   ar
    33    24    25    1
    34    34    35    1
    35     8    10   ar
    36    62    61    1
    37    25    26    1
    38    35    36    2
    39    61    60    1
    40    26    27    2
    41    36    37    1
    42    36    38    1
    43    60    59    1
    44    59    56    1
    45   179   177   ar
    46    42    41    2
    47   178   177   ar
    48    92    90    1
    49   177   176    1
    50    39    40    1
    51    90    91    1
    52    90    89    2
    53    56    55    1
    54    56    57    1
    55    89    88    1
    56   170   169   ar
    57    88    87    1
    58    55    49   am
    59   173   176    1
    60   173   174    1
    61   173   172    1
    62    46    44   am
    63    41    40    1
    64    41    47   am
    65    43    40    1
    66    43    44    1
    67   128   127    1
    68   167   166    2
    69   169   171   ar
    70   169   168    1
    71   174   175    2
    72    49    50    2
    73    49    48    1
    74   129   127    1
    75   172   166   am
    76    58    57    2
    77    57    66   am
    78    44    45    2
    79   166   165    1
    80   107   105    1
    81   168   165    1
    82   127   126    2
    83    48    47    1
    84    48    51    1
    85   106   104    1
    86    87    86    1
    87   165   164    1
    88    66    67    1
    89   104   105    1
    90   104   101    1
    91    86    83    1
    92   126   125    1
    93    51    52    1
    94   164   160   am
    95   163   162    1
    96   125   124    1
    97   124   123    1
    98    67    68    1
    99    52    53    1
   100   101   102    1
   101   101   100    1
   102    83    82    1
   103    83    84    1
   104   180   181    1
   105   111   110    2
   106   102   103    2
   107   160   161    2
   108   160   159    1
   109    96    95    2
   110   119   120    1
   111    85    84    2
   112   162   159    1
   113    82    77   am
   114    84    93   am
   115   100    95   am
   116   123   120    1
   117   120   121    1
   118    68    69    2
   119    68    70   am
   120   108   109    1
   121    95    94    1
   122   181   182    1
   123   159   158    1
   124    77    78    2
   125    77    76    1
   126   110   109    1
   127   116   118   ar
   128   116   114   ar
   129   183   182    2
   130   118   117   ar
   131    54    53    1
   132   182   184   am
   133    93    94    1
   134    76    75    1
   135    76    79    1
   136   114   113   ar
   137   117   115   ar
   138   109   112    1
   139    70    71    1
   140   137   135    1
   141    94    97    1
   142   184   185    1
   143   121   122    2
   144   198   196    1
   145   113   115   ar
   146   113   112    1
   147   158   146   am
   148   185   186    1
   149   147   146    2
   150    97    99    1
   151    97    98    1
   152    79    80    1
   153    79    81    1
   154   146   145    1
   155    71    72    1
   156    71    74    1
   157   196   195    2
   158   196   197    1
   159   195   194    1
   160   135   136    1
   161   135   134    1
   162    73    72    2
   163   186   188   am
   164   186   187    2
   165   134   131    1
   166   150   152   ar
   167   150   149   ar
   168   188   189    1
   169   152   153   ar
   170   194   193    1
   171   192   189    1
   172   192   193    1
   173   210   209    1
   174   131   130    1
   175   131   132    1
   176   145   148    1
   177   145   144    1
   178   143   142    1
   179   189   190    1
   180   149   148    1
   181   149   151   ar
   182   191   190    2
   183   144   140   am
   184   153   151   ar
   185   153   155   ar
   186   209   208   ar
   187   209   207   ar
   188   208   206   ar
   189   132   133    2
   190   151   154   ar
   191   155   157   ar
   192   207   205   ar
   193   142   139    1
   194   140   139    1
   195   140   141    2
   196   139   138    1
   197   206   204   ar
   198   154   156   ar
   199   205   204   ar
   200   157   156   ar
   201   204   203    1
   202   199   200    1
   203   203   200    1
   204   200   201    1
   205   202   201    2
