@<TRIPOS>MOLECULE
tmp/5tvaA00.pdb
 159 155 0 0 0
SMALL
GASTEIGER

@<TRIPOS>ATOM
      1  N         -8.2190    7.5510  -23.0560 N.3    15  HIS15      -0.1241
      2  CA        -7.1420    7.8080  -24.0070 C.3    15  HIS15       0.1621
      3  C         -7.2640    9.2220  -24.5820 C.2    15  HIS15       0.2264
      4  O         -8.2930    9.5830  -25.1580 O.2    15  HIS15      -0.2867
      5  CB        -7.1960    6.7460  -25.1140 C.3    15  HIS15       0.0745
      6  CG        -6.1650    6.9180  -26.1940 C.ar   15  HIS15       0.0817
      7  ND1       -4.9330    6.2950  -26.1560 N.ar   15  HIS15      -0.2268
      8  CD2       -6.1960    7.6150  -27.3570 C.ar   15  HIS15       0.1154
      9  CE1       -4.2480    6.6110  -27.2420 C.ar   15  HIS15       0.1986
     10  NE2       -4.9900    7.4120  -27.9870 N.ar   15  HIS15      -0.2212
     11  N        -16.7900    4.7680  -28.3860 N.3   110  ASN110     -0.1225
     12  CA       -15.9210    4.4810  -29.5100 C.3   110  ASN110      0.1785
     13  C        -15.1220    3.2090  -29.2570 C.2   110  ASN110      0.2597
     14  O        -14.9580    2.7540  -28.1210 O.2   110  ASN110     -0.2718
     15  CB       -14.9650    5.6420  -29.7650 C.3   110  ASN110      0.1169
     16  CG       -15.6810    6.9580  -29.8820 C.2   110  ASN110      0.2627
     17  OD1      -16.2110    7.2960  -30.9420 O.2   110  ASN110     -0.2716
     18  ND2      -15.7140    7.7110  -28.7860 N.am  110  ASN110     -0.0877
     19  N        -14.6290    2.6320  -30.3460 N.am  111  MET111     -0.1965
     20  CA       -13.6750    1.5480  -30.2490 C.3   111  MET111      0.1736
     21  C        -12.2780    2.1150  -29.9970 C.2   111  MET111      0.2616
     22  O        -12.0340    3.3150  -30.1080 O.2   111  MET111     -0.2715
     23  CB       -13.7030    0.7030  -31.5250 C.3   111  MET111      0.0427
     24  CG       -15.0430    0.0220  -31.8290 C.3   111  MET111      0.0599
     25  SD       -15.0540   -0.6530  -33.5100 S.3   111  MET111     -0.1393
     26  CE       -13.8260   -1.9450  -33.3380 C.3   111  MET111      0.0692
     27  N        -11.3530    1.2320  -29.6340 N.am  112  ARG112     -0.1963
     28  CA        -9.9420    1.5720  -29.5880 C.3   112  ARG112      0.1729
     29  C         -9.2390    1.2540  -30.8930 C.2   112  ARG112      0.2617
     30  O         -8.0070    1.1600  -30.9150 O.2   112  ARG112     -0.2715
     31  CB        -9.2470    0.8440  -28.4360 C.3   112  ARG112      0.0348
     32  CG        -9.8680    1.1020  -27.0700 C.3   112  ARG112      0.0492
     33  CD        -9.2460    0.2320  -25.9800 C.3   112  ARG112      0.2205
     34  NE       -10.2790   -0.1890  -25.0470 N.pl3 112  ARG112     -0.0865
     35  CZ       -10.7250   -1.4370  -24.9280 C.cat 112  ARG112      0.5346
     36  NH1      -10.1930   -2.4140  -25.6570 N.pl3 112  ARG112      0.1354
     37  NH2      -11.6870   -1.7120  -24.0550 N.pl3 112  ARG112      0.1354
     38  N         -9.9900    1.0850  -31.9710 N.am  113  GLY113     -0.1940
     39  CA        -9.4000    0.6600  -33.2260 C.3   113  GLY113      0.2014
     40  C        -10.4690    0.4930  -34.2800 C.2   113  GLY113      0.2638
     41  O        -11.6310    0.8370  -34.0710 O.2   113  GLY113     -0.2714
     42  N        -10.0640   -0.0520  -35.4180 N.am  114  ALA114     -0.1977
     43  CA       -10.9200   -0.0640  -36.5910 C.3   114  ALA114      0.1597
     44  C        -11.7120   -1.3690  -36.7000 C.2   114  ALA114      0.2287
     45  O        -11.2790   -2.4350  -36.2300 O.2   114  ALA114     -0.2864
     46  CB       -10.0860    0.1630  -37.8560 C.3   114  ALA114      0.0319
     47  N         -8.7540   -3.4340  -34.6020 N.3   133  VAL133     -0.1231
     48  CA        -7.3550   -3.5600  -34.9920 C.3   133  VAL133      0.1692
     49  C         -6.7790   -2.1540  -35.1630 C.2   133  VAL133      0.2592
     50  O         -7.4640   -1.2440  -35.6400 O.2   133  VAL133     -0.2718
     51  CB        -7.2360   -4.4120  -36.2730 C.3   133  VAL133      0.0266
     52  CG1       -5.8020   -4.5470  -36.7110 C.3   133  VAL133      0.0020
     53  CG2       -7.8150   -5.7830  -35.9970 C.3   133  VAL133      0.0020
     54  N         -5.5310   -1.9760  -34.7520 N.am  134  ARG134     -0.1966
     55  CA        -4.8530   -0.6920  -34.7940 C.3   134  ARG134      0.1729
     56  C         -3.7640   -0.7440  -35.8460 C.2   134  ARG134      0.2617
     57  O         -2.9070   -1.6310  -35.8010 O.2   134  ARG134     -0.2715
     58  CB        -4.2280   -0.3420  -33.4420 C.3   134  ARG134      0.0348
     59  CG        -5.0470    0.5360  -32.5240 C.3   134  ARG134      0.0492
     60  CD        -4.3160    0.6700  -31.1820 C.3   134  ARG134      0.2205
     61  NE        -5.1200    0.1340  -30.0930 N.pl3 134  ARG134     -0.0865
     62  CZ        -4.7890   -0.8810  -29.2990 C.cat 134  ARG134      0.5346
     63  NH1       -3.6260   -1.5130  -29.4140 N.pl3 134  ARG134      0.1354
     64  NH2       -5.6470   -1.2560  -28.3660 N.pl3 134  ARG134      0.1354
     65  N         -3.7960    0.2080  -36.7830 N.am  135  THR135     -0.1937
     66  CA        -2.6720    0.3990  -37.6920 C.3   135  THR135      0.2028
     67  C         -1.5440    1.0920  -36.9430 C.2   135  THR135      0.2642
     68  O         -1.7720    2.1260  -36.3050 O.2   135  THR135     -0.2714
     69  CB        -3.0970    1.2520  -38.8900 C.3   135  THR135      0.1808
     70  OG1       -4.1970    0.6430  -39.5730 O.3   135  THR135     -0.2208
     71  CG2       -1.9380    1.4670  -39.8470 C.3   135  THR135      0.0379
     72  N         -0.3300    0.5250  -37.0010 N.am  136  ILE136     -0.1977
     73  CA         0.8430    1.0700  -36.3100 C.3   136  ILE136      0.1596
     74  C          2.0580    0.8830  -37.2050 C.2   136  ILE136      0.2287
     75  O          1.9590    0.3640  -38.3210 O.2   136  ILE136     -0.2864
     76  CB         1.0930    0.4380  -34.9160 C.3   136  ILE136      0.0276
     77  CG1        1.3720   -1.0670  -34.9910 C.3   136  ILE136      0.0022
     78  CG2       -0.0860    0.7180  -33.9260 C.3   136  ILE136      0.0022
     79  CD1        2.0550   -1.5820  -33.7150 C.3   136  ILE136      0.0001
     80  N         -4.0730   17.3080  -38.6030 N.3   158  ARG158     -0.1245
     81  CA        -4.8320   16.0600  -38.6010 C.3   158  ARG158      0.1563
     82  C         -4.7980   15.4030  -39.9720 C.2   158  ARG158      0.2260
     83  O         -4.6940   14.1700  -40.0800 O.2   158  ARG158     -0.2867
     84  CB        -6.2670   16.3030  -38.1480 C.3   158  ARG158      0.0307
     85  CG        -6.3160   16.9450  -36.8010 C.3   158  ARG158      0.0489
     86  CD        -7.6290   16.7160  -36.1090 C.3   158  ARG158      0.2205
     87  NE        -7.7540   15.3330  -35.6730 N.pl3 158  ARG158     -0.0865
     88  CZ        -8.2740   14.9680  -34.5050 C.cat 158  ARG158      0.5346
     89  NH1       -8.6880   15.9040  -33.6500 N.pl3 158  ARG158      0.1354
     90  NH2       -8.3600   13.6770  -34.1890 N.pl3 158  ARG158      0.1354
     91  N         -1.6150    7.3230  -42.2070 N.3   165  LEU165     -0.1245
     92  CA        -2.3010    6.1380  -41.6950 C.3   165  LEU165      0.1561
     93  C         -3.0970    5.4130  -42.7910 C.2   165  LEU165      0.2260
     94  O         -3.0260    4.1810  -42.8930 O.2   165  LEU165     -0.2867
     95  CB        -3.2050    6.5560  -40.5310 C.3   165  LEU165      0.0270
     96  CG        -4.1270    5.7120  -39.6220 C.3   165  LEU165      0.0019
     97  CD1       -4.3970    4.3240  -40.0710 C.3   165  LEU165      0.0001
     98  CD2       -3.6270    5.6880  -38.1800 C.3   165  LEU165      0.0001
     99  N        -13.8200    6.8500  -42.3610 N.3   179  CYS179     -0.1221
    100  CA       -13.3550    7.3920  -41.0860 C.3   179  CYS179      0.1808
    101  C        -13.9980    8.7460  -40.8120 C.2   179  CYS179      0.2601
    102  O        -13.9850    9.6290  -41.6790 O.2   179  CYS179     -0.2717
    103  CB       -11.8270    7.5540  -41.0820 C.3   179  CYS179      0.0970
    104  SG       -11.0720    8.2900  -39.5720 S.3   179  CYS179     -0.0800
    105  N        -14.5380    8.9050  -39.6080 N.am  180  TRP180     -0.1962
    106  CA       -14.6840   10.2330  -39.0270 C.3   180  TRP180      0.1771
    107  C        -14.3190   10.1790  -37.5480 C.2   180  TRP180      0.2620
    108  O        -14.3040    9.1110  -36.9180 O.2   180  TRP180     -0.2715
    109  CB       -16.0860   10.8330  -39.2570 C.3   180  TRP180      0.0590
    110  CG       -17.2510   10.1440  -38.6320 C.ar  180  TRP180      0.0006
    111  CD1      -17.6460   10.2200  -37.3320 C.ar  180  TRP180      0.0946
    112  CD2      -18.2250    9.3240  -39.3000 C.ar  180  TRP180      0.0152
    113  NE1      -18.7910    9.4750  -37.1370 N.ar  180  TRP180     -0.2442
    114  CE2      -19.1680    8.9200  -38.3300 C.ar  180  TRP180      0.0810
    115  CE3      -18.3800    8.8780  -40.6170 C.ar  180  TRP180      0.0012
    116  CZ2      -20.2470    8.0880  -38.6330 C.ar  180  TRP180      0.0191
    117  CZ3      -19.4570    8.0540  -40.9200 C.ar  180  TRP180      0.0001
    118  CH2      -20.3750    7.6660  -39.9300 C.ar  180  TRP180      0.0015
    119  N        -14.0250   11.3630  -37.0080 N.am  181  SER181     -0.1936
    120  CA       -13.3850   11.5010  -35.7060 C.3   181  SER181      0.2055
    121  C        -14.3530   11.2030  -34.5620 C.2   181  SER181      0.2643
    122  O        -15.5730   11.3120  -34.6930 O.2   181  SER181     -0.2714
    123  CB       -12.8070   12.9130  -35.5530 C.3   181  SER181      0.2130
    124  OG       -11.8310   12.9780  -34.5220 O.3   181  SER181     -0.2179
    125  N        -13.7800   10.7840  -33.4350 N.am  182  ASP182     -0.1971
    126  CA       -14.5450   10.6040  -32.2080 C.3   182  ASP182      0.1709
    127  C        -14.7400   11.9230  -31.4600 C.2   182  ASP182      0.2293
    128  O        -15.7370   12.0790  -30.7430 O.2   182  ASP182     -0.2864
    129  CB       -13.8490    9.5740  -31.3130 C.3   182  ASP182      0.1436
    130  CG       -12.3260    9.7470  -31.2820 C.2   182  ASP182      0.3671
    131  OD1      -11.7610   10.3770  -32.2110 O.co2 182  ASP182     -0.2456
    132  OD2      -11.6900    9.2290  -30.3340 O.co2 182  ASP182     -0.2456
    133  N        -15.1040    6.5180  -35.4560 N.3   213  GLY213     -0.1210
    134  CA       -14.5330    5.2170  -35.7380 C.3   213  GLY213      0.1956
    135  C        -14.0010    5.1160  -37.1540 C.2   213  GLY213      0.2611
    136  O        -14.0220    6.0730  -37.9350 O.2   213  GLY213     -0.2717
    137  N        -13.5000    3.9130  -37.4590 N.am  214  ARG214     -0.1979
    138  CA       -12.9580    3.5820  -38.7630 C.3   214  ARG214      0.1597
    139  C        -13.4720    2.2070  -39.1640 C.2   214  ARG214      0.2287
    140  O        -13.5880    1.3030  -38.3290 O.2   214  ARG214     -0.2864
    141  CB       -11.4160    3.5940  -38.7620 C.3   214  ARG214      0.0334
    142  CG       -10.7970    4.9660  -38.9270 C.3   214  ARG214      0.0492
    143  CD        -9.2720    4.9370  -39.0140 C.3   214  ARG214      0.2205
    144  NE        -8.7230    5.6830  -37.8970 N.pl3 214  ARG214     -0.0865
    145  CZ        -8.1380    6.8770  -37.9660 C.cat 214  ARG214      0.5346
    146  NH1       -7.9400    7.4920  -39.1230 N.pl3 214  ARG214      0.1354
    147  NH2       -7.7060    7.4210  -36.8540 N.pl3 214  ARG214      0.1354
    148  N        -12.4450   -0.6140  -42.0820 N.3   216  TYR216     -0.1241
    149  CA       -11.5420   -1.0610  -43.1340 C.3   216  TYR216      0.1605
    150  C        -12.2640   -2.1070  -43.9740 C.2   216  TYR216      0.2264
    151  O        -12.7230   -3.1290  -43.4350 O.2   216  TYR216     -0.2867
    152  CB       -10.2610   -1.6610  -42.5510 C.3   216  TYR216      0.0534
    153  CG        -9.3410   -0.7410  -41.7730 C.ar  216  TYR216     -0.0201
    154  CD1       -9.5080    0.6480  -41.7950 C.ar  216  TYR216     -0.0009
    155  CD2       -8.2780   -1.2660  -41.0240 C.ar  216  TYR216     -0.0009
    156  CE1       -8.6610    1.4770  -41.0930 C.ar  216  TYR216      0.0417
    157  CE2       -7.4180   -0.4310  -40.3050 C.ar  216  TYR216      0.0417
    158  CZ        -7.6200    0.9470  -40.3470 C.ar  216  TYR216      0.1957
    159  OH        -6.7790    1.8060  -39.6540 O.3   216  TYR216     -0.2866
@<TRIPOS>BOND
     1   150   151    2
     2   150   149    1
     3   149   152    1
     4   149   148    1
     5    94    93    2
     6    93    92    1
     7   152   153    1
     8    99   100    1
     9    91    92    1
    10   154   153   ar
    11   154   156   ar
    12   153   155   ar
    13    92    95    1
    14   102   101    2
    15   156   158   ar
    16   100   103    1
    17   100   101    1
    18   103   104    1
    19   155   157   ar
    20   117   115   ar
    21   117   118   ar
    22   101   105   am
    23   115   112   ar
    24    95    96    1
    25   158   157   ar
    26   158   159    1
    27    83    82    2
    28    97    96    1
    29    82    81    1
    30   118   116   ar
    31    71    69    1
    32    96    98    1
    33   105   106    1
    34    70    69    1
    35   112   110   ar
    36   112   114   ar
    37   109   106    1
    38   109   110    1
    39   139   138    1
    40   139   140    2
    41   146   145    1
    42   106   107    1
    43   143   142    1
    44   143   144    1
    45   142   141    1
    46    69    66    1
    47   138   141    1
    48   138   137    1
    49   116   114   ar
    50   110   111   ar
    51    80    81    1
    52    81    84    1
    53   114   113   ar
    54    75    74    2
    55    84    85    1
    56   145   144    2
    57   145   147    1
    58   136   135    2
    59    46    43    1
    60    66    67    1
    61    66    65    1
    62   107   119   am
    63   107   108    2
    64   137   135   am
    65   111   113   ar
    66    74    73    1
    67   135   134    1
    68   119   120    1
    69    72    67   am
    70    72    73    1
    71    67    68    2
    72    85    86    1
    73    65    56   am
    74    52    51    1
    75    44    43    1
    76    44    45    2
    77    43    42    1
    78    73    76    1
    79    51    53    1
    80    51    48    1
    81    86    87    1
    82    56    57    2
    83    56    55    1
    84   134   133    1
    85   120   123    1
    86   120   121    1
    87    87    88    2
    88    50    49    2
    89   123   124    1
    90    42    40   am
    91    49    48    1
    92    49    54   am
    93    48    47    1
    94    77    76    1
    95    77    79    1
    96    76    78    1
    97    55    54    1
    98    55    58    1
    99   122   121    2
   100   121   125   am
   101    88    90    1
   102    88    89    1
   103    40    41    2
   104    40    39    1
   105    25    26    1
   106    25    24    1
   107    58    59    1
   108   125   126    1
   109    39    38    1
   110    59    60    1
   111   131   130   ar
   112   126   127    1
   113   126   129    1
   114    38    29   am
   115    24    23    1
   116    23    20    1
   117   127   128    2
   118   129   130    1
   119   130   132   ar
   120    60    61    1
   121    17    16    2
   122    30    29    2
   123    29    28    1
   124    19    20    1
   125    19    13   am
   126    20    21    1
   127    22    21    2
   128    61    62    2
   129    21    27   am
   130    16    15    1
   131    16    18   am
   132    15    12    1
   133    27    28    1
   134    28    31    1
   135    12    13    1
   136    12    11    1
   137    63    62    1
   138    62    64    1
   139    13    14    2
   140    31    32    1
   141    10     8   ar
   142    10     9   ar
   143     8     6   ar
   144     9     7   ar
   145    32    33    1
   146     6     7   ar
   147     6     5    1
   148    33    34    1
   149    36    35    1
   150     4     3    2
   151     5     2    1
   152    34    35    2
   153    35    37    1
   154     3     2    1
   155     2     1    1
