@<TRIPOS>MOLECULE
tmp/5tvaA01.pdb
 205 192 0 0 0
SMALL
GASTEIGER

@<TRIPOS>ATOM
      1  N          6.9030    5.0370  -29.9160 N.3     6  ARG6       -0.1231
      2  CA         5.4510    4.9940  -29.7580 C.3     6  ARG6        0.1694
      3  C          5.0520    5.5870  -28.4210 C.2     6  ARG6        0.2592
      4  O          5.5560    5.1560  -27.3820 O.2     6  ARG6       -0.2718
      5  CB         4.9030    3.5660  -29.8470 C.3     6  ARG6        0.0321
      6  CG         4.8940    2.9680  -31.2410 C.3     6  ARG6        0.0489
      7  CD         4.4360    1.4850  -31.2040 C.3     6  ARG6        0.2205
      8  NE         5.5410    0.6040  -30.8220 N.pl3   6  ARG6       -0.0865
      9  CZ         5.4370   -0.7040  -30.5360 C.cat   6  ARG6        0.5346
     10  NH1        4.2580   -1.3230  -30.5650 N.pl3   6  ARG6        0.1354
     11  NH2        6.5260   -1.4000  -30.2160 N.pl3   6  ARG6        0.1354
     12  N          4.1110    6.5360  -28.4510 N.am    7  MET7       -0.1965
     13  CA         3.6080    7.1990  -27.2560 C.3     7  MET7        0.1736
     14  C          2.0990    7.0360  -27.1800 C.2     7  MET7        0.2616
     15  O          1.4040    7.1730  -28.1860 O.2     7  MET7       -0.2715
     16  CB         3.9780    8.6910  -27.2760 C.3     7  MET7        0.0427
     17  CG         3.4880    9.5310  -26.0560 C.3     7  MET7        0.0599
     18  SD         1.7500   10.0740  -26.0920 S.3     7  MET7       -0.1393
     19  CE         1.7570   11.1600  -27.5210 C.3     7  MET7        0.0692
     20  N          1.5980    6.7370  -25.9860 N.am    8  ARG8       -0.1977
     21  CA         0.1780    6.8220  -25.6710 C.3     8  ARG8        0.1597
     22  C          0.0340    7.5000  -24.3170 C.2     8  ARG8        0.2287
     23  O          0.9200    7.3880  -23.4620 O.2     8  ARG8       -0.2864
     24  CB        -0.4730    5.4470  -25.6300 C.3     8  ARG8        0.0334
     25  CG         0.0200    4.5930  -24.4680 C.3     8  ARG8        0.0492
     26  CD        -0.5440    3.1980  -24.5470 C.3     8  ARG8        0.2205
     27  NE        -0.4110    2.4770  -23.2860 N.pl3   8  ARG8       -0.0865
     28  CZ         0.5370    1.5750  -23.0520 C.cat   8  ARG8        0.5346
     29  NH1        1.4220    1.2850  -24.0000 N.pl3   8  ARG8        0.1354
     30  NH2        0.6050    0.9660  -21.8820 N.pl3   8  ARG8        0.1354
     31  N         -3.0420    8.7680  -21.2160 N.3    10  GLN10      -0.1245
     32  CA        -4.3830    8.6610  -20.6630 C.3    10  GLN10       0.1566
     33  C         -4.6510    9.8200  -19.7130 C.2    10  GLN10       0.2260
     34  O         -3.7310   10.4460  -19.1770 O.2    10  GLN10      -0.2867
     35  CB        -4.5950    7.3360  -19.8980 C.3    10  GLN10       0.0367
     36  CG        -4.7730    6.1370  -20.7900 C.3    10  GLN10       0.0905
     37  CD        -5.0120    4.8630  -20.0130 C.2    10  GLN10       0.2608
     38  OE1       -4.5810    4.7290  -18.8600 O.2    10  GLN10      -0.2717
     39  NE2       -5.7180    3.9150  -20.6350 N.am   10  GLN10      -0.0878
     40  N         -8.2190    7.5510  -23.0560 N.3    15  HIS15      -0.1241
     41  CA        -7.1420    7.8080  -24.0070 C.3    15  HIS15       0.1621
     42  C         -7.2640    9.2220  -24.5820 C.2    15  HIS15       0.2264
     43  O         -8.2930    9.5830  -25.1580 O.2    15  HIS15      -0.2867
     44  CB        -7.1960    6.7460  -25.1140 C.3    15  HIS15       0.0745
     45  CG        -6.1650    6.9180  -26.1940 C.ar   15  HIS15       0.0817
     46  ND1       -4.9330    6.2950  -26.1560 N.ar   15  HIS15      -0.2268
     47  CD2       -6.1960    7.6150  -27.3570 C.ar   15  HIS15       0.1154
     48  CE1       -4.2480    6.6110  -27.2420 C.ar   15  HIS15       0.1986
     49  NE2       -4.9900    7.4120  -27.9870 N.ar   15  HIS15      -0.2212
     50  N         -1.8660    9.9360  -28.6670 N.3    18  GLY18      -0.1210
     51  CA        -1.1070    8.7940  -29.1460 C.3    18  GLY18       0.1956
     52  C         -0.4800    9.1020  -30.4900 C.2    18  GLY18       0.2612
     53  O         -1.1110    9.7350  -31.3400 O.2    18  GLY18      -0.2717
     54  N          0.7600    8.6740  -30.6930 N.am   19  ALA19      -0.1965
     55  CA         1.4920    9.0420  -31.8960 C.3    19  ALA19       0.1728
     56  C          2.7030    8.1320  -31.9890 C.2    19  ALA19       0.2616
     57  O          3.1560    7.5800  -30.9850 O.2    19  ALA19      -0.2715
     58  CB         1.9330   10.5220  -31.8690 C.3    19  ALA19       0.0334
     59  N          3.2370    8.0140  -33.1980 N.am   20  GLU20      -0.1977
     60  CA         4.4280    7.2260  -33.4550 C.3    20  GLU20       0.1602
     61  C          5.3420    7.9890  -34.3990 C.2    20  GLU20       0.2287
     62  O          4.8700    8.6680  -35.3220 O.2    20  GLU20      -0.2864
     63  CB         4.0760    5.8480  -34.0510 C.3    20  GLU20       0.0415
     64  CG         5.2890    4.9990  -34.4310 C.3    20  GLU20       0.1163
     65  CD         4.9100    3.5350  -34.7080 C.2    20  GLU20       0.3649
     66  OE1        3.7080    3.2030  -34.6380 O.co2  20  GLU20      -0.2457
     67  OE2        5.8260    2.7160  -34.9560 O.co2  20  GLU20      -0.2457
     68  N          3.3220   16.2080  -26.5290 N.3    38  ARG38      -0.1245
     69  CA         2.1250   16.2110  -27.3750 C.3    38  ARG38       0.1563
     70  C          0.8270   16.4180  -26.6020 C.2    38  ARG38       0.2260
     71  O          0.0290   17.2780  -27.0070 O.2    38  ARG38      -0.2867
     72  CB         2.0660   14.9280  -28.2200 C.3    38  ARG38       0.0307
     73  CG         0.8630   14.8870  -29.2080 C.3    38  ARG38       0.0489
     74  CD         0.9100   13.6550  -30.1360 C.3    38  ARG38       0.2205
     75  NE        -0.2310   13.5490  -31.0560 N.pl3  38  ARG38      -0.0865
     76  CZ        -0.2460   14.0790  -32.2810 C.cat  38  ARG38       0.5346
     77  NH1        0.7990   14.7760  -32.7160 N.pl3  38  ARG38       0.1354
     78  NH2       -1.3020   13.9240  -33.0730 N.pl3  38  ARG38       0.1354
     79  N          2.9240    6.3690  -21.6390 N.3    46  ASN46      -0.1240
     80  CA         3.9070    5.3400  -21.9430 C.3    46  ASN46       0.1653
     81  C          4.6110    5.6980  -23.2370 C.2    46  ASN46       0.2266
     82  O          3.9690    6.1400  -24.1980 O.2    46  ASN46      -0.2867
     83  CB         3.2620    3.9540  -22.0800 C.3    46  ASN46       0.1155
     84  CG         4.2740    2.8280  -21.9250 C.2    46  ASN46       0.2627
     85  OD1        4.6430    2.4820  -20.8050 O.2    46  ASN46      -0.2716
     86  ND2        4.7260    2.2520  -23.0390 N.am   46  ASN46      -0.0877
     87  N          7.4690    3.8390  -25.8760 N.3    48  LYS48      -0.1245
     88  CA         8.2800    2.6840  -26.2770 C.3    48  LYS48       0.1561
     89  C          9.2570    3.0710  -27.3740 C.2    48  LYS48       0.2260
     90  O          8.8490    3.5970  -28.4140 O.2    48  LYS48      -0.2867
     91  CB         7.4120    1.5220  -26.7890 C.3    48  LYS48       0.0271
     92  CG         6.4360    0.9860  -25.7880 C.3    48  LYS48       0.0035
     93  CD         5.8650   -0.3640  -26.2250 C.3    48  LYS48       0.0206
     94  CE         4.6540   -0.2070  -27.0920 C.3    48  LYS48       0.1093
     95  NZ         3.5830   -1.1760  -26.7120 N.3    48  LYS48      -0.1314
     96  N        -14.6290    2.6320  -30.3460 N.3   111  MET111     -0.1230
     97  CA       -13.6750    1.5480  -30.2490 C.3   111  MET111      0.1702
     98  C        -12.2780    2.1150  -29.9970 C.2   111  MET111      0.2592
     99  O        -12.0340    3.3150  -30.1080 O.2   111  MET111     -0.2718
    100  CB       -13.7030    0.7030  -31.5250 C.3   111  MET111      0.0401
    101  CG       -15.0430    0.0220  -31.8290 C.3   111  MET111      0.0596
    102  SD       -15.0540   -0.6530  -33.5100 S.3   111  MET111     -0.1393
    103  CE       -13.8260   -1.9450  -33.3380 C.3   111  MET111      0.0692
    104  N        -11.3530    1.2320  -29.6340 N.am  112  ARG112     -0.1980
    105  CA        -9.9420    1.5720  -29.5880 C.3   112  ARG112      0.1597
    106  C         -9.2390    1.2540  -30.8930 C.2   112  ARG112      0.2287
    107  O         -8.0070    1.1600  -30.9150 O.2   112  ARG112     -0.2864
    108  CB        -9.2470    0.8440  -28.4360 C.3   112  ARG112      0.0334
    109  CG        -9.8680    1.1020  -27.0700 C.3   112  ARG112      0.0492
    110  CD        -9.2460    0.2320  -25.9800 C.3   112  ARG112      0.2205
    111  NE       -10.2790   -0.1890  -25.0470 N.pl3 112  ARG112     -0.0865
    112  CZ       -10.7250   -1.4370  -24.9280 C.cat 112  ARG112      0.5346
    113  NH1      -10.1930   -2.4140  -25.6570 N.pl3 112  ARG112      0.1354
    114  NH2      -11.6870   -1.7120  -24.0550 N.pl3 112  ARG112      0.1354
    115  N        -12.1110   -3.4720  -29.1360 N.3   131  ARG131     -0.1245
    116  CA       -10.7500   -3.0230  -29.3780 C.3   131  ARG131      0.1563
    117  C        -10.5140   -2.7140  -30.8550 C.2   131  ARG131      0.2260
    118  O         -9.8990   -1.6910  -31.1960 O.2   131  ARG131     -0.2867
    119  CB        -9.7750   -4.0830  -28.8790 C.3   131  ARG131      0.0307
    120  CG        -8.4390   -3.5230  -28.5300 C.3   131  ARG131      0.0489
    121  CD        -7.2750   -4.5210  -28.7390 C.3   131  ARG131      0.2205
    122  NE        -6.6610   -4.1670  -30.0070 N.pl3 131  ARG131     -0.0865
    123  CZ        -5.4250   -4.5040  -30.3520 C.cat 131  ARG131      0.5346
    124  NH1       -4.6330   -5.1490  -29.4860 N.pl3 131  ARG131      0.1354
    125  NH2       -4.9470   -4.1440  -31.5430 N.pl3 131  ARG131      0.1354
    126  N         -5.5310   -1.9760  -34.7520 N.3   134  ARG134     -0.1231
    127  CA        -4.8530   -0.6920  -34.7940 C.3   134  ARG134      0.1694
    128  C         -3.7640   -0.7440  -35.8460 C.2   134  ARG134      0.2593
    129  O         -2.9070   -1.6310  -35.8010 O.2   134  ARG134     -0.2718
    130  CB        -4.2280   -0.3420  -33.4420 C.3   134  ARG134      0.0321
    131  CG        -5.0470    0.5360  -32.5240 C.3   134  ARG134      0.0489
    132  CD        -4.3160    0.6700  -31.1820 C.3   134  ARG134      0.2205
    133  NE        -5.1200    0.1340  -30.0930 N.pl3 134  ARG134     -0.0865
    134  CZ        -4.7890   -0.8810  -29.2990 C.cat 134  ARG134      0.5346
    135  NH1       -3.6260   -1.5130  -29.4140 N.pl3 134  ARG134      0.1354
    136  NH2       -5.6470   -1.2560  -28.3660 N.pl3 134  ARG134      0.1354
    137  N         -3.7960    0.2080  -36.7830 N.am  135  THR135     -0.1939
    138  CA        -2.6720    0.3990  -37.6920 C.3   135  THR135      0.2028
    139  C         -1.5440    1.0920  -36.9430 C.2   135  THR135      0.2642
    140  O         -1.7720    2.1260  -36.3050 O.2   135  THR135     -0.2714
    141  CB        -3.0970    1.2520  -38.8900 C.3   135  THR135      0.1808
    142  OG1       -4.1970    0.6430  -39.5730 O.3   135  THR135     -0.2208
    143  CG2       -1.9380    1.4670  -39.8470 C.3   135  THR135      0.0379
    144  N         -0.3300    0.5250  -37.0010 N.am  136  ILE136     -0.1977
    145  CA         0.8430    1.0700  -36.3100 C.3   136  ILE136      0.1596
    146  C          2.0580    0.8830  -37.2050 C.2   136  ILE136      0.2287
    147  O          1.9590    0.3640  -38.3210 O.2   136  ILE136     -0.2864
    148  CB         1.0930    0.4380  -34.9160 C.3   136  ILE136      0.0276
    149  CG1        1.3720   -1.0670  -34.9910 C.3   136  ILE136      0.0022
    150  CG2       -0.0860    0.7180  -33.9260 C.3   136  ILE136      0.0022
    151  CD1        2.0550   -1.5820  -33.7150 C.3   136  ILE136      0.0001
    152  N          4.0580    2.9500  -38.8650 N.3   138  PHE138     -0.1241
    153  CA         4.0860    3.7330  -40.0910 C.3   138  PHE138      0.1605
    154  C          4.5270    5.1430  -39.7300 C.2   138  PHE138      0.2264
    155  O          4.2640    5.6140  -38.6210 O.2   138  PHE138     -0.2867
    156  CB         2.7030    3.7600  -40.7790 C.3   138  PHE138      0.0534
    157  CG         1.6810    4.5090  -40.0090 C.ar  138  PHE138     -0.0203
    158  CD1        1.5250    5.9080  -40.1870 C.ar  138  PHE138     -0.0042
    159  CD2        0.8920    3.8610  -39.0790 C.ar  138  PHE138     -0.0042
    160  CE1        0.6020    6.6320  -39.4340 C.ar  138  PHE138     -0.0003
    161  CE2       -0.0440    4.5600  -38.3480 C.ar  138  PHE138     -0.0003
    162  CZ        -0.1840    5.9760  -38.5180 C.ar  138  PHE138     -0.0000
    163  N         -4.0730   17.3080  -38.6030 N.3   158  ARG158     -0.1245
    164  CA        -4.8320   16.0600  -38.6010 C.3   158  ARG158      0.1563
    165  C         -4.7980   15.4030  -39.9720 C.2   158  ARG158      0.2260
    166  O         -4.6940   14.1700  -40.0800 O.2   158  ARG158     -0.2867
    167  CB        -6.2670   16.3030  -38.1480 C.3   158  ARG158      0.0307
    168  CG        -6.3160   16.9450  -36.8010 C.3   158  ARG158      0.0489
    169  CD        -7.6290   16.7160  -36.1090 C.3   158  ARG158      0.2205
    170  NE        -7.7540   15.3330  -35.6730 N.pl3 158  ARG158     -0.0865
    171  CZ        -8.2740   14.9680  -34.5050 C.cat 158  ARG158      0.5346
    172  NH1       -8.6880   15.9040  -33.6500 N.pl3 158  ARG158      0.1354
    173  NH2       -8.3600   13.6770  -34.1890 N.pl3 158  ARG158      0.1354
    174  N         -1.5020   13.5790  -40.3660 N.3   161  ASP161     -0.1225
    175  CA        -1.4610   12.3150  -39.6280 C.3   161  ASP161      0.1805
    176  C         -2.3390   11.2500  -40.2810 C.2   161  ASP161      0.2597
    177  O         -1.9100   10.1040  -40.4480 O.2   161  ASP161     -0.2718
    178  CB        -1.9150   12.5370  -38.1880 C.3   161  ASP161      0.1424
    179  CG        -0.8710   13.2200  -37.3450 C.2   161  ASP161      0.3668
    180  OD1        0.3080   13.2880  -37.7770 O.co2 161  ASP161     -0.2456
    181  OD2       -1.2550   13.7060  -36.2540 O.co2 161  ASP161     -0.2456
    182  N         -3.5800   11.6080  -40.6420 N.am  162  ALA162     -0.1979
    183  CA        -4.5100   10.6340  -41.2070 C.3   162  ALA162      0.1597
    184  C         -4.0580   10.1370  -42.5770 C.2   162  ALA162      0.2287
    185  O         -4.2370    8.9490  -42.8940 O.2   162  ALA162     -0.2864
    186  CB        -5.9240   11.2230  -41.2780 C.3   162  ALA162      0.0319
    187  N         -1.6150    7.3230  -42.2070 N.3   165  LEU165     -0.1245
    188  CA        -2.3010    6.1380  -41.6950 C.3   165  LEU165      0.1561
    189  C         -3.0970    5.4130  -42.7910 C.2   165  LEU165      0.2260
    190  O         -3.0260    4.1810  -42.8930 O.2   165  LEU165     -0.2867
    191  CB        -3.2050    6.5560  -40.5310 C.3   165  LEU165      0.0270
    192  CG        -4.1270    5.7120  -39.6220 C.3   165  LEU165      0.0019
    193  CD1       -4.3970    4.3240  -40.0710 C.3   165  LEU165      0.0001
    194  CD2       -3.6270    5.6880  -38.1800 C.3   165  LEU165      0.0001
    195  N        -13.5000    3.9130  -37.4590 N.3   214  ARG214     -0.1245
    196  CA       -12.9580    3.5820  -38.7630 C.3   214  ARG214      0.1563
    197  C        -13.4720    2.2070  -39.1640 C.2   214  ARG214      0.2260
    198  O        -13.5880    1.3030  -38.3290 O.2   214  ARG214     -0.2867
    199  CB       -11.4160    3.5940  -38.7620 C.3   214  ARG214      0.0307
    200  CG       -10.7970    4.9660  -38.9270 C.3   214  ARG214      0.0489
    201  CD        -9.2720    4.9370  -39.0140 C.3   214  ARG214      0.2205
    202  NE        -8.7230    5.6830  -37.8970 N.pl3 214  ARG214     -0.0865
    203  CZ        -8.1380    6.8770  -37.9660 C.cat 214  ARG214      0.5346
    204  NH1       -7.9400    7.4920  -39.1230 N.pl3 214  ARG214      0.1354
    205  NH2       -7.7060    7.4210  -36.8540 N.pl3 214  ARG214      0.1354
@<TRIPOS>BOND
     1   185   184    2
     2   190   189    2
     3   189   188    1
     4   184   183    1
     5   187   188    1
     6   188   191    1
     7   186   183    1
     8   183   182    1
     9   156   153    1
    10   156   157    1
    11   182   176   am
    12   191   192    1
    13   177   176    2
    14   174   175    1
    15   176   175    1
    16   158   157   ar
    17   158   160   ar
    18   153   154    1
    19   153   152    1
    20   166   165    2
    21   193   192    1
    22   157   159   ar
    23   165   164    1
    24   143   141    1
    25   154   155    2
    26   175   178    1
    27   192   194    1
    28   142   141    1
    29   160   162   ar
    30   197   196    1
    31   197   198    2
    32   204   203    1
    33   159   161   ar
    34   201   200    1
    35   201   202    1
    36   200   199    1
    37   141   138    1
    38   196   199    1
    39   196   195    1
    40   163   164    1
    41   164   167    1
    42   162   161   ar
    43   147   146    2
    44   178   179    1
    45   167   168    1
    46   203   202    2
    47   203   205    1
    48   180   179   ar
    49   138   139    1
    50   138   137    1
    51   179   181   ar
    52   146   145    1
    53   144   139   am
    54   144   145    1
    55   139   140    2
    56   168   169    1
    57   137   128   am
    58   145   148    1
    59   169   170    1
    60   128   129    2
    61   128   127    1
    62   170   171    2
    63    62    61    2
    64   149   148    1
    65   149   151    1
    66    67    65   ar
    67   148   150    1
    68   127   126    1
    69   127   130    1
    70    65    66   ar
    71    65    64    1
    72   171   173    1
    73   171   172    1
    74    64    63    1
    75    61    60    1
    76    63    60    1
    77   102   103    1
    78   102   101    1
    79    60    59    1
    80   130   131    1
    81    59    56   am
    82    78    76    1
    83    77    76    1
    84   131   132    1
    85    76    75    2
    86    56    55    1
    87    56    57    2
    88    55    58    1
    89    55    54    1
    90   101   100    1
    91   125   123    1
    92   100    97    1
    93    53    52    2
    94     6     7    1
    95     6     5    1
    96     7     8    1
    97   118   117    2
    98   132   133    1
    99    75    74    1
   100   107   106    2
   101   106   105    1
   102   117   116    1
   103     8     9    2
   104    54    52   am
   105    10     9    1
   106     9    11    1
   107    52    51    1
   108   123   122    2
   109   123   124    1
   110    96    97    1
   111    97    98    1
   112    74    73    1
   113    99    98    2
   114   133   134    2
   115   122   121    1
   116    98   104   am
   117     1     2    1
   118     5     2    1
   119     2     3    1
   120   104   105    1
   121   105   108    1
   122   135   134    1
   123   116   115    1
   124   116   119    1
   125   134   136    1
   126    73    72    1
   127    51    50    1
   128   119   120    1
   129   121   120    1
   130    12     3   am
   131    12    13    1
   132   108   109    1
   133     3     4    2
   134    90    89    2
   135    72    69    1
   136    15    14    2
   137    49    47   ar
   138    49    48   ar
   139    19    18    1
   140    69    70    1
   141    69    68    1
   142    89    88    1
   143    47    45   ar
   144    16    13    1
   145    16    17    1
   146    13    14    1
   147    48    46   ar
   148    14    20   am
   149    94    95    1
   150    94    93    1
   151   109   110    1
   152    71    70    2
   153    91    88    1
   154    91    92    1
   155    88    87    1
   156    93    92    1
   157    45    46   ar
   158    45    44    1
   159    18    17    1
   160    20    21    1
   161   110   111    1
   162    21    24    1
   163    21    22    1
   164   113   112    1
   165    24    25    1
   166    43    42    2
   167    44    41    1
   168   111   112    2
   169   112   114    1
   170    42    41    1
   171    26    25    1
   172    26    27    1
   173    22    23    2
   174    82    81    2
   175    41    40    1
   176    29    28    1
   177    27    28    2
   178    81    80    1
   179    28    30    1
   180    86    84   am
   181    83    80    1
   182    83    84    1
   183    80    79    1
   184    84    85    2
   185    31    32    1
   186    36    37    1
   187    36    35    1
   188    32    35    1
   189    32    33    1
   190    39    37   am
   191    37    38    2
   192    33    34    2
