@<TRIPOS>MOLECULE
tmp/5tvcE01.pdb
 99 97 0 0 0
SMALL
GASTEIGER

@<TRIPOS>ATOM
      1  N         16.5940  -41.4350   45.4830 N.3    26  LYS26      -0.1245
      2  CA        17.0160  -42.6900   46.1070 C.3    26  LYS26       0.1561
      3  C         16.2170  -43.8750   45.5750 C.2    26  LYS26       0.2260
      4  O         16.7730  -44.9610   45.3910 O.2    26  LYS26      -0.2867
      5  CB        16.8880  -42.6010   47.6300 C.3    26  LYS26       0.0271
      6  CG        17.8640  -41.6700   48.3250 C.3    26  LYS26       0.0035
      7  CD        17.7830  -41.8070   49.8400 C.3    26  LYS26       0.0206
      8  CE        18.2550  -40.5340   50.5210 C.3    26  LYS26       0.1093
      9  NZ        19.5630  -40.0570   50.0030 N.3    26  LYS26      -0.1314
     10  N         35.1370  -29.8460   40.8400 N.3    94  TYR94      -0.1241
     11  CA        35.1080  -29.4870   42.2490 C.3    94  TYR94       0.1605
     12  C         36.1600  -28.4410   42.6110 C.2    94  TYR94       0.2264
     13  O         36.0650  -27.8470   43.6850 O.2    94  TYR94      -0.2867
     14  CB        35.3070  -30.7290   43.1500 C.3    94  TYR94       0.0534
     15  CG        34.1500  -31.7500   43.2360 C.ar   94  TYR94      -0.0201
     16  CD1       32.9440  -31.5620   42.5740 C.ar   94  TYR94      -0.0009
     17  CD2       34.2840  -32.9240   43.9980 C.ar   94  TYR94      -0.0009
     18  CE1       31.8950  -32.4980   42.6660 C.ar   94  TYR94       0.0417
     19  CE2       33.2370  -33.8800   44.0800 C.ar   94  TYR94       0.0417
     20  CZ        32.0490  -33.6620   43.4220 C.ar   94  TYR94       0.1957
     21  OH        31.0180  -34.6190   43.5290 O.3    94  TYR94      -0.2866
     22  N         28.6840  -34.9530   40.5380 N.3   147  SER147     -0.1202
     23  CA        27.4690  -34.1980   40.7770 C.3   147  SER147      0.2020
     24  C         27.6950  -33.2380   41.9370 C.2   147  SER147      0.2619
     25  O         28.3080  -33.6000   42.9380 O.2   147  SER147     -0.2717
     26  CB        26.3180  -35.1430   41.0940 C.3   147  SER147      0.2103
     27  OG        25.1780  -34.4500   41.5530 O.3   147  SER147     -0.2182
     28  N         27.1540  -32.0200   41.8300 N.am  148  TRP148     -0.1961
     29  CA        27.2570  -31.0960   42.9640 C.3   148  TRP148      0.1771
     30  C         26.2610  -31.4320   44.0650 C.2   148  TRP148      0.2619
     31  O         26.5720  -31.2480   45.2580 O.2   148  TRP148     -0.2715
     32  CB        27.0540  -29.6430   42.5220 C.3   148  TRP148      0.0590
     33  CG        27.4800  -28.6410   43.5740 C.ar  148  TRP148      0.0006
     34  CD1       26.6830  -27.7710   44.2760 C.ar  148  TRP148      0.0946
     35  CD2       28.8100  -28.4120   44.0220 C.ar  148  TRP148      0.0152
     36  NE1       27.4560  -27.0180   45.1290 N.ar  148  TRP148     -0.2442
     37  CE2       28.7630  -27.4050   44.9970 C.ar  148  TRP148      0.0810
     38  CE3       30.0360  -28.9760   43.7040 C.ar  148  TRP148      0.0012
     39  CZ2       29.9000  -26.9550   45.6470 C.ar  148  TRP148      0.0191
     40  CZ3       31.1600  -28.5270   44.3460 C.ar  148  TRP148      0.0001
     41  CH2       31.0870  -27.5360   45.3140 C.ar  148  TRP148      0.0015
     42  N         25.0750  -31.9140   43.7050 N.am  149  VAL149     -0.1977
     43  CA        23.9580  -31.9780   44.6410 C.3   149  VAL149      0.1596
     44  C         23.3730  -33.3670   44.8110 C.2   149  VAL149      0.2287
     45  O         22.5540  -33.5500   45.7270 O.2   149  VAL149     -0.2864
     46  CB        22.8260  -30.9940   44.2610 C.3   149  VAL149      0.0276
     47  CG1       23.3450  -29.5550   44.1810 C.3   149  VAL149      0.0022
     48  CG2       22.1150  -31.4170   42.9470 C.3   149  VAL149      0.0022
     49  N         23.8140  -37.3370   45.7440 N.3   151  SER151     -0.1217
     50  CA        24.7130  -38.2740   46.4060 C.3   151  SER151      0.1889
     51  C         24.7710  -39.5700   45.6060 C.2   151  SER151      0.2288
     52  O         24.0600  -39.7530   44.6100 O.2   151  SER151     -0.2866
     53  CB        24.2530  -38.5550   47.8480 C.3   151  SER151      0.2089
     54  OG        23.2880  -39.5980   47.8530 O.3   151  SER151     -0.2183
     55  N         31.5800  -35.5200   52.6410 N.3   189  TYR189     -0.1241
     56  CA        31.7570  -34.0820   52.8170 C.3   189  TYR189      0.1605
     57  C         31.0710  -33.6680   54.1200 C.2   189  TYR189      0.2264
     58  O         30.0990  -34.2930   54.5500 O.2   189  TYR189     -0.2867
     59  CB        31.1970  -33.2850   51.6050 C.3   189  TYR189      0.0534
     60  CG        31.9770  -33.5930   50.3070 C.ar  189  TYR189     -0.0201
     61  CD1       33.1470  -32.9180   50.0170 C.ar  189  TYR189     -0.0009
     62  CD2       31.5870  -34.6160   49.4550 C.ar  189  TYR189     -0.0009
     63  CE1       33.9030  -33.2150   48.9090 C.ar  189  TYR189      0.0417
     64  CE2       32.3390  -34.9230   48.3080 C.ar  189  TYR189      0.0417
     65  CZ        33.5000  -34.2180   48.0540 C.ar  189  TYR189      0.1957
     66  OH        34.2990  -34.5000   46.9630 O.3   189  TYR189     -0.2866
     67  N         29.1240  -31.2980   54.8570 N.3   191  CYS191     -0.1221
     68  CA        27.7640  -30.7640   54.7870 C.3   191  CYS191      0.1808
     69  C         26.7010  -31.8310   54.9780 C.2   191  CYS191      0.2601
     70  O         25.5730  -31.5080   55.3590 O.2   191  CYS191     -0.2717
     71  CB        27.5060  -30.1240   53.4260 C.3   191  CYS191      0.0970
     72  SG        27.5820  -31.3620   52.0750 S.3   191  CYS191     -0.0800
     73  N         27.0270  -33.0830   54.6920 N.am  192  CYS192     -0.1970
     74  CA        26.0190  -34.0360   54.2580 C.3   192  CYS192      0.1712
     75  C         26.3360  -35.4350   54.7740 C.2   192  CYS192      0.2296
     76  O         27.4970  -35.8450   54.7900 O.2   192  CYS192     -0.2864
     77  CB        25.9510  -34.0360   52.7240 C.3   192  CYS192      0.0983
     78  SG        25.7650  -32.3470   51.9760 S.3   192  CYS192     -0.0798
     79  N         25.4460  -38.2880   53.3520 N.3   194  GLU194     -0.1245
     80  CA        25.5870  -39.2600   52.2690 C.3   194  GLU194      0.1567
     81  C         26.9030  -39.0850   51.5010 C.2   194  GLU194      0.2260
     82  O         27.4050  -37.9720   51.3230 O.2   194  GLU194     -0.2867
     83  CB        24.4130  -39.1440   51.2900 C.3   194  GLU194      0.0388
     84  CG        23.0160  -39.2690   51.9210 C.3   194  GLU194      0.1160
     85  CD        22.5440  -37.9870   52.6210 C.2   194  GLU194      0.3649
     86  OE1       23.2550  -36.9510   52.5430 O.co2 194  GLU194     -0.2457
     87  OE2       21.4540  -38.0190   53.2470 O.co2 194  GLU194     -0.2457
     88  N         29.3970  -38.9990   48.2880 N.3   196  TYR196     -0.1241
     89  CA        29.3380  -38.5020   46.9040 C.3   196  TYR196      0.1605
     90  C         30.4620  -39.1050   46.0720 C.2   196  TYR196      0.2264
     91  O         31.6430  -38.9270   46.4170 O.2   196  TYR196     -0.2867
     92  CB        29.4380  -36.9700   46.8620 C.3   196  TYR196      0.0534
     93  CG        28.2070  -36.2750   47.3810 C.ar  196  TYR196     -0.0201
     94  CD1       27.9520  -36.2070   48.7450 C.ar  196  TYR196     -0.0009
     95  CD2       27.2940  -35.6840   46.5070 C.ar  196  TYR196     -0.0009
     96  CE1       26.8240  -35.5840   49.2260 C.ar  196  TYR196      0.0417
     97  CE2       26.1600  -35.0560   46.9810 C.ar  196  TYR196      0.0417
     98  CZ        25.9320  -35.0020   48.3440 C.ar  196  TYR196      0.1957
     99  OH        24.7960  -34.3880   48.8390 O.3   196  TYR196     -0.2866
@<TRIPOS>BOND
     1    22    23    1
     2    23    26    1
     3    23    24    1
     4    10    11    1
     5    26    27    1
     6    28    24   am
     7    28    29    1
     8    24    25    2
     9    11    12    1
    10    11    14    1
    11    32    29    1
    12    32    33    1
    13    16    18   ar
    14    16    15   ar
    15    12    13    2
    16    18    20   ar
    17    48    46    1
    18    29    30    1
    19    14    15    1
    20    15    17   ar
    21    20    21    1
    22    20    19   ar
    23    33    35   ar
    24    33    34   ar
    25    38    35   ar
    26    38    40   ar
    27    42    30   am
    28    42    43    1
    29    17    19   ar
    30    35    37   ar
    31    30    31    2
    32    47    46    1
    33    46    43    1
    34    34    36   ar
    35    40    41   ar
    36    52    51    2
    37    43    44    1
    38    44    45    2
    39    37    36   ar
    40    37    39   ar
    41    41    39   ar
    42     4     3    2
    43     1     2    1
    44     3     2    1
    45    51    50    1
    46    49    50    1
    47    90    91    2
    48    90    89    1
    49     2     5    1
    50    50    53    1
    51    95    97   ar
    52    95    93   ar
    53    92    89    1
    54    92    93    1
    55    89    88    1
    56    66    65    1
    57    97    98   ar
    58    93    94   ar
    59     5     6    1
    60    53    54    1
    61    65    64   ar
    62    65    63   ar
    63    64    62   ar
    64     6     7    1
    65    98    99    1
    66    98    96   ar
    67    94    96   ar
    68    63    61   ar
    69    62    60   ar
    70     7     8    1
    71     9     8    1
    72    61    60   ar
    73    60    59    1
    74    83    84    1
    75    83    80    1
    76    82    81    2
    77    81    80    1
    78    59    56    1
    79    84    85    1
    80    78    72    1
    81    78    77    1
    82    72    71    1
    83    80    79    1
    84    86    85   ar
    85    85    87   ar
    86    55    56    1
    87    77    74    1
    88    56    57    1
    89    71    68    1
    90    57    58    2
    91    74    73    1
    92    74    75    1
    93    73    69   am
    94    75    76    2
    95    68    67    1
    96    68    69    1
    97    69    70    2
