@<TRIPOS>MOLECULE
tmp/5tvfD01.pdb
 110 112 0 0 0
SMALL
GASTEIGER

@<TRIPOS>ATOM
      1  N         -2.7970   13.8620  -35.8760 N.3    13  THR13      -0.1203
      2  CA        -2.9560   14.3640  -34.5220 C.3    13  THR13       0.1994
      3  C         -3.9020   13.4520  -33.7550 C.2    13  THR13       0.2618
      4  O         -4.6580   12.6730  -34.3400 O.2    13  THR13      -0.2717
      5  CB        -3.4990   15.7990  -34.5090 C.3    13  THR13       0.1784
      6  OG1       -4.7430   15.8450  -35.2150 O.3    13  THR13      -0.2211
      7  CG2       -2.5100   16.7550  -35.1590 C.3    13  THR13       0.0376
      8  N         -3.8510   13.5600  -32.4300 N.am   14  CYS14      -0.1969
      9  CA        -4.7020   12.7660  -31.5540 C.3    14  CYS14       0.1712
     10  C         -5.2200   13.6720  -30.4420 C.2    14  CYS14       0.2296
     11  O         -5.0780   14.8980  -30.4920 O.2    14  CYS14      -0.2864
     12  CB        -3.9380   11.5510  -31.0100 C.3    14  CYS14       0.0983
     13  SG        -2.4220   11.9600  -30.1240 S.3    14  CYS14      -0.0798
     14  N          6.5750    8.9850  -23.0480 N.3   157  TYR157     -0.1227
     15  CA         5.9130   10.0290  -22.2840 C.3   157  TYR157      0.1736
     16  C          5.8560    9.6780  -20.8010 C.2   157  TYR157      0.2595
     17  O          6.0700    8.5340  -20.3940 O.2   157  TYR157     -0.2718
     18  CB         4.4960   10.2660  -22.8100 C.3   157  TYR157      0.0548
     19  CG         4.4380   11.0490  -24.1030 C.ar  157  TYR157     -0.0200
     20  CD1        4.5500   10.4100  -25.3300 C.ar  157  TYR157     -0.0009
     21  CD2        4.2640   12.4270  -24.0950 C.ar  157  TYR157     -0.0009
     22  CE1        4.4960   11.1200  -26.5120 C.ar  157  TYR157      0.0417
     23  CE2        4.2070   13.1460  -25.2730 C.ar  157  TYR157      0.0417
     24  CZ         4.3220   12.4880  -26.4780 C.ar  157  TYR157      0.1957
     25  OH         4.2670   13.2010  -27.6550 O.3   157  TYR157     -0.2866
     26  N          5.5620   10.6940  -19.9970 N.am  158  GLU158     -0.1966
     27  CA         5.3400   10.5260  -18.5670 C.3   158  GLU158      0.1718
     28  C          3.9280   11.0090  -18.2260 C.2   158  GLU158      0.2458
     29  O          3.5210   12.0860  -18.6660 O.2   158  GLU158     -0.2730
     30  CB         6.3900   11.3020  -17.7650 C.3   158  GLU158      0.0428
     31  CG         6.0970   11.4320  -16.2710 C.3   158  GLU158      0.1163
     32  CD         5.2290   12.6350  -15.9370 C.2   158  GLU158      0.3649
     33  OE1        5.2880   13.6430  -16.6750 O.co2 158  GLU158     -0.2457
     34  OE2        4.4830   12.5710  -14.9370 O.co2 158  GLU158     -0.2457
     35  N          3.1700   10.2220  -17.4400 N.am  159  PRO159     -0.2716
     36  CA         3.5030    8.9210  -16.8450 C.3   159  PRO159      0.1536
     37  C          3.3900    7.7420  -17.8130 C.2   159  PRO159      0.2599
     38  O          3.7630    6.6270  -17.4470 O.2   159  PRO159     -0.2715
     39  CB         2.4810    8.7870  -15.7170 C.3   159  PRO159      0.0310
     40  CG         1.3040    9.5470  -16.1960 C.3   159  PRO159      0.0237
     41  CD         1.8490   10.7000  -16.9940 C.3   159  PRO159      0.0939
     42  N          2.8870    7.9780  -19.0220 N.am  160  CYS160     -0.1954
     43  CA         2.7710    6.9160  -20.0150 C.3   160  CYS160      0.1843
     44  C          2.5110    7.5460  -21.3760 C.2   160  CYS160      0.2626
     45  O          2.2150    8.7390  -21.4860 O.2   160  CYS160     -0.2714
     46  CB         1.6610    5.9260  -19.6540 C.3   160  CYS160      0.0997
     47  SG         0.0050    6.6400  -19.6160 S.3   160  CYS160     -0.0797
     48  N          2.6180    6.7180  -22.4120 N.am  161  GLY161     -0.1940
     49  CA         2.4900    7.1770  -23.7810 C.3   161  GLY161      0.2014
     50  C          3.7740    6.9770  -24.5570 C.2   161  GLY161      0.2639
     51  O          4.8660    7.0470  -23.9850 O.2   161  GLY161     -0.2714
     52  N          3.6640    6.7220  -25.8600 N.am  162  TYR162     -0.1959
     53  CA         4.8430    6.4930  -26.6850 C.3   162  TYR162      0.1771
     54  C          4.5060    6.7960  -28.1360 C.2   162  TYR162      0.2620
     55  O          3.4660    6.3590  -28.6380 O.2   162  TYR162     -0.2715
     56  CB         5.3420    5.0510  -26.5450 C.3   162  TYR162      0.0574
     57  CG         6.4650    4.6970  -27.4940 C.ar  162  TYR162     -0.0198
     58  CD1        6.1970    4.1870  -28.7580 C.ar  162  TYR162     -0.0009
     59  CD2        7.7940    4.8700  -27.1250 C.ar  162  TYR162     -0.0009
     60  CE1        7.2200    3.8610  -29.6300 C.ar  162  TYR162      0.0417
     61  CE2        8.8240    4.5460  -27.9900 C.ar  162  TYR162      0.0417
     62  CZ         8.5310    4.0430  -29.2410 C.ar  162  TYR162      0.1957
     63  OH         9.5520    3.7190  -30.1050 O.3   162  TYR162     -0.2866
     64  N          5.3910    7.5360  -28.8000 N.am  163  SER163     -0.1950
     65  CA         5.2710    7.8280  -30.2190 C.3   163  SER163      0.1924
     66  C          6.5990    7.5330  -30.8970 C.2   163  SER163      0.2314
     67  O          7.6650    7.6770  -30.2930 O.2   163  SER163     -0.2863
     68  CB         4.8770    9.2910  -30.4680 C.3   163  SER163      0.2116
     69  OG         3.6810    9.6270  -29.7860 O.3   163  SER163     -0.2180
     70  N          1.7460    5.2670  -32.5570 N.3   176  HIS176     -0.1226
     71  CA         1.4010    6.0400  -31.3710 C.3   176  HIS176      0.1752
     72  C          0.5990    5.1510  -30.4350 C.2   176  HIS176      0.2596
     73  O         -0.3540    4.4940  -30.8660 O.2   176  HIS176     -0.2718
     74  CB         0.6090    7.2930  -31.7440 C.3   176  HIS176      0.0759
     75  CG         1.3060    8.1660  -32.7380 C.ar  176  HIS176      0.0818
     76  ND1        2.1660    9.1780  -32.3680 N.ar  176  HIS176     -0.2268
     77  CD2        1.2780    8.1720  -34.0920 C.ar  176  HIS176      0.1154
     78  CE1        2.6330    9.7730  -33.4510 C.ar  176  HIS176      0.1986
     79  NE2        2.1100    9.1820  -34.5100 N.ar  176  HIS176     -0.2212
     80  N          0.9800    5.1340  -29.1590 N.am  177  ILE177     -0.1966
     81  CA         0.4750    4.1580  -28.2000 C.3   177  ILE177      0.1727
     82  C         -0.1610    4.8910  -27.0270 C.2   177  ILE177      0.2617
     83  O          0.4200    5.8400  -26.4900 O.2   177  ILE177     -0.2715
     84  CB         1.5950    3.2210  -27.7130 C.3   177  ILE177      0.0290
     85  CG1        2.2890    2.5640  -28.9100 C.3   177  ILE177      0.0022
     86  CG2        1.0280    2.1600  -26.7740 C.3   177  ILE177      0.0023
     87  CD1        3.5290    1.7820  -28.5460 C.3   177  ILE177      0.0001
     88  N         -1.3510    4.4430  -26.6380 N.am  178  THR178     -0.1937
     89  CA        -2.0090    4.8730  -25.4030 C.3   178  THR178      0.2013
     90  C         -2.1580    3.6410  -24.5190 C.2   178  THR178      0.2484
     91  O         -3.1150    2.8660  -24.6930 O.2   178  THR178     -0.2729
     92  CB        -3.3720    5.5030  -25.6920 C.3   178  THR178      0.1807
     93  OG1       -3.1930    6.6940  -26.4670 O.3   178  THR178     -0.2208
     94  CG2       -4.1010    5.8450  -24.3950 C.3   178  THR178      0.0379
     95  N         -1.2440    3.4030  -23.5730 N.am  179  PRO179     -0.2715
     96  CA        -1.2170    2.1110  -22.8760 C.3   179  PRO179      0.1536
     97  C         -2.1900    1.9740  -21.7120 C.2   179  PRO179      0.2598
     98  O         -2.2770    0.8820  -21.1410 O.2   179  PRO179     -0.2715
     99  CB         0.2350    2.0290  -22.3820 C.3   179  PRO179      0.0310
    100  CG         0.6250    3.4380  -22.1600 C.3   179  PRO179      0.0237
    101  CD        -0.0960    4.2510  -23.2030 C.3   179  PRO179      0.0939
    102  N         -2.9210    3.0230  -21.3340 N.am  180  GLU180     -0.1978
    103  CA        -3.8940    2.8960  -20.2550 C.3   180  GLU180      0.1602
    104  C         -4.8150    1.7090  -20.5060 C.2   180  GLU180      0.2287
    105  O         -5.3090    1.5100  -21.6180 O.2   180  GLU180     -0.2864
    106  CB        -4.7280    4.1710  -20.1190 C.3   180  GLU180      0.0415
    107  CG        -3.9820    5.3590  -19.5460 C.3   180  GLU180      0.1163
    108  CD        -3.3500    6.2160  -20.6190 C.2   180  GLU180      0.3649
    109  OE1       -2.8300    5.6520  -21.6050 O.co2 180  GLU180     -0.2457
    110  OE2       -3.3850    7.4570  -20.4820 O.co2 180  GLU180     -0.2457
@<TRIPOS>BOND
     1     1     2    1
     2     6     5    1
     3     7     5    1
     4     2     5    1
     5     2     3    1
     6    79    77   ar
     7    79    78   ar
     8     4     3    2
     9    77    75   ar
    10     3     8   am
    11    78    76   ar
    12    75    76   ar
    13    75    74    1
    14    70    71    1
    15     8     9    1
    16    74    71    1
    17     9    12    1
    18     9    10    1
    19    71    72    1
    20    12    13    1
    21    66    67    2
    22    66    65    1
    23    73    72    2
    24    11    10    2
    25    68    65    1
    26    68    69    1
    27    72    80   am
    28    65    64    1
    29    63    62    1
    30    60    62   ar
    31    60    58   ar
    32    62    61   ar
    33    80    81    1
    34    85    87    1
    35    85    84    1
    36    64    54   am
    37    58    57   ar
    38    55    54    2
    39    81    84    1
    40    81    82    1
    41    54    53    1
    42    61    59   ar
    43    84    86    1
    44    25    24    1
    45    57    59   ar
    46    57    56    1
    47    82    88   am
    48    82    83    2
    49    53    56    1
    50    53    52    1
    51    88    89    1
    52    22    24   ar
    53    22    20   ar
    54    24    23   ar
    55    93    92    1
    56    52    50   am
    57    92    89    1
    58    92    94    1
    59    89    90    1
    60    20    19   ar
    61    23    21   ar
    62    91    90    2
    63    50    51    2
    64    50    49    1
    65    90    95   am
    66    19    21   ar
    67    19    18    1
    68    49    48    1
    69    95   101    1
    70    95    96    1
    71   101   100    1
    72    14    15    1
    73    96    99    1
    74    96    97    1
    75    18    15    1
    76    48    44   am
    77    99   100    1
    78    15    16    1
    79    97   102   am
    80    97    98    2
    81   105   104    2
    82   109   108   ar
    83    45    44    2
    84    44    43    1
    85   102   103    1
    86    16    17    2
    87    16    26   am
    88   108   110   ar
    89   108   107    1
    90   104   103    1
    91   103   106    1
    92   106   107    1
    93    43    46    1
    94    43    42    1
    95    26    27    1
    96    46    47    1
    97    42    37   am
    98    29    28    2
    99    27    28    1
   100    27    30    1
   101    28    35   am
   102    37    38    2
   103    37    36    1
   104    30    31    1
   105    35    41    1
   106    35    36    1
   107    41    40    1
   108    36    39    1
   109    33    32   ar
   110    31    32    1
   111    40    39    1
   112    32    34   ar
