@<TRIPOS>MOLECULE
tmp/5tvgA00.pdb
 168 160 0 0 0
SMALL
GASTEIGER

@<TRIPOS>ATOM
      1  N          7.9420    5.3380   14.5590 N.3    27  GLY27      -0.1210
      2  CA         6.9840    5.6110   13.5000 C.3    27  GLY27       0.1956
      3  C          5.7840    6.3800   13.9880 C.2    27  GLY27       0.2612
      4  O          5.9060    7.4890   14.5380 O.2    27  GLY27      -0.2717
      5  N          4.6220    5.7600   13.8300 N.am   28  GLY28      -0.1956
      6  CA         3.4060    6.2320   14.4400 C.3    28  GLY28       0.1869
      7  C          2.8150    7.4340   13.7270 C.2    28  GLY28       0.2309
      8  O          3.2360    7.8440   12.6530 O.2    28  GLY28      -0.2863
      9  N        -13.1100   -2.0530   18.8510 N.3    92  TRP92      -0.1241
     10  CA       -11.9870   -2.7710   18.2540 C.3    92  TRP92       0.1605
     11  C        -12.3670   -4.1890   17.8210 C.2    92  TRP92       0.2264
     12  O        -12.0880   -4.5520   16.6620 O.2    92  TRP92      -0.2867
     13  CB       -10.7780   -2.7710   19.1990 C.3    92  TRP92       0.0550
     14  CG        -9.6300   -3.5540   18.6080 C.ar   92  TRP92       0.0003
     15  CD1       -9.4150   -4.9140   18.7130 C.ar   92  TRP92       0.0946
     16  CD2       -8.5450   -3.0450   17.8120 C.ar   92  TRP92       0.0152
     17  NE1       -8.2610   -5.2650   18.0470 N.ar   92  TRP92      -0.2442
     18  CE2       -7.7180   -4.1400   17.4750 C.ar   92  TRP92       0.0810
     19  CE3       -8.1890   -1.7700   17.3610 C.ar   92  TRP92       0.0012
     20  CZ2       -6.5620   -3.9960   16.7020 C.ar   92  TRP92       0.0191
     21  CZ3       -7.0380   -1.6300   16.6110 C.ar   92  TRP92       0.0001
     22  CH2       -6.2390   -2.7390   16.2880 C.ar   92  TRP92       0.0015
     23  N          6.6450   -9.4280   12.7120 N.3   268  VAL268     -0.1231
     24  CA         6.5720   -8.4210   13.7780 C.3   268  VAL268      0.1692
     25  C          5.1110   -8.0020   13.9140 C.2   268  VAL268      0.2592
     26  O          4.5050   -7.5390   12.9320 O.2   268  VAL268     -0.2718
     27  CB         7.4500   -7.1810   13.5110 C.3   268  VAL268      0.0266
     28  CG1        7.2050   -6.1360   14.6250 C.3   268  VAL268      0.0020
     29  CG2        8.9410   -7.5450   13.4760 C.3   268  VAL268      0.0020
     30  N          4.5420   -8.1790   15.1140 N.am  269  ASP269     -0.1960
     31  CA         3.1300   -7.8860   15.3550 C.3   269  ASP269      0.1840
     32  C          2.9320   -7.5270   16.8230 C.2   269  ASP269      0.2621
     33  O          3.4850   -8.2010   17.6900 O.2   269  ASP269     -0.2715
     34  CB         2.2100   -9.0990   15.0610 C.3   269  ASP269      0.1450
     35  CG         2.3800   -9.6740   13.6610 C.2   269  ASP269      0.3671
     36  OD1        3.4500  -10.2340   13.3530 O.co2 269  ASP269     -0.2456
     37  OD2        1.4120   -9.6020   12.8690 O.co2 269  ASP269     -0.2456
     38  N          2.0790   -6.5390   17.1150 N.am  270  ARG270     -0.1977
     39  CA         1.5120   -6.4830   18.4710 C.3   270  ARG270      0.1597
     40  C          0.7680   -7.7950   18.7400 C.2   270  ARG270      0.2287
     41  O          0.2680   -8.4600   17.8280 O.2   270  ARG270     -0.2864
     42  CB         0.5430   -5.3110   18.6550 C.3   270  ARG270      0.0334
     43  CG         1.1400   -3.8770   18.6670 C.3   270  ARG270      0.0492
     44  CD         0.0050   -2.7920   18.7700 C.3   270  ARG270      0.2205
     45  NE        -0.9500   -2.9430   17.6640 N.pl3 270  ARG270     -0.0865
     46  CZ        -2.1920   -3.4320   17.7850 C.cat 270  ARG270      0.5346
     47  NH1       -2.6660   -3.7900   18.9810 N.pl3 270  ARG270      0.1354
     48  NH2       -2.9560   -3.5880   16.6920 N.pl3 270  ARG270      0.1354
     49  N         -4.1760  -10.1840   14.6130 N.3   275  LYS275     -0.1245
     50  CA        -2.9650  -10.4550   13.8470 C.3   275  LYS275      0.1561
     51  C         -2.8420  -11.9240   13.4320 C.2   275  LYS275      0.2260
     52  O         -1.9470  -12.2670   12.6480 O.2   275  LYS275     -0.2867
     53  CB        -1.7380   -9.9860   14.6510 C.3   275  LYS275      0.0271
     54  CG        -1.7540   -8.4470   14.9970 C.3   275  LYS275      0.0035
     55  CD        -1.6070   -7.5150   13.7300 C.3   275  LYS275      0.0206
     56  CE        -1.7500   -6.0390   14.0530 C.3   275  LYS275      0.1093
     57  NZ        -1.4910   -5.0450   12.8850 N.3   275  LYS275     -0.1314
     58  N          8.5360  -11.5990   16.6950 N.3   303  ILE303     -0.1245
     59  CA         8.5940  -10.5280   17.6790 C.3   303  ILE303      0.1561
     60  C          7.1640  -10.0700   17.8890 C.2   303  ILE303      0.2260
     61  O          6.4830   -9.6920   16.9270 O.2   303  ILE303     -0.2867
     62  CB         9.4840   -9.3770   17.1940 C.3   303  ILE303      0.0252
     63  CG1       10.9380   -9.8570   17.1330 C.3   303  ILE303      0.0019
     64  CG2        9.2990   -8.1250   18.0930 C.3   303  ILE303      0.0019
     65  CD1       11.8630   -8.9180   16.4430 C.3   303  ILE303      0.0001
     66  N          5.4240   -7.9350   20.8970 N.3   305  PRO305     -0.2116
     67  CA         5.3050   -7.2260   22.1760 C.3   305  PRO305      0.1372
     68  C          3.8750   -7.2110   22.6790 C.2   305  PRO305      0.2244
     69  O          2.9280   -7.1540   21.8810 O.2   305  PRO305     -0.2868
     70  CB         5.7970   -5.8030   21.8490 C.3   305  PRO305      0.0268
     71  CG         5.6470   -5.6800   20.3370 C.3   305  PRO305      0.0207
     72  CD         5.8360   -7.0570   19.7850 C.3   305  PRO305      0.0892
     73  N         10.2470   -5.6140   22.8940 N.3   346  LYS346     -0.1231
     74  CA        10.1210   -4.5760   21.8780 C.3   346  LYS346      0.1693
     75  C         11.5010   -4.1890   21.3650 C.2   346  LYS346      0.2592
     76  O         12.4860   -4.2740   22.0980 O.2   346  LYS346     -0.2718
     77  CB         9.4120   -3.3570   22.4640 C.3   346  LYS346      0.0285
     78  CG         8.8010   -2.4150   21.4390 C.3   346  LYS346      0.0035
     79  CD         8.6540   -1.0170   22.0220 C.3   346  LYS346      0.0206
     80  CE         7.2890   -0.4260   21.7120 C.3   346  LYS346      0.1093
     81  NZ         7.1240   -0.0820   20.2730 N.3   346  LYS346     -0.1314
     82  N         11.5930   -3.9080   20.0650 N.am  347  TYR347     -0.1976
     83  CA        12.8470   -3.4810   19.4570 C.3   347  TYR347      0.1639
     84  C         12.6840   -2.1200   18.8110 C.2   347  TYR347      0.2290
     85  O         11.5980   -1.7590   18.3400 O.2   347  TYR347     -0.2864
     86  CB        13.3830   -4.4890   18.3870 C.3   347  TYR347      0.0560
     87  CG        13.9050   -5.7920   18.9660 C.ar  347  TYR347     -0.0198
     88  CD1       13.0390   -6.7990   19.3740 C.ar  347  TYR347     -0.0009
     89  CD2       15.2720   -5.9830   19.1750 C.ar  347  TYR347     -0.0009
     90  CE1       13.5310   -8.0100   19.9200 C.ar  347  TYR347      0.0417
     91  CE2       15.7660   -7.1660   19.7440 C.ar  347  TYR347      0.0417
     92  CZ        14.8930   -8.1750   20.1130 C.ar  347  TYR347      0.1957
     93  OH        15.3860   -9.3430   20.6720 O.3   347  TYR347     -0.2866
     94  N         12.6200    0.5220   16.0760 N.3   349  ARG349     -0.1245
     95  CA        12.0310    0.3230   14.7480 C.3   349  ARG349      0.1563
     96  C         13.0980    0.1720   13.6640 C.2   349  ARG349      0.2260
     97  O         12.9430   -0.6300   12.7360 O.2   349  ARG349     -0.2867
     98  CB        11.0870    1.4810   14.4270 C.3   349  ARG349      0.0307
     99  CG        10.1050    1.1910   13.3380 C.3   349  ARG349      0.0489
    100  CD         8.9170    2.1520   13.3260 C.3   349  ARG349      0.2205
    101  NE         8.3620    2.2110   11.9740 N.pl3 349  ARG349     -0.0865
    102  CZ         8.8270    3.0300   11.0410 C.cat 349  ARG349      0.5346
    103  NH1        9.8280    3.8400   11.3550 N.pl3 349  ARG349      0.1354
    104  NH2        8.2980    3.0510    9.8110 N.pl3 349  ARG349      0.1354
    105  N         14.2160   -3.3290   13.5170 N.3   352  LEU352     -0.1231
    106  CA        13.2500   -4.1600   12.8130 C.3   352  LEU352      0.1693
    107  C         13.5140   -4.1670   11.3050 C.2   352  LEU352      0.2591
    108  O         13.3880   -5.2130   10.6470 O.2   352  LEU352     -0.2718
    109  CB        11.8270   -3.6810   13.1260 C.3   352  LEU352      0.0284
    110  CG        11.3280   -3.8160   14.5660 C.3   352  LEU352      0.0019
    111  CD1        9.8840   -3.4330   14.6450 C.3   352  LEU352      0.0001
    112  CD2       11.5050   -5.2560   15.0670 C.3   352  LEU352      0.0001
    113  N         13.8770   -3.0120   10.7400 N.am  353  MET353     -0.1979
    114  CA        14.1650   -2.9380    9.3020 C.3   353  MET353      0.1605
    115  C         15.3680   -3.7940    8.9200 C.2   353  MET353      0.2287
    116  O         15.3590   -4.4600    7.8820 O.2   353  MET353     -0.2864
    117  CB        14.3660   -1.4780    8.8830 C.3   353  MET353      0.0413
    118  CG        13.2290   -0.5590    9.3820 C.3   353  MET353      0.0598
    119  SD        11.5920   -1.1610    8.8890 S.3   353  MET353     -0.1393
    120  CE        10.5330   -0.3660   10.0670 C.3   353  MET353      0.0692
    121  N         -7.0140   -6.3170    9.2450 N.3   369  ASP369     -0.1239
    122  CA        -6.1490   -5.1790    9.5230 C.3   369  ASP369      0.1674
    123  C         -6.5400   -3.9910    8.6490 C.2   369  ASP369      0.2266
    124  O         -6.7750   -4.1540    7.4400 O.2   369  ASP369     -0.2867
    125  CB        -4.6890   -5.5410    9.2860 C.3   369  ASP369      0.1410
    126  CG        -3.8140   -5.2660   10.5050 C.2   369  ASP369      0.3668
    127  OD1       -4.1790   -4.4150   11.3670 O.co2 369  ASP369     -0.2456
    128  OD2       -2.7480   -5.9260   10.5990 O.co2 369  ASP369     -0.2456
    129  N         -4.7710   -1.5320    7.5310 N.3   371  MET371     -0.1230
    130  CA        -3.7860   -1.4420    6.4600 C.3   371  MET371      0.1702
    131  C         -2.6590   -2.4660    6.6390 C.2   371  MET371      0.2592
    132  O         -2.4550   -3.3170    5.7690 O.2   371  MET371     -0.2718
    133  CB        -3.2100   -0.0160    6.3950 C.3   371  MET371      0.0401
    134  CG        -2.0650    0.1470    5.4050 C.3   371  MET371      0.0596
    135  SD        -2.5540   -0.2750    3.6950 S.3   371  MET371     -0.1393
    136  CE        -4.0630    0.6620    3.5200 C.3   371  MET371      0.0692
    137  N         -1.9500   -2.3890    7.7780 N.am  372  ASN372     -0.1960
    138  CA        -0.7320   -3.1220    8.1360 C.3   372  ASN372      0.1819
    139  C          0.5040   -2.5250    7.4560 C.2   372  ASN372      0.2621
    140  O          0.7980   -2.8270    6.2870 O.2   372  ASN372     -0.2715
    141  CB        -0.8000   -4.6340    7.8170 C.3   372  ASN372      0.1195
    142  CG         0.3160   -5.4090    8.5260 C.2   372  ASN372      0.2630
    143  OD1        1.5110   -5.2210    8.2360 O.2   372  ASN372     -0.2716
    144  ND2       -0.0670   -6.2560    9.4890 N.am  372  ASN372     -0.0877
    145  N          1.2370   -1.6780    8.1870 N.am  373  LEU373     -0.1963
    146  CA         2.4290   -1.0030    7.6650 C.3   373  LEU373      0.1728
    147  C          3.6720   -1.8770    7.7250 C.2   373  LEU373      0.2616
    148  O          4.6120   -1.6680    6.9370 O.2   373  LEU373     -0.2715
    149  CB         2.6840    0.3020    8.4450 C.3   373  LEU373      0.0311
    150  CG         1.6220    1.3830    8.3020 C.3   373  LEU373      0.0022
    151  CD1        1.9440    2.6110    9.2080 C.3   373  LEU373      0.0001
    152  CD2        1.4940    1.7630    6.7940 C.3   373  LEU373      0.0001
    153  N          3.7060   -2.8360    8.6580 N.am  374  VAL374     -0.1977
    154  CA         4.7790   -3.8380    8.6700 C.3   374  VAL374      0.1596
    155  C          4.9300   -4.4750    7.2900 C.2   374  VAL374      0.2287
    156  O          6.0480   -4.6430    6.7820 O.2   374  VAL374     -0.2864
    157  CB         4.5080   -4.9030    9.7530 C.3   374  VAL374      0.0276
    158  CG1        5.3890   -6.1830    9.5400 C.3   374  VAL374      0.0022
    159  CG2        4.7340   -4.3140   11.1700 C.3   374  VAL374      0.0022
    160  N          6.6300   -1.9280    5.2350 N.3   377  GLU377     -0.1245
    161  CA         7.9830   -1.7720    5.7660 C.3   377  GLU377      0.1567
    162  C          8.8360   -2.9530    5.3920 C.2   377  GLU377      0.2260
    163  O         10.0270   -2.8010    5.0850 O.2   377  GLU377     -0.2867
    164  CB         7.9570   -1.6060    7.3010 C.3   377  GLU377      0.0388
    165  CG         7.3330   -0.2800    7.7800 C.3   377  GLU377      0.1160
    166  CD         7.0240   -0.2950    9.2850 C.2   377  GLU377      0.3649
    167  OE1        6.5980    0.7390    9.8050 O.co2 377  GLU377     -0.2457
    168  OE2        7.1580   -1.3590    9.9420 O.co2 377  GLU377     -0.2457
@<TRIPOS>BOND
     1   136   135    1
     2   135   134    1
     3   163   162    2
     4   160   161    1
     5   162   161    1
     6   134   133    1
     7   161   164    1
     8   132   131    2
     9   140   139    2
    10   133   130    1
    11   130   131    1
    12   130   129    1
    13   131   137   am
    14   156   155    2
    15   152   150    1
    16   148   147    2
    17   155   154    1
    18   164   165    1
    19   124   123    2
    20   139   138    1
    21   139   145   am
    22   146   147    1
    23   146   145    1
    24   146   149    1
    25   147   153   am
    26   137   138    1
    27   165   166    1
    28   141   138    1
    29   141   142    1
    30   116   115    2
    31   143   142    2
    32   150   149    1
    33   150   151    1
    34   142   144   am
    35   123   122    1
    36   153   154    1
    37   154   157    1
    38   117   114    1
    39   117   118    1
    40   119   118    1
    41   119   120    1
    42   115   114    1
    43   121   122    1
    44   166   167   ar
    45   166   168   ar
    46   125   122    1
    47   125   126    1
    48   114   113    1
    49   158   157    1
    50   157   159    1
    51   104   102    1
    52   126   128   ar
    53   126   127   ar
    54   108   107    2
    55   113   107   am
    56   102   103    1
    57   102   101    2
    58   107   106    1
    59   101   100    1
    60    52    51    2
    61     8     7    2
    62    23    24    1
    63    97    96    2
    64   106   109    1
    65   106   105    1
    66    37    35   ar
    67    57    56    1
    68    26    25    2
    69   109   110    1
    70   100    99    1
    71    99    98    1
    72    36    35   ar
    73    51    50    1
    74    29    27    1
    75     2     3    1
    76     2     1    1
    77    27    24    1
    78    27    28    1
    79    35    34    1
    80    96    95    1
    81     7     6    1
    82    55    56    1
    83    55    54    1
    84    24    25    1
    85     5     3   am
    86     5     6    1
    87    50    49    1
    88    50    53    1
    89    25    30   am
    90     3     4    2
    91    98    95    1
    92   110   111    1
    93   110   112    1
    94    53    54    1
    95    95    94    1
    96    34    31    1
    97    30    31    1
    98    31    32    1
    99    22    21   ar
   100    22    20   ar
   101    65    63    1
   102    21    19   ar
   103    12    11    2
   104    48    46    1
   105    58    59    1
   106    20    18   ar
   107    32    38   am
   108    32    33    2
   109    61    60    2
   110    38    39    1
   111    63    62    1
   112    62    59    1
   113    62    64    1
   114    19    16   ar
   115    18    16   ar
   116    18    17   ar
   117    45    46    2
   118    45    44    1
   119    59    60    1
   120    46    47    1
   121    16    14   ar
   122    11    10    1
   123    41    40    2
   124    17    15   ar
   125    10     9    1
   126    10    13    1
   127    85    84    2
   128    86    87    1
   129    86    83    1
   130    39    42    1
   131    39    40    1
   132    14    15   ar
   133    14    13    1
   134    42    43    1
   135    43    44    1
   136    84    83    1
   137    87    89   ar
   138    87    88   ar
   139    89    91   ar
   140    88    90   ar
   141    83    82    1
   142    91    92   ar
   143    72    71    1
   144    72    66    1
   145    90    92   ar
   146    82    75   am
   147    92    93    1
   148    81    80    1
   149    71    70    1
   150    66    67    1
   151    75    74    1
   152    75    76    2
   153    78    79    1
   154    78    77    1
   155    80    79    1
   156    70    67    1
   157    74    77    1
   158    74    73    1
   159    69    68    2
   160    67    68    1
