@<TRIPOS>MOLECULE
tmp/5tviB00.pdb
 89 85 0 0 0
SMALL
GASTEIGER

@<TRIPOS>ATOM
      1  N        111.9770   25.3850   -7.3050 N.3    50  ASN50      -0.1240
      2  CA       112.1190   23.9330   -7.1510 C.3    50  ASN50       0.1653
      3  C        112.5280   23.5120   -5.7310 C.2    50  ASN50       0.2266
      4  O        112.0350   22.4940   -5.1980 O.2    50  ASN50      -0.2867
      5  CB       113.0940   23.3840   -8.2040 C.3    50  ASN50       0.1155
      6  CG       112.4560   23.2760   -9.5680 C.2    50  ASN50       0.2627
      7  OD1      112.9450   23.8460  -10.5540 O.2    50  ASN50      -0.2716
      8  ND2      111.3410   22.5770   -9.6370 N.am   50  ASN50      -0.0877
      9  N        109.4040   23.8590   -3.5720 N.3    53  LYS53      -0.1231
     10  CA       108.5120   22.7400   -3.8860 C.3    53  LYS53       0.1693
     11  C        108.9560   21.4410   -3.1650 C.2    53  LYS53       0.2591
     12  O        108.1290   20.6920   -2.5940 O.2    53  LYS53      -0.2718
     13  CB       108.5020   22.5550   -5.3980 C.3    53  LYS53       0.0285
     14  CG       107.5260   21.5590   -5.9520 C.3    53  LYS53       0.0035
     15  CD       107.7680   21.5620   -7.4650 C.3    53  LYS53       0.0206
     16  CE       106.8540   20.6830   -8.1980 C.3    53  LYS53       0.1093
     17  NZ       107.1470   20.7430   -9.6670 N.3    53  LYS53      -0.1314
     18  N        110.2570   21.1860   -3.1600 N.am   54  ALA54      -0.1980
     19  CA       110.7680   20.0380   -2.4200 C.3    54  ALA54       0.1597
     20  C        110.4510   20.1730   -0.9180 C.2    54  ALA54       0.2287
     21  O        109.8960   19.2440   -0.2770 O.2    54  ALA54      -0.2864
     22  CB       112.2810   19.8890   -2.6420 C.3    54  ALA54       0.0319
     23  N        106.9660   19.6160   -0.0340 N.3    57  ASN57      -0.1225
     24  CA       106.5880   18.2130   -0.1120 C.3    57  ASN57       0.1785
     25  C        107.1910   17.3580    0.9930 C.2    57  ASN57       0.2597
     26  O        106.9080   16.1670    1.0790 O.2    57  ASN57      -0.2718
     27  CB       106.9150   17.6380   -1.4900 C.3    57  ASN57       0.1169
     28  CG       105.8210   17.9010   -2.4840 C.2    57  ASN57       0.2627
     29  OD1      104.7850   17.2520   -2.4440 O.2    57  ASN57      -0.2716
     30  ND2      106.0240   18.8710   -3.3670 N.am   57  ASN57      -0.0877
     31  N        108.0430   17.9550    1.8200 N.am   58  ARG58      -0.1979
     32  CA       108.5470   17.2370    2.9940 C.3    58  ARG58       0.1597
     33  C        107.4940   16.8520    4.0260 C.2    58  ARG58       0.2287
     34  O        107.6350   15.8390    4.7120 O.2    58  ARG58      -0.2864
     35  CB       109.6040   18.0530    3.7150 C.3    58  ARG58       0.0334
     36  CG       110.9690   17.8390    3.1890 C.3    58  ARG58       0.0492
     37  CD       111.9610   18.6310    3.9770 C.3    58  ARG58       0.2205
     38  NE       113.1690   18.7960    3.1940 N.pl3  58  ARG58      -0.0865
     39  CZ       113.7310   19.9640    2.9490 C.cat  58  ARG58       0.5346
     40  NH1      113.1940   21.0700    3.4600 N.pl3  58  ARG58       0.1354
     41  NH2      114.8400   20.0150    2.2230 N.pl3  58  ARG58       0.1354
     42  N        103.3310   22.9760   -3.7150 N.3    84  ARG84      -0.1231
     43  CA       103.6380   21.5460   -3.7220 C.3    84  ARG84       0.1694
     44  C        103.5970   20.9780   -5.1290 C.2    84  ARG84       0.2593
     45  O        104.1600   19.9190   -5.4120 O.2    84  ARG84      -0.2718
     46  CB       102.5750   20.7910   -2.9160 C.3    84  ARG84       0.0321
     47  CG       102.8250   20.6730   -1.4310 C.3    84  ARG84       0.0489
     48  CD       101.6530   19.9210   -0.7700 C.3    84  ARG84       0.2205
     49  NE       101.8520   19.7330    0.6630 N.pl3  84  ARG84      -0.0865
     50  CZ       101.3820   18.6970    1.3590 C.cat  84  ARG84       0.5346
     51  NH1      100.6770   17.7440    0.7570 N.pl3  84  ARG84       0.1354
     52  NH2      101.6220   18.6110    2.6590 N.pl3  84  ARG84       0.1354
     53  N        102.9140   21.6830   -6.0140 N.am   85  THR85      -0.1939
     54  CA       102.5050   21.1130   -7.2760 C.3    85  THR85       0.2028
     55  C        102.9290   21.9300   -8.4800 C.2    85  THR85       0.2642
     56  O        102.8140   21.4680   -9.6110 O.2    85  THR85      -0.2714
     57  CB       100.9630   20.9440   -7.3030 C.3    85  THR85       0.1808
     58  OG1      100.3360   22.1680   -6.8850 O.3    85  THR85      -0.2208
     59  CG2      100.5450   19.8450   -6.3440 C.3    85  THR85       0.0379
     60  N        103.4240   23.1430   -8.2590 N.am   86  ILE86      -0.1963
     61  CA       103.6760   24.0310   -9.3950 C.3    86  ILE86       0.1727
     62  C        104.7480   23.4820  -10.3460 C.2    86  ILE86       0.2616
     63  O        105.7310   22.8850   -9.9240 O.2    86  ILE86      -0.2715
     64  CB       104.0850   25.4510   -8.9400 C.3    86  ILE86       0.0290
     65  CG1      104.1570   26.3990  -10.1380 C.3    86  ILE86       0.0022
     66  CG2      105.4220   25.4220   -8.2100 C.3    86  ILE86       0.0023
     67  CD1      104.1460   27.8620   -9.7610 C.3    86  ILE86       0.0001
     68  N        104.5410   23.6780  -11.6300 N.am   87  ASN87      -0.1958
     69  CA       105.5900   23.4790  -12.6070 C.3    87  ASN87       0.1819
     70  C        106.4850   24.7250  -12.6360 C.2    87  ASN87       0.2621
     71  O        106.1090   25.7630  -13.2080 O.2    87  ASN87      -0.2715
     72  CB       104.9640   23.2260  -13.9690 C.3    87  ASN87       0.1195
     73  CG       105.9790   23.0070  -15.0560 C.2    87  ASN87       0.2630
     74  OD1      107.1690   23.3090  -14.9080 O.2    87  ASN87      -0.2716
     75  ND2      105.5150   22.4790  -16.1740 N.am   87  ASN87      -0.0877
     76  N        107.6740   24.6170  -12.0340 N.am   88  CYS88      -0.1954
     77  CA       108.5650   25.7680  -11.9330 C.3    88  CYS88       0.1843
     78  C        109.0440   26.3420  -13.2630 C.2    88  CYS88       0.2625
     79  O        109.5890   27.4500  -13.2770 O.2    88  CYS88      -0.2714
     80  CB       109.7570   25.4540  -11.0050 C.3    88  CYS88       0.0997
     81  SG       109.2100   25.1790   -9.3000 S.3    88  CYS88      -0.0797
     82  N        108.8440   25.6250  -14.3840 N.am   89  ASP89      -0.1971
     83  CA       109.2120   26.1820  -15.6900 C.3    89  ASP89       0.1709
     84  C        108.2490   27.3170  -16.0790 C.2    89  ASP89       0.2293
     85  O        108.5300   28.0910  -16.9920 O.2    89  ASP89      -0.2864
     86  CB       109.1540   25.1320  -16.8220 C.3    89  ASP89       0.1436
     87  CG       110.2970   24.1240  -16.7650 C.2    89  ASP89       0.3671
     88  OD1      111.3410   24.4000  -16.1190 O.co2  89  ASP89      -0.2456
     89  OD2      110.1380   23.0480  -17.3920 O.co2  89  ASP89      -0.2456
@<TRIPOS>BOND
     1    89    87   ar
     2    85    84    2
     3    86    87    1
     4    86    83    1
     5    87    88   ar
     6    75    73   am
     7    84    83    1
     8    83    82    1
     9    73    74    2
    10    73    72    1
    11    82    78   am
    12    72    69    1
    13    79    78    2
    14    78    77    1
    15    71    70    2
    16    70    69    1
    17    70    76   am
    18    69    68    1
    19    76    77    1
    20    77    80    1
    21    68    62   am
    22    80    81    1
    23     7     6    2
    24    62    63    2
    25    62    61    1
    26    65    67    1
    27    65    64    1
    28    17    16    1
    29     8     6   am
    30    56    55    2
    31     6     5    1
    32    61    64    1
    33    61    60    1
    34    64    66    1
    35    55    60   am
    36    55    54    1
    37     5     2    1
    38    16    15    1
    39    15    14    1
    40     1     2    1
    41    57    54    1
    42    57    58    1
    43    57    59    1
    44    54    53    1
    45     2     3    1
    46    53    44   am
    47    14    13    1
    48     3     4    2
    49    45    44    2
    50    13    10    1
    51    44    43    1
    52    10     9    1
    53    10    11    1
    54    43    42    1
    55    43    46    1
    56    30    28   am
    57    11    18   am
    58    11    12    2
    59    18    19    1
    60    46    47    1
    61    22    19    1
    62    28    29    2
    63    28    27    1
    64    19    20    1
    65    27    24    1
    66    47    48    1
    67    20    21    2
    68    48    49    1
    69    24    23    1
    70    24    25    1
    71    49    50    2
    72    51    50    1
    73    25    26    2
    74    25    31   am
    75    50    52    1
    76    31    32    1
    77    41    39    1
    78    39    38    2
    79    39    40    1
    80    32    35    1
    81    32    33    1
    82    36    35    1
    83    36    37    1
    84    38    37    1
    85    33    34    2
