@<TRIPOS>MOLECULE
tmp/5tvjA01.pdb
 184 181 0 0 0
SMALL
GASTEIGER

@<TRIPOS>ATOM
      1  N         17.1350  -22.4320   27.1750 N.3    11  TRP11      -0.1241
      2  CA        16.9520  -21.1070   27.7670 C.3    11  TRP11       0.1605
      3  C         15.5100  -20.7190   28.1080 C.2    11  TRP11       0.2264
      4  O         15.2800  -20.1250   29.1590 O.2    11  TRP11      -0.2867
      5  CB        17.7040  -20.0290   26.9630 C.3    11  TRP11       0.0550
      6  CG        19.1830  -20.0780   27.3080 C.ar   11  TRP11       0.0003
      7  CD1       20.1490  -20.8190   26.6810 C.ar   11  TRP11       0.0946
      8  CD2       19.8340  -19.4330   28.4140 C.ar   11  TRP11       0.0152
      9  NE1       21.3610  -20.6460   27.3070 N.ar   11  TRP11      -0.2442
     10  CE2       21.1960  -19.8010   28.3720 C.ar   11  TRP11       0.0810
     11  CE3       19.4000  -18.5700   29.4270 C.ar   11  TRP11       0.0012
     12  CZ2       22.1270  -19.3360   29.3040 C.ar   11  TRP11       0.0191
     13  CZ3       20.3270  -18.1080   30.3500 C.ar   11  TRP11       0.0001
     14  CH2       21.6750  -18.4940   30.2820 C.ar   11  TRP11       0.0015
     15  N         14.3780  -19.5530   31.7840 N.3    15  PHE15      -0.1241
     16  CA        13.6230  -18.3270   32.0690 C.3    15  PHE15       0.1605
     17  C         12.3180  -18.6030   32.8200 C.2    15  PHE15       0.2264
     18  O         11.9040  -17.7900   33.6540 O.2    15  PHE15      -0.2867
     19  CB        13.3430  -17.5250   30.7880 C.3    15  PHE15       0.0534
     20  CG        14.5810  -16.9420   30.1350 C.ar   15  PHE15      -0.0203
     21  CD1       15.7440  -16.6720   30.8690 C.ar   15  PHE15      -0.0042
     22  CD2       14.5730  -16.6310   28.7730 C.ar   15  PHE15      -0.0042
     23  CE1       16.8710  -16.1310   30.2530 C.ar   15  PHE15      -0.0003
     24  CE2       15.6980  -16.0890   28.1550 C.ar   15  PHE15      -0.0003
     25  CZ        16.8470  -15.8410   28.8970 C.ar   15  PHE15      -0.0000
     26  N         12.5370  -16.0490   41.2370 N.3    22  PHE22      -0.1241
     27  CA        13.0020  -14.7010   41.5680 C.3    22  PHE22       0.1605
     28  C         11.8840  -13.6920   41.3520 C.2    22  PHE22       0.2264
     29  O         11.4270  -13.4980   40.2310 O.2    22  PHE22      -0.2867
     30  CB        14.1940  -14.2820   40.6950 C.3    22  PHE22       0.0534
     31  CG        15.2360  -15.3560   40.4900 C.ar   22  PHE22      -0.0203
     32  CD1       15.6090  -15.7350   39.2030 C.ar   22  PHE22      -0.0042
     33  CD2       15.8590  -15.9660   41.5740 C.ar   22  PHE22      -0.0042
     34  CE1       16.5750  -16.7010   39.0060 C.ar   22  PHE22      -0.0003
     35  CE2       16.8250  -16.9370   41.3820 C.ar   22  PHE22      -0.0003
     36  CZ        17.1830  -17.3060   40.0960 C.ar   22  PHE22      -0.0000
     37  N         12.0350  -10.4440   41.6950 N.3    24  ASP24      -0.1225
     38  CA        12.5910   -9.3000   40.9760 C.3    24  ASP24       0.1805
     39  C         12.9860   -9.6650   39.5350 C.2    24  ASP24       0.2598
     40  O         13.8740   -9.0260   38.9590 O.2    24  ASP24      -0.2718
     41  CB        13.8080   -8.7380   41.7510 C.3    24  ASP24       0.1424
     42  CG        14.9420   -9.7650   41.9160 C.2    24  ASP24       0.3668
     43  OD1       15.1870  -10.2080   43.0610 O.co2  24  ASP24      -0.2456
     44  OD2       15.5780  -10.1360   40.9020 O.co2  24  ASP24      -0.2456
     45  N         12.3440  -10.6740   38.9440 N.am   25  PHE25      -0.1962
     46  CA        12.8080  -11.1760   37.6610 C.3    25  PHE25       0.1771
     47  C         12.5990  -10.1300   36.5740 C.2    25  PHE25       0.2619
     48  O         11.6360   -9.3810   36.5650 O.2    25  PHE25      -0.2715
     49  CB        12.1920  -12.5260   37.2740 C.3    25  PHE25       0.0574
     50  CG        12.6920  -13.0560   35.9530 C.ar   25  PHE25      -0.0200
     51  CD1       14.0500  -13.3040   35.7580 C.ar   25  PHE25      -0.0042
     52  CD2       11.8190  -13.2780   34.8940 C.ar   25  PHE25      -0.0042
     53  CE1       14.5220  -13.7630   34.5360 C.ar   25  PHE25      -0.0003
     54  CE2       12.2830  -13.7530   33.6740 C.ar   25  PHE25      -0.0003
     55  CZ        13.6360  -13.9920   33.4940 C.ar   25  PHE25      -0.0000
     56  N         13.5370  -10.1540   35.6460 N.am   26  ILE26      -0.1977
     57  CA        13.9480   -9.0300   34.8440 C.3    26  ILE26       0.1596
     58  C         13.2640   -9.1020   33.4650 C.2    26  ILE26       0.2287
     59  O         13.2830   -8.1350   32.6930 O.2    26  ILE26      -0.2864
     60  CB        15.5140   -9.1010   34.7830 C.3    26  ILE26       0.0276
     61  CG1       16.1290   -8.8610   36.1840 C.3    26  ILE26       0.0022
     62  CG2       16.1070   -8.1870   33.7370 C.3    26  ILE26       0.0022
     63  CD1       16.6220   -7.4530   36.4760 C.3    26  ILE26       0.0001
     64  N         17.2320  -10.2770   30.4560 N.3    31  ALA31      -0.1245
     65  CA        17.9550  -11.5100   30.7430 C.3    31  ALA31       0.1562
     66  C         18.9340  -11.8510   29.6110 C.2    31  ALA31       0.2260
     67  O         20.0530  -12.3010   29.8560 O.2    31  ALA31      -0.2867
     68  CB        16.9800  -12.6540   30.9550 C.3    31  ALA31       0.0290
     69  N         22.0390   -9.4920   30.0150 N.3    34  TRP34      -0.1227
     70  CA        22.9460  -10.0310   31.0450 C.3    34  TRP34       0.1737
     71  C         23.6670  -11.2900   30.5820 C.2    34  TRP34       0.2595
     72  O         24.7700  -11.5850   31.0470 O.2    34  TRP34      -0.2718
     73  CB        22.1850  -10.3570   32.3400 C.3    34  TRP34       0.0564
     74  CG        21.8760   -9.1450   33.1640 C.ar   34  TRP34       0.0003
     75  CD1       20.8280   -8.2900   33.0010 C.ar   34  TRP34       0.0946
     76  CD2       22.6390   -8.6400   34.2640 C.ar   34  TRP34       0.0152
     77  NE1       20.8840   -7.2860   33.9320 N.ar   34  TRP34      -0.2442
     78  CE2       21.9860   -7.4750   34.7240 C.ar   34  TRP34       0.0810
     79  CE3       23.8050   -9.0580   34.9070 C.ar   34  TRP34       0.0012
     80  CZ2       22.4700   -6.7150   35.7980 C.ar   34  TRP34       0.0191
     81  CZ3       24.2890   -8.3050   35.9730 C.ar   34  TRP34       0.0001
     82  CH2       23.6190   -7.1490   36.4100 C.ar   34  TRP34       0.0015
     83  N         23.0310  -12.0370   29.6840 N.am   35  ARG35      -0.1980
     84  CA        23.5970  -13.2680   29.1650 C.3    35  ARG35       0.1597
     85  C         24.9020  -13.0330   28.3980 C.2    35  ARG35       0.2287
     86  O         25.7630  -13.9000   28.3820 O.2    35  ARG35      -0.2864
     87  CB        22.5890  -14.0070   28.2760 C.3    35  ARG35       0.0334
     88  CG        22.5950  -15.5060   28.4940 C.3    35  ARG35       0.0492
     89  CD        22.7100  -16.3060   27.2090 C.3    35  ARG35       0.2205
     90  NE        21.4320  -16.4340   26.5290 N.pl3  35  ARG35      -0.0865
     91  CZ        21.1850  -17.2910   25.5410 C.cat  35  ARG35       0.5346
     92  NH1       22.1250  -18.1210   25.1030 N.pl3  35  ARG35       0.1354
     93  NH2       19.9810  -17.3190   24.9880 N.pl3  35  ARG35       0.1354
     94  N         27.9980  -13.9490   30.3500 N.3    38  VAL38      -0.1245
     95  CA        28.2060  -15.3440   30.7030 C.3    38  VAL38       0.1561
     96  C         29.1180  -15.9720   29.6470 C.2    38  VAL38       0.2260
     97  O         28.7520  -16.0260   28.4680 O.2    38  VAL38      -0.2867
     98  CB        26.8640  -16.1020   30.7320 C.3    38  VAL38       0.0252
     99  CG1       27.0680  -17.5650   31.1230 C.3    38  VAL38       0.0019
    100  CG2       25.9020  -15.4160   31.6940 C.3    38  VAL38       0.0019
    101  N         24.9440  -20.2260   37.0700 N.3    57  LEU57      -0.1245
    102  CA        25.9390  -19.7180   36.1420 C.3    57  LEU57       0.1561
    103  C         26.8590  -18.6920   36.7820 C.2    57  LEU57       0.2260
    104  O         26.6290  -18.2350   37.9000 O.2    57  LEU57      -0.2867
    105  CB        25.2590  -19.1000   34.9240 C.3    57  LEU57       0.0270
    106  CG        24.2700  -17.9700   35.2110 C.3    57  LEU57       0.0019
    107  CD1       24.9520  -16.6320   35.4470 C.3    57  LEU57       0.0001
    108  CD2       23.2990  -17.8500   34.0490 C.3    57  LEU57       0.0001
    109  N         29.2920  -15.0230   35.7120 N.3    59  MET59      -0.1245
    110  CA        29.5800  -13.9690   34.7630 C.3    59  MET59       0.1570
    111  C         31.0170  -13.5380   34.9360 C.2    59  MET59       0.2261
    112  O         31.5650  -13.5960   36.0430 O.2    59  MET59      -0.2867
    113  CB        28.6630  -12.7790   35.0070 C.3    59  MET59       0.0387
    114  CG        27.2420  -13.0500   34.5550 C.3    59  MET59       0.0595
    115  SD        26.0380  -11.8280   35.0880 S.3    59  MET59      -0.1393
    116  CE        26.3340  -11.7440   36.8530 C.3    59  MET59       0.0692
    117  N         28.8570  -15.4220   40.4850 N.3    76  LEU76      -0.1231
    118  CA        27.7620  -16.3920   40.5020 C.3    76  LEU76       0.1693
    119  C         26.4290  -15.6510   40.5060 C.2    76  LEU76       0.2593
    120  O         26.2880  -14.6330   41.1780 O.2    76  LEU76      -0.2718
    121  CB        27.8070  -17.2730   41.7590 C.3    76  LEU76       0.0284
    122  CG        28.6800  -18.5300   41.8360 C.3    76  LEU76       0.0019
    123  CD1       27.9850  -19.7310   41.2310 C.3    76  LEU76       0.0001
    124  CD2       30.0500  -18.3200   41.1970 C.3    76  LEU76       0.0001
    125  N         25.4580  -16.1830   39.7710 N.am   77  SER77      -0.1938
    126  CA        24.1410  -15.5850   39.6830 C.3    77  SER77       0.2055
    127  C         23.1540  -16.5660   39.0850 C.2    77  SER77       0.2643
    128  O         23.5300  -17.6590   38.6290 O.2    77  SER77      -0.2714
    129  CB        24.1810  -14.3290   38.8110 C.3    77  SER77       0.2130
    130  OG        22.9500  -13.6130   38.8780 O.3    77  SER77      -0.2179
    131  N         21.8830  -16.1730   39.0980 N.am   78  PHE78      -0.1959
    132  CA        20.8370  -16.9090   38.3880 C.3    78  PHE78       0.1771
    133  C         20.7400  -18.3470   38.8740 C.2    78  PHE78       0.2619
    134  O         20.4290  -19.2520   38.1010 O.2    78  PHE78      -0.2715
    135  CB        21.1570  -16.8820   36.8970 C.3    78  PHE78       0.0574
    136  CG        19.9620  -16.7800   36.0150 C.ar   78  PHE78      -0.0200
    137  CD1       19.6900  -17.7650   35.0750 C.ar   78  PHE78      -0.0042
    138  CD2       19.1270  -15.6800   36.0890 C.ar   78  PHE78      -0.0042
    139  CE1       18.5930  -17.6560   34.2340 C.ar   78  PHE78      -0.0003
    140  CE2       18.0290  -15.5660   35.2470 C.ar   78  PHE78      -0.0003
    141  CZ        17.7620  -16.5580   34.3200 C.ar   78  PHE78      -0.0000
    142  N         21.0230  -18.5530   40.1570 N.am   79  VAL79      -0.1977
    143  CA        21.0450  -19.8850   40.7590 C.3    79  VAL79       0.1596
    144  C         19.6560  -20.1970   41.2730 C.2    79  VAL79       0.2287
    145  O         19.0420  -19.3700   41.9470 O.2    79  VAL79      -0.2864
    146  CB        21.9970  -19.9380   41.9520 C.3    79  VAL79       0.0276
    147  CG1       21.9690  -21.3010   42.6180 C.3    79  VAL79       0.0022
    148  CG2       23.4170  -19.5890   41.5210 C.3    79  VAL79       0.0022
    149  N         26.0000  -12.1000   45.3420 N.3   113  HIS113     -0.1241
    150  CA        25.0540  -11.4490   46.2750 C.3   113  HIS113      0.1621
    151  C         24.0640  -12.5010   46.7980 C.2   113  HIS113      0.2264
    152  O         23.5180  -13.2880   46.0220 O.2   113  HIS113     -0.2867
    153  CB        24.3150  -10.3060   45.5890 C.3   113  HIS113      0.0745
    154  CG        25.1660   -9.0990   45.3810 C.ar  113  HIS113      0.0817
    155  ND1       25.1490   -8.0190   46.2350 N.ar  113  HIS113     -0.2268
    156  CD2       26.0910   -8.8160   44.4370 C.ar  113  HIS113      0.1154
    157  CE1       26.0200   -7.1170   45.8210 C.ar  113  HIS113      0.1986
    158  NE2       26.6050   -7.5770   44.7320 N.ar  113  HIS113     -0.2212
    159  N         20.7750  -14.2080   48.3910 N.3   115  SER115     -0.1217
    160  CA        19.3260  -14.0930   48.6010 C.3   115  SER115      0.1889
    161  C         18.9730  -14.3660   50.0710 C.2   115  SER115      0.2288
    162  O         18.0240  -13.7970   50.6040 O.2   115  SER115     -0.2866
    163  CB        18.5640  -15.0500   47.6830 C.3   115  SER115      0.2089
    164  OG        18.8560  -16.3970   48.0100 O.3   115  SER115     -0.2183
    165  N         24.4830   -4.7470   42.1620 N.3   395  GLU395     -0.1231
    166  CA        23.9740   -6.0760   42.4000 C.3   395  GLU395      0.1699
    167  C         23.9820   -6.8720   41.0910 C.2   395  GLU395      0.2592
    168  O         23.7360   -6.3220   40.0150 O.2   395  GLU395     -0.2718
    169  CB        22.5570   -5.9840   42.9800 C.3   395  GLU395      0.0402
    170  CG        22.2350   -7.0920   43.9680 C.3   395  GLU395      0.1161
    171  CD        20.8420   -6.9720   44.5730 C.2   395  GLU395      0.3649
    172  OE1       20.3620   -5.8310   44.7960 O.co2 395  GLU395     -0.2457
    173  OE2       20.2390   -8.0390   44.8310 O.co2 395  GLU395     -0.2457
    174  N         24.2850   -8.1640   41.1970 N.am  396  PHE396     -0.1976
    175  CA        24.3160   -9.0620   40.0410 C.3   396  PHE396      0.1639
    176  C         23.8820  -10.4510   40.4820 C.2   396  PHE396      0.2290
    177  O         23.6370  -11.3200   39.6330 O.2   396  PHE396     -0.2864
    178  CB        25.7210   -9.0980   39.3950 C.3   396  PHE396      0.0560
    179  CG        26.7940   -9.6700   40.2960 C.ar  396  PHE396     -0.0200
    180  CD1       26.9780  -11.0410   40.4020 C.ar  396  PHE396     -0.0042
    181  CD2       27.5920   -8.8360   41.0580 C.ar  396  PHE396     -0.0042
    182  CE1       27.9360  -11.5650   41.2510 C.ar  396  PHE396     -0.0003
    183  CE2       28.5610   -9.3570   41.8940 C.ar  396  PHE396     -0.0003
    184  CZ        28.7350  -10.7190   41.9930 C.ar  396  PHE396     -0.0000
@<TRIPOS>BOND
     1    93    91    1
     2    92    91    1
     3    91    90    2
     4    90    89    1
     5     7     9   ar
     6     7     6   ar
     7     5     6    1
     8     5     2    1
     9     1     2    1
    10    89    88    1
    11     9    10   ar
    12     6     8   ar
    13     2     3    1
    14     3     4    2
    15    24    22   ar
    16    24    25   ar
    17    87    88    1
    18    87    84    1
    19    10     8   ar
    20    10    12   ar
    21    86    85    2
    22    85    84    1
    23     8    11   ar
    24    97    96    2
    25    22    20   ar
    26    25    23   ar
    27    84    83    1
    28    12    14   ar
    29    11    13   ar
    30    66    67    2
    31    66    65    1
    32    96    95    1
    33    83    71   am
    34    69    70    1
    35    20    19    1
    36    20    21   ar
    37    23    21   ar
    38    14    13   ar
    39    94    95    1
    40    64    65    1
    41    71    70    1
    42    71    72    2
    43    95    98    1
    44    98    99    1
    45    98   100    1
    46    65    68    1
    47    19    16    1
    48    70    73    1
    49    15    16    1
    50    16    17    1
    51    73    74    1
    52    59    58    2
    53    17    18    2
    54    75    74   ar
    55    75    77   ar
    56    74    76   ar
    57    58    57    1
    58    55    54   ar
    59    55    53   ar
    60    54    52   ar
    61    62    60    1
    62    77    78   ar
    63   108   106    1
    64   139   141   ar
    65   139   137   ar
    66    76    78   ar
    67    76    79   ar
    68   141   140   ar
    69    53    51   ar
    70   114   113    1
    71   114   115    1
    72    78    80   ar
    73   110   111    1
    74   110   113    1
    75   110   109    1
    76    60    57    1
    77    60    61    1
    78    57    56    1
    79    52    50   ar
    80    79    81   ar
    81   105   106    1
    82   105   102    1
    83   111   112    2
    84   137   136   ar
    85   115   116    1
    86   106   107    1
    87   140   138   ar
    88    56    47   am
    89    51    50   ar
    90    80    82   ar
    91    50    49    1
    92    81    82   ar
    93   136   138   ar
    94   136   135    1
    95   102   103    1
    96   102   101    1
    97    61    63    1
    98    48    47    2
    99    47    46    1
   100   103   104    2
   101   135   132    1
   102    49    46    1
   103    46    45    1
   104   134   133    2
   105   132   133    1
   106   132   131    1
   107   128   127    2
   108   129   130    1
   109   129   126    1
   110   133   142   am
   111    45    39   am
   112    40    39    2
   113    34    32   ar
   114    34    36   ar
   115   127   131   am
   116   127   126    1
   117    32    31   ar
   118   178   175    1
   119   178   179    1
   120    39    38    1
   121   177   176    2
   122   126   125    1
   123   125   119   am
   124   168   167    2
   125   175   176    1
   126   175   174    1
   127    36    35   ar
   128   142   143    1
   129    29    28    2
   130   179   180   ar
   131   179   181   ar
   132   180   182   ar
   133   117   118    1
   134    31    30    1
   135    31    33   ar
   136   118   119    1
   137   118   121    1
   138   119   120    2
   139    30    27    1
   140   143   144    1
   141   143   146    1
   142    44    42   ar
   143    38    37    1
   144    38    41    1
   145   181   183   ar
   146   167   174   am
   147   167   166    1
   148   124   122    1
   149   123   122    1
   150    26    27    1
   151   182   184   ar
   152   144   145    2
   153    28    27    1
   154    35    33   ar
   155   148   146    1
   156    41    42    1
   157   121   122    1
   158   183   184   ar
   159    42    43   ar
   160   146   147    1
   161   165   166    1
   162   166   169    1
   163   169   170    1
   164   170   171    1
   165   156   158   ar
   166   156   154   ar
   167   171   172   ar
   168   171   173   ar
   169   158   157   ar
   170   149   150    1
   171   154   153    1
   172   154   155   ar
   173   153   150    1
   174   157   155   ar
   175   152   151    2
   176   150   151    1
   177   163   164    1
   178   163   160    1
   179   159   160    1
   180   160   161    1
   181   161   162    2
