@<TRIPOS>MOLECULE
tmp/5tvkB00.pdb
 164 156 0 0 0
SMALL
GASTEIGER

@<TRIPOS>ATOM
      1  N         -1.2960   21.1570   -2.3340 N.3    12  GLY12      -0.1210
      2  CA        -1.4310   20.1720   -1.2870 C.3    12  GLY12       0.1956
      3  C         -0.6070   18.9230   -1.5540 C.2    12  GLY12       0.2612
      4  O         -0.1900   18.6600   -2.6780 O.2    12  GLY12      -0.2717
      5  N         -0.3510   18.1580   -0.4870 N.am   13  GLY13      -0.1942
      6  CA         0.4430   16.9520   -0.6240 C.3    13  GLY13       0.2014
      7  C          1.9180   17.1950   -0.8400 C.2    13  GLY13       0.2639
      8  O          2.6110   16.3340   -1.3960 O.2    13  GLY13      -0.2714
      9  N          2.4210   18.3570   -0.4270 N.am   14  VAL14      -0.1963
     10  CA         3.8200   18.7030   -0.6250 C.3    14  VAL14       0.1727
     11  C          4.6380   18.5360    0.6490 C.2    14  VAL14       0.2617
     12  O          5.7670   19.0300    0.7190 O.2    14  VAL14      -0.2715
     13  CB         3.9630   20.1330   -1.1750 C.3    14  VAL14       0.0290
     14  CG1        3.1810   20.2880   -2.4760 C.3    14  VAL14       0.0023
     15  CG2        3.5040   21.1500   -0.1280 C.3    14  VAL14       0.0023
     16  N          4.0930   17.8570    1.6590 N.am   15  GLY15      -0.1940
     17  CA         4.7940   17.6810    2.9150 C.3    15  GLY15       0.2014
     18  C          4.7610   18.8850    3.8230 C.2    15  GLY15       0.2639
     19  O          5.6460   19.0450    4.6740 O.2    15  GLY15      -0.2714
     20  N          3.7460   19.7320    3.6800 N.am   16  LYS16      -0.1963
     21  CA         3.6360   20.9240    4.5110 C.3    16  LYS16       0.1728
     22  C          3.4190   20.5650    5.9830 C.2    16  LYS16       0.2617
     23  O          4.1840   21.0000    6.8540 O.2    16  LYS16      -0.2715
     24  CB         2.5110   21.7990    3.9650 C.3    16  LYS16       0.0311
     25  CG         2.1870   23.0220    4.7600 C.3    16  LYS16       0.0038
     26  CD         0.8930   23.6370    4.2260 C.3    16  LYS16       0.0206
     27  CE        -0.2330   22.5910    4.2080 C.3    16  LYS16       0.1093
     28  NZ        -0.6730   22.1240    5.5780 N.3    16  LYS16      -0.1314
     29  N          2.4090   19.7380    6.2790 N.am   17  SER17      -0.1936
     30  CA         2.1220   19.3760    7.6730 C.3    17  SER17       0.2055
     31  C          3.2360   18.5220    8.2650 C.2    17  SER17       0.2643
     32  O          3.6600   18.7340    9.4020 O.2    17  SER17      -0.2714
     33  CB         0.8020   18.6110    7.7490 C.3    17  SER17       0.2130
     34  OG        -0.2870   19.4780    7.6000 O.3    17  SER17      -0.2179
     35  N          3.7320   17.5640    7.4850 N.am   18  THR18      -0.1950
     36  CA         4.8350   16.7200    7.9190 C.3    18  THR18       0.1897
     37  C          6.0380   17.5630    8.3310 C.2    18  THR18       0.2313
     38  O          6.6680   17.3020    9.3610 O.2    18  THR18      -0.2863
     39  CB         5.1970   15.7730    6.7720 C.3    18  THR18       0.1794
     40  OG1        4.0370   15.0190    6.4070 O.3    18  THR18      -0.2208
     41  CG2        6.3110   14.8030    7.1790 C.3    18  THR18       0.0378
     42  N         -5.0400   24.5360    9.6120 N.3    39  ASP39      -0.1239
     43  CA        -5.4210   23.8760    8.3780 C.3    39  ASP39       0.1674
     44  C         -6.7490   23.1620    8.5960 C.2    39  ASP39       0.2266
     45  O         -6.8690   22.3530    9.5200 O.2    39  ASP39      -0.2867
     46  CB        -4.3090   22.9090    7.9520 C.3    39  ASP39       0.1410
     47  CG        -4.5960   22.1820    6.6240 C.2    39  ASP39       0.3668
     48  OD1       -5.5900   22.4930    5.9290 O.co2  39  ASP39      -0.2456
     49  OD2       -3.7830   21.2970    6.2730 O.co2  39  ASP39      -0.2456
     50  N         -7.8170   20.7730    7.0620 N.3    41  GLN41      -0.1245
     51  CA        -7.5950   19.3260    7.0120 C.3    41  GLN41       0.1566
     52  C         -7.2740   18.7350    8.3760 C.2    41  GLN41       0.2260
     53  O         -7.3890   17.5170    8.5440 O.2    41  GLN41      -0.2867
     54  CB        -6.4710   18.9490    6.0450 C.3    41  GLN41       0.0367
     55  CG        -6.8830   18.9270    4.5860 C.3    41  GLN41       0.0905
     56  CD        -7.6670   17.6810    4.2190 C.2    41  GLN41       0.2608
     57  OE1       -8.8990   17.6710    4.3070 O.2    41  GLN41      -0.2717
     58  NE2       -6.9600   16.6080    3.8570 N.am   41  GLN41      -0.0878
     59  N         -4.5490   17.9350    9.7700 N.3    43  SER43      -0.1217
     60  CA        -3.5830   16.8360    9.7420 C.3    43  SER43       0.1889
     61  C         -2.7710   16.7820   11.0300 C.2    43  SER43       0.2288
     62  O         -2.6230   15.7140   11.6370 O.2    43  SER43      -0.2866
     63  CB        -2.6560   16.9510    8.5340 C.3    43  SER43       0.2089
     64  OG        -3.4060   17.1190    7.3490 O.3    43  SER43      -0.2183
     65  N         -3.4870   25.0080    1.9060 N.3   129  PRO129     -0.2116
     66  CA        -2.9430   25.3100    0.5720 C.3   129  PRO129      0.1372
     67  C         -3.8630   26.2250   -0.2130 C.2   129  PRO129      0.2244
     68  O         -4.5250   25.7500   -1.1290 O.2   129  PRO129     -0.2868
     69  CB        -2.8580   23.9340   -0.1160 C.3   129  PRO129      0.0268
     70  CG        -3.2980   22.9200    0.9150 C.3   129  PRO129      0.0207
     71  CD        -4.0860   23.6650    1.9610 C.3   129  PRO129      0.0892
     72  N         10.7300   19.0530   -1.1960 N.3   180  THR180     -0.1203
     73  CA        10.3390   17.8230   -0.5110 C.3   180  THR180      0.1994
     74  C         10.0830   16.6950   -1.5070 C.2   180  THR180      0.2617
     75  O         10.0300   16.8990   -2.7210 O.2   180  THR180     -0.2717
     76  CB         9.0980   18.0340    0.3650 C.3   180  THR180      0.1784
     77  OG1        7.9920   18.4280   -0.4520 O.3   180  THR180     -0.2211
     78  CG2        9.3580   19.0950    1.4180 C.3   180  THR180      0.0376
     79  N          9.9620   15.4840   -0.9640 N.am  181  ARG181     -0.1979
     80  CA         9.6660   14.2760   -1.7340 C.3   181  ARG181      0.1597
     81  C         10.5940   14.1360   -2.9370 C.2   181  ARG181      0.2287
     82  O         10.1700   13.8250   -4.0530 O.2   181  ARG181     -0.2864
     83  CB         8.2010   14.2500   -2.1650 C.3   181  ARG181      0.0334
     84  CG         7.2410   14.5310   -1.0190 C.3   181  ARG181      0.0492
     85  CD         5.8090   14.1580   -1.3650 C.3   181  ARG181      0.2205
     86  NE         5.5840   12.7320   -1.1360 N.pl3 181  ARG181     -0.0865
     87  CZ         4.3890   12.1520   -1.1010 C.cat 181  ARG181      0.5346
     88  NH1        3.2950   12.8800   -1.2800 N.pl3 181  ARG181      0.1354
     89  NH2        4.2890   10.8460   -0.8780 N.pl3 181  ARG181      0.1354
     90  N         14.3610   17.2670    0.9290 N.3   205  ILE205     -0.1231
     91  CA        13.9160   16.1070    1.6910 C.3   205  ILE205      0.1692
     92  C         13.5750   14.9950    0.6980 C.2   205  ILE205      0.2593
     93  O         12.8060   15.2150   -0.2450 O.2   205  ILE205     -0.2718
     94  CB        12.6840   16.4510    2.5480 C.3   205  ILE205      0.0266
     95  CG1       12.9960   17.5710    3.5520 C.3   205  ILE205      0.0019
     96  CG2       12.1950   15.2190    3.2490 C.3   205  ILE205      0.0020
     97  CD1       14.0050   17.1900    4.5990 C.3   205  ILE205      0.0001
     98  N         14.1500   13.8090    0.9010 N.am  206  SER206     -0.1938
     99  CA        13.9100   12.6770    0.0190 C.3   206  SER206      0.2055
    100  C         12.5870   11.9960    0.3410 C.2   206  SER206      0.2643
    101  O         12.1580   11.9500    1.4960 O.2   206  SER206     -0.2714
    102  CB        15.0320   11.6480    0.1440 C.3   206  SER206      0.2130
    103  OG        16.2940   12.2530   -0.0320 O.3   206  SER206     -0.2179
    104  N         11.9620   11.4310   -0.6920 N.am  207  GLU207     -0.1963
    105  CA        10.7670   10.6130   -0.5120 C.3   207  GLU207      0.1733
    106  C         11.1450    9.2890    0.1360 C.2   207  GLU207      0.2616
    107  O         11.9730    8.5510   -0.4040 O.2   207  GLU207     -0.2715
    108  CB        10.0830   10.3650   -1.8550 C.3   207  GLU207      0.0429
    109  CG         8.8630    9.4380   -1.7700 C.3   207  GLU207      0.1163
    110  CD         7.5610   10.1830   -1.4680 C.2   207  GLU207      0.3649
    111  OE1        7.6180   11.3330   -0.9760 O.co2 207  GLU207     -0.2457
    112  OE2        6.4760    9.6160   -1.7150 O.co2 207  GLU207     -0.2457
    113  N         10.5570    8.9920    1.2980 N.am  208  ARG208     -0.1977
    114  CA        10.9010    7.7950    2.0650 C.3   208  ARG208      0.1597
    115  C          9.6520    7.0590    2.5320 C.2   208  ARG208      0.2287
    116  O          8.7480    7.6720    3.1080 O.2   208  ARG208     -0.2864
    117  CB        11.7750    8.1280    3.2770 C.3   208  ARG208      0.0334
    118  CG        13.1780    8.5970    2.9360 C.3   208  ARG208      0.0492
    119  CD        13.9920    7.4410    2.3760 C.3   208  ARG208      0.2205
    120  NE        15.4200    7.7410    2.3210 N.pl3 208  ARG208     -0.0865
    121  CZ        16.1300    7.9170    1.2130 C.cat 208  ARG208      0.5346
    122  NH1       15.5530    7.8330    0.0260 N.pl3 208  ARG208      0.1354
    123  NH2       17.4280    8.1750    1.3030 N.pl3 208  ARG208      0.1354
    124  N          8.7500    7.2610    6.2890 N.3   211  LEU211     -0.1231
    125  CA         8.2040    8.5160    6.7930 C.3   211  LEU211      0.1693
    126  C          6.7280    8.6340    6.4510 C.2   211  LEU211      0.2592
    127  O          5.9520    9.1830    7.2390 O.2   211  LEU211     -0.2718
    128  CB         8.9910    9.7080    6.2270 C.3   211  LEU211      0.0284
    129  CG         8.4400   11.1310    6.4070 C.3   211  LEU211      0.0019
    130  CD1        8.0920   11.3970    7.8530 C.3   211  LEU211      0.0001
    131  CD2        9.4260   12.1860    5.9150 C.3   211  LEU211      0.0001
    132  N          6.3130    8.0930    5.3040 N.am  212  ASN212     -0.1974
    133  CA         4.8860    7.9600    5.0430 C.3   212  ASN212      0.1688
    134  C          4.2140    7.1660    6.1580 C.2   212  ASN212      0.2292
    135  O          3.2370    7.6270    6.7520 O.2   212  ASN212     -0.2864
    136  CB         4.6500    7.3020    3.6790 C.3   212  ASN212      0.1181
    137  CG         4.9480    8.1810    2.5280 C.2   212  ASN212      0.2629
    138  OD1        4.2570    9.1990    2.3900 O.2   212  ASN212     -0.2716
    139  ND2        5.9050    7.8780    1.7360 N.am  212  ASN212     -0.0877
    140  N          3.5600    8.8020    9.9470 N.3   215  ILE215     -0.1231
    141  CA         2.5310    9.8180   10.1170 C.3   215  ILE215      0.1692
    142  C          1.2440    9.4930    9.3650 C.2   215  ILE215      0.2591
    143  O          0.1930   10.0560    9.7130 O.2   215  ILE215     -0.2718
    144  CB         3.0590   11.2230    9.7370 C.3   215  ILE215      0.0266
    145  CG1        2.2660   11.8720    8.5990 C.3   215  ILE215      0.0019
    146  CG2        4.5410   11.1720    9.4080 C.3   215  ILE215      0.0020
    147  CD1        1.3420   12.9880    9.0560 C.3   215  ILE215      0.0001
    148  N          1.2730    8.5710    8.3900 N.am  216  ALA216     -0.1980
    149  CA         0.0850    8.2730    7.5820 C.3   216  ALA216      0.1597
    150  C         -1.1000    7.8840    8.4560 C.2   216  ALA216      0.2287
    151  O         -2.1810    8.4740    8.3640 O.2   216  ALA216     -0.2864
    152  CB         0.3700    7.1560    6.5750 C.3   216  ALA216      0.0319
    153  N         15.9510   16.7030    7.6220 N.3   231  TYR231     -0.1241
    154  CA        15.2680   17.8180    8.2820 C.3   231  TYR231      0.1605
    155  C         16.1780   18.5310    9.2770 C.2   231  TYR231      0.2264
    156  O         16.0820   19.7550    9.4300 O.2   231  TYR231     -0.2867
    157  CB        13.9940   17.3420    8.9790 C.3   231  TYR231      0.0534
    158  CG        12.7760   17.3350    8.0780 C.ar  231  TYR231     -0.0201
    159  CD1       12.1260   18.5160    7.7430 C.ar  231  TYR231     -0.0009
    160  CD2       12.2630   16.1520    7.5830 C.ar  231  TYR231     -0.0009
    161  CE1       11.0070   18.5170    6.9230 C.ar  231  TYR231      0.0417
    162  CE2       11.1470   16.1470    6.7450 C.ar  231  TYR231      0.0417
    163  CZ        10.5310   17.3320    6.4240 C.ar  231  TYR231      0.1957
    164  OH         9.4130   17.3230    5.6300 O.3   231  TYR231     -0.2866
@<TRIPOS>BOND
     1    82    81    2
     2    81    80    1
     3    75    74    2
     4     4     3    2
     5    14    13    1
     6     1     2    1
     7    83    80    1
     8    83    84    1
     9   108   109    1
    10   108   105    1
    11   109   110    1
    12    80    79    1
    13   112   110   ar
    14     3     2    1
    15     3     5   am
    16    74    79   am
    17    74    73    1
    18   110   111   ar
    19     8     7    2
    20    85    86    1
    21    85    84    1
    22    88    87    1
    23    72    73    1
    24    13    10    1
    25    13    15    1
    26    86    87    2
    27    68    67    2
    28    87    89    1
    29     7     6    1
    30     7     9   am
    31   104   105    1
    32   104   100   am
    33    10     9    1
    34    10    11    1
    35     6     5    1
    36   105   106    1
    37    73    76    1
    38    77    76    1
    39   107   106    2
    40    93    92    2
    41    67    66    1
    42    69    66    1
    43    69    70    1
    44   103   102    1
    45    99   102    1
    46    99   100    1
    47    99    98    1
    48   122   121    1
    49   106   113   am
    50   100   101    2
    51    76    78    1
    52    66    65    1
    53    11    12    2
    54    11    16   am
    55    92    98   am
    56    92    91    1
    57    70    71    1
    58    90    91    1
    59   121   123    1
    60   121   120    2
    61   113   114    1
    62    16    17    1
    63    91    94    1
    64   139   137   am
    65    65    71    1
    66   114   115    1
    67   114   117    1
    68   120   119    1
    69   119   118    1
    70   138   137    2
    71   137   136    1
    72   115   116    2
    73    94    96    1
    74    94    95    1
    75    17    18    1
    76   118   117    1
    77    95    97    1
    78   136   133    1
    79    20    18   am
    80    20    21    1
    81    18    19    2
    82    58    56   am
    83    24    21    1
    84    24    25    1
    85    27    26    1
    86    27    28    1
    87    56    57    2
    88    56    55    1
    89    26    25    1
    90    21    22    1
    91    55    54    1
    92   133   132    1
    93   133   134    1
    94   132   126   am
    95   164   163    1
    96   131   129    1
    97    48    47   ar
    98    22    29   am
    99    22    23    2
   100    54    51    1
   101   134   135    2
   102   128   129    1
   103   128   125    1
   104    49    47   ar
   105    29    30    1
   106   124   125    1
   107    40    39    1
   108   129   130    1
   109   163   162   ar
   110   163   161   ar
   111   126   125    1
   112   126   127    2
   113   152   149    1
   114    47    46    1
   115   162   160   ar
   116    39    41    1
   117    39    36    1
   118   161   159   ar
   119    51    50    1
   120    51    52    1
   121    64    63    1
   122    35    36    1
   123    35    31   am
   124   149   148    1
   125   149   150    1
   126   160   158   ar
   127    34    33    1
   128   153   154    1
   129    30    33    1
   130    30    31    1
   131   159   158   ar
   132    36    37    1
   133    46    43    1
   134   158   157    1
   135    31    32    2
   136   154   157    1
   137   154   155    1
   138    37    38    2
   139   151   150    2
   140    52    53    2
   141    43    44    1
   142    43    42    1
   143   148   142   am
   144    63    60    1
   145    44    45    2
   146   145   147    1
   147   145   144    1
   148   155   156    2
   149   142   143    2
   150   142   141    1
   151   146   144    1
   152   144   141    1
   153    60    59    1
   154    60    61    1
   155   140   141    1
   156    61    62    2
