@<TRIPOS>MOLECULE
tmp/5tvmB00.pdb
 154 151 0 0 0
SMALL
GASTEIGER

@<TRIPOS>ATOM
      1  N         68.7280   70.5580   78.9690 N.3     7  ASP7       -0.1225
      2  CA        70.1570   70.3090   78.8620 C.3     7  ASP7        0.1805
      3  C         70.9060   70.3180   80.1870 C.2     7  ASP7        0.2597
      4  O         72.1290   70.1360   80.1780 O.2     7  ASP7       -0.2718
      5  CB        70.8040   71.3520   77.9410 C.3     7  ASP7        0.1424
      6  CG        70.8220   72.7370   78.5600 C.2     7  ASP7        0.3668
      7  OD1       70.0150   72.9860   79.4800 O.co2   7  ASP7       -0.2456
      8  OD2       71.6420   73.5740   78.1280 O.co2   7  ASP7       -0.2456
      9  N         70.2360   70.5280   81.3160 N.am    8  ARG8       -0.1979
     10  CA        70.9660   70.6760   82.5670 C.3     8  ARG8        0.1597
     11  C         70.0710   70.3250   83.7440 C.2     8  ARG8        0.2287
     12  O         68.8560   70.1590   83.6110 O.2     8  ARG8       -0.2864
     13  CB        71.5150   72.0990   82.7220 C.3     8  ARG8        0.0334
     14  CG        70.4440   73.1700   82.9060 C.3     8  ARG8        0.0492
     15  CD        71.0460   74.5660   82.8740 C.3     8  ARG8        0.2205
     16  NE        71.6980   74.8390   81.5970 N.pl3   8  ARG8       -0.0865
     17  CZ        72.5040   75.8710   81.3680 C.cat   8  ARG8        0.5346
     18  NH1       73.0490   76.0280   80.1690 N.pl3   8  ARG8        0.1354
     19  NH2       72.7720   76.7430   82.3320 N.pl3   8  ARG8        0.1354
     20  N         69.8020   71.7030   87.9720 N.3    10  ILE10      -0.1245
     21  CA        70.2380   72.6700   88.9710 C.3    10  ILE10       0.1561
     22  C         69.5910   72.2600   90.2830 C.2    10  ILE10       0.2260
     23  O         68.3640   72.3270   90.4220 O.2    10  ILE10      -0.2867
     24  CB        69.8650   74.1120   88.5960 C.3    10  ILE10       0.0252
     25  CG1       70.6640   74.5550   87.3630 C.3    10  ILE10       0.0019
     26  CG2       70.1150   75.0620   89.7750 C.3    10  ILE10       0.0019
     27  CD1       70.2480   75.9040   86.8110 C.3    10  ILE10       0.0001
     28  N         79.3530   67.5560   80.2730 N.3    38  GLU38      -0.1231
     29  CA        80.4520   68.4050   79.8300 C.3    38  GLU38       0.1699
     30  C         80.7460   69.5680   80.7640 C.2    38  GLU38       0.2592
     31  O         81.7500   70.2540   80.5510 O.2    38  GLU38      -0.2718
     32  CB        80.1680   68.9660   78.4270 C.3    38  GLU38       0.0402
     33  CG        78.9340   69.8570   78.3420 C.3    38  GLU38       0.1161
     34  CD        78.9330   70.7460   77.1090 C.2    38  GLU38       0.3649
     35  OE1       80.0280   71.1100   76.6300 O.co2  38  GLU38      -0.2457
     36  OE2       77.8340   71.0850   76.6230 O.co2  38  GLU38      -0.2457
     37  N         79.9270   69.8150   81.7820 N.am   39  TRP39      -0.1976
     38  CA        80.1040   70.9810   82.6430 C.3    39  TRP39       0.1640
     39  C         79.4410   70.6890   83.9780 C.2    39  TRP39       0.2290
     40  O         78.2330   70.4340   84.0240 O.2    39  TRP39      -0.2864
     41  CB        79.4980   72.2230   81.9890 C.3    39  TRP39       0.0576
     42  CG        79.6240   73.4870   82.7870 C.ar   39  TRP39       0.0006
     43  CD1       78.9570   73.8050   83.9350 C.ar   39  TRP39       0.0946
     44  CD2       80.4510   74.6140   82.4780 C.ar   39  TRP39       0.0152
     45  NE1       79.3260   75.0560   84.3660 N.ar   39  TRP39      -0.2442
     46  CE2       80.2420   75.5750   83.4880 C.ar   39  TRP39       0.0810
     47  CE3       81.3520   74.9030   81.4490 C.ar   39  TRP39       0.0012
     48  CZ2       80.9010   76.8000   83.5000 C.ar   39  TRP39       0.0191
     49  CZ3       82.0060   76.1210   81.4620 C.ar   39  TRP39       0.0001
     50  CH2       81.7770   77.0550   82.4800 C.ar   39  TRP39       0.0015
     51  N         84.8200   70.2840   77.6120 N.3    95  VAL95      -0.1245
     52  CA        84.2340   70.9040   76.4290 C.3    95  VAL95       0.1561
     53  C         85.1180   70.5330   75.2420 C.2    95  VAL95       0.2260
     54  O         86.1370   71.1750   74.9840 O.2    95  VAL95      -0.2867
     55  CB        84.1070   72.4200   76.5870 C.3    95  VAL95       0.0252
     56  CG1       83.3710   73.0220   75.3970 C.3    95  VAL95       0.0019
     57  CG2       83.3960   72.7640   77.8890 C.3    95  VAL95       0.0019
     58  N         81.5270   75.7550   71.8670 N.3    99  SER99      -0.1202
     59  CA        80.1190   76.0810   71.7140 C.3    99  SER99       0.2020
     60  C         79.9030   77.5810   71.8980 C.2    99  SER99       0.2619
     61  O         80.8510   78.3760   71.9030 O.2    99  SER99      -0.2717
     62  CB        79.2910   75.2650   72.7100 C.3    99  SER99       0.2103
     63  OG        79.5720   73.8810   72.5960 O.3    99  SER99      -0.2182
     64  N         78.6380   77.9670   72.0450 N.am  100  CYS100     -0.1955
     65  CA        78.2450   79.3510   72.2780 C.3   100  CYS100      0.1843
     66  C         77.5770   79.4330   73.6420 C.2   100  CYS100      0.2626
     67  O         76.5320   78.8100   73.8620 O.2   100  CYS100     -0.2714
     68  CB        77.3010   79.8440   71.1790 C.3   100  CYS100      0.0997
     69  SG        76.5610   81.4610   71.4960 S.3   100  CYS100     -0.0797
     70  N         78.1780   80.1960   74.5520 N.am  101  SER101     -0.1936
     71  CA        77.7030   80.3160   75.9280 C.3   101  SER101      0.2055
     72  C         77.0550   81.6850   76.1040 C.2   101  SER101      0.2643
     73  O         77.7480   82.7080   76.1130 O.2   101  SER101     -0.2714
     74  CB        78.8520   80.1220   76.9150 C.3   101  SER101      0.2130
     75  OG        79.4430   78.8440   76.7660 O.3   101  SER101     -0.2179
     76  N         75.7290   81.7000   76.2520 N.am  102  ASP102     -0.1957
     77  CA        74.9770   82.9360   76.4340 C.3   102  ASP102      0.1840
     78  C         74.0600   82.8510   77.6500 C.2   102  ASP102      0.2622
     79  O         73.0400   83.5420   77.7140 O.2   102  ASP102     -0.2715
     80  CB        74.1710   83.2730   75.1790 C.3   102  ASP102      0.1450
     81  CG        73.2050   82.1700   74.7890 C.2   102  ASP102      0.3671
     82  OD1       73.4900   80.9900   75.0860 O.co2 102  ASP102     -0.2456
     83  OD2       72.1590   82.4840   74.1800 O.co2 102  ASP102     -0.2456
     84  N         74.4110   82.0140   78.6240 N.am  103  ASP103     -0.1957
     85  CA        73.6180   81.8820   79.8360 C.3   103  ASP103      0.1840
     86  C         73.9130   83.0370   80.7920 C.2   103  ASP103      0.2622
     87  O         74.7630   83.8970   80.5400 O.2   103  ASP103     -0.2715
     88  CB        73.8940   80.5430   80.5170 C.3   103  ASP103      0.1450
     89  CG        73.5910   79.3590   79.6250 C.2   103  ASP103      0.3671
     90  OD1       72.7340   79.4920   78.7250 O.co2 103  ASP103     -0.2456
     91  OD2       74.2090   78.2930   79.8300 O.co2 103  ASP103     -0.2456
     92  N         73.1980   83.0500   81.9150 N.am  104  ALA104     -0.1963
     93  CA        73.3980   84.0520   82.9490 C.3   104  ALA104      0.1728
     94  C         72.9990   83.4520   84.2880 C.2   104  ALA104      0.2616
     95  O         72.0750   82.6390   84.3680 O.2   104  ALA104     -0.2715
     96  CB        72.5860   85.3240   82.6710 C.3   104  ALA104      0.0334
     97  N         73.7080   83.8590   85.3390 N.am  105  GLN105     -0.1977
     98  CA        73.4440   83.3660   86.6860 C.3   105  GLN105      0.1601
     99  C         73.6840   84.4960   87.6720 C.2   105  GLN105      0.2287
    100  O         74.7700   85.0850   87.6940 O.2   105  GLN105     -0.2864
    101  CB        74.3290   82.1580   87.0170 C.3   105  GLN105      0.0394
    102  CG        74.1610   81.6230   88.4300 C.3   105  GLN105      0.0908
    103  CD        75.0880   80.4610   88.7210 C.2   105  GLN105      0.2608
    104  OE1       75.6700   79.8760   87.8080 O.2   105  GLN105     -0.2717
    105  NE2       75.2390   80.1270   89.9990 N.am  105  GLN105     -0.0878
    106  N         77.8420   85.2990   87.3680 N.3   218  PHE218     -0.1227
    107  CA        78.5880   84.5230   86.3860 C.3   218  PHE218      0.1736
    108  C         78.2930   85.0700   84.9960 C.2   218  PHE218      0.2595
    109  O         77.1370   85.0820   84.5600 O.2   218  PHE218     -0.2718
    110  CB        78.2240   83.0420   86.4710 C.3   218  PHE218      0.0547
    111  CG        78.8270   82.3410   87.6490 C.ar  218  PHE218     -0.0202
    112  CD1       78.2610   82.4580   88.9050 C.ar  218  PHE218     -0.0042
    113  CD2       79.9630   81.5640   87.4980 C.ar  218  PHE218     -0.0042
    114  CE1       78.8190   81.8140   89.9930 C.ar  218  PHE218     -0.0003
    115  CE2       80.5250   80.9180   88.5810 C.ar  218  PHE218     -0.0003
    116  CZ        79.9510   81.0410   89.8300 C.ar  218  PHE218     -0.0000
    117  N         79.3380   85.5140   84.3040 N.am  219  ILE219     -0.1966
    118  CA        79.2130   86.1860   83.0160 C.3   219  ILE219      0.1727
    119  C         79.7330   85.2510   81.9350 C.2   219  ILE219      0.2616
    120  O         80.9130   84.8790   81.9390 O.2   219  ILE219     -0.2715
    121  CB        79.9740   87.5210   83.0050 C.3   219  ILE219      0.0290
    122  CG1       79.2800   88.5200   83.9360 C.3   219  ILE219      0.0022
    123  CG2       80.0800   88.0740   81.5820 C.3   219  ILE219      0.0023
    124  CD1       80.0000   89.8460   84.0770 C.3   219  ILE219      0.0001
    125  N         78.8570   84.8790   81.0050 N.am  220  ASP220     -0.1971
    126  CA        79.2850   84.1210   79.8420 C.3   220  ASP220      0.1709
    127  C         79.7080   85.0680   78.7220 C.2   220  ASP220      0.2293
    128  O         79.2360   86.2070   78.6520 O.2   220  ASP220     -0.2864
    129  CB        78.1630   83.2150   79.3500 C.3   220  ASP220      0.1436
    130  CG        77.8670   82.0840   80.3120 C.2   220  ASP220      0.3671
    131  OD1       78.7410   81.7650   81.1450 O.co2 220  ASP220     -0.2456
    132  OD2       76.7630   81.5080   80.2320 O.co2 220  ASP220     -0.2456
    133  N         87.6940   82.0760   85.6870 N.3   255  TYR255     -0.1241
    134  CA        87.9740   80.7320   86.1850 C.3   255  TYR255      0.1605
    135  C         88.2310   79.7500   85.0490 C.2   255  TYR255      0.2264
    136  O         89.0460   78.8330   85.2000 O.2   255  TYR255     -0.2867
    137  CB        86.8320   80.2430   87.0810 C.3   255  TYR255      0.0534
    138  CG        85.4640   80.1900   86.4320 C.ar  255  TYR255     -0.0201
    139  CD1       84.6730   81.3290   86.3350 C.ar  255  TYR255     -0.0009
    140  CD2       84.9490   78.9940   85.9470 C.ar  255  TYR255     -0.0009
    141  CE1       83.4210   81.2830   85.7550 C.ar  255  TYR255      0.0417
    142  CE2       83.6960   78.9370   85.3670 C.ar  255  TYR255      0.0417
    143  CZ        82.9360   80.0850   85.2730 C.ar  255  TYR255      0.1957
    144  OH        81.6870   80.0380   84.6940 O.3   255  TYR255     -0.2866
    145  N         85.0650   82.7900   80.3630 N.3   259  HIS259     -0.1241
    146  CA        83.9780   82.8580   81.3310 C.3   259  HIS259      0.1621
    147  C         84.4750   83.5260   82.6030 C.2   259  HIS259      0.2264
    148  O         85.5250   83.1520   83.1380 O.2   259  HIS259     -0.2867
    149  CB        83.4340   81.4630   81.6420 C.3   259  HIS259      0.0745
    150  CG        82.9200   80.7360   80.4380 C.ar  259  HIS259      0.0817
    151  ND1       83.7460   80.2770   79.4350 N.ar  259  HIS259     -0.2268
    152  CD2       81.6620   80.3940   80.0740 C.ar  259  HIS259      0.1154
    153  CE1       83.0200   79.6810   78.5060 C.ar  259  HIS259      0.1986
    154  NE2       81.7520   79.7390   78.8700 N.ar  259  HIS259     -0.2212
@<TRIPOS>BOND
     1    68    69    1
     2    68    65    1
     3    59    58    1
     4    59    60    1
     5    59    62    1
     6    60    61    2
     7    60    64   am
     8    64    65    1
     9    65    66    1
    10    63    62    1
    11    66    67    2
    12    66    70   am
    13    83    81   ar
    14    70    71    1
    15    81    82   ar
    16    81    80    1
    17    54    53    2
    18    80    77    1
    19    53    52    1
    20    56    55    1
    21    71    72    1
    22    71    74    1
    23    72    73    2
    24    72    76   am
    25    76    77    1
    26    52    55    1
    27    52    51    1
    28    77    78    1
    29    55    57    1
    30    36    34   ar
    31    35    34   ar
    32    75    74    1
    33    34    33    1
    34    78    79    2
    35    78    84   am
    36     5     6    1
    37     5     2    1
    38     8     6   ar
    39    33    32    1
    40    32    29    1
    41   153   154   ar
    42   153   151   ar
    43     6     7   ar
    44    84    85    1
    45   128   127    2
    46   127   126    1
    47    90    89   ar
    48     2     1    1
    49     2     3    1
    50   154   152   ar
    51   129   126    1
    52   129   130    1
    53   151   150   ar
    54    89    91   ar
    55    89    88    1
    56    29    28    1
    57    29    30    1
    58    85    88    1
    59    85    86    1
    60   126   125    1
    61   152   150   ar
    62    18    17    1
    63     4     3    2
    64     3     9   am
    65   132   130   ar
    66   130   131   ar
    67   145   146    1
    68   150   149    1
    69    87    86    2
    70    31    30    2
    71    30    37   am
    72    86    92   am
    73   125   119   am
    74     9    10    1
    75   146   149    1
    76   146   147    1
    77    17    16    2
    78    17    19    1
    79    47    49   ar
    80    47    44   ar
    81    49    50   ar
    82   123   121    1
    83    16    15    1
    84    37    38    1
    85    92    93    1
    86   119   120    2
    87   119   118    1
    88    41    38    1
    89    41    42    1
    90    44    42   ar
    91    44    46   ar
    92    50    48   ar
    93    10    13    1
    94    10    11    1
    95   147   148    2
    96    38    39    1
    97    96    93    1
    98    13    14    1
    99    42    43   ar
   100    15    14    1
   101    93    94    1
   102   121   118    1
   103   121   122    1
   104   118   117    1
   105    46    48   ar
   106    46    45   ar
   107    12    11    2
   108    43    45   ar
   109   122   124    1
   110    39    40    2
   111    94    95    2
   112    94    97   am
   113   117   108   am
   114   109   108    2
   115   144   143    1
   116   108   107    1
   117   135   136    2
   118   135   134    1
   119   143   142   ar
   120   143   141   ar
   121    97    98    1
   122   142   140   ar
   123   133   134    1
   124   141   139   ar
   125   140   138   ar
   126   134   137    1
   127   139   138   ar
   128   107   110    1
   129   107   106    1
   130   138   137    1
   131   110   111    1
   132    98   101    1
   133    98    99    1
   134    27    25    1
   135   101   102    1
   136    25    24    1
   137   113   111   ar
   138   113   115   ar
   139   111   112   ar
   140    99   100    2
   141   104   103    2
   142    20    21    1
   143   102   103    1
   144   115   116   ar
   145    24    21    1
   146    24    26    1
   147   103   105   am
   148   112   114   ar
   149    21    22    1
   150   116   114   ar
   151    22    23    2
