@<TRIPOS>MOLECULE
tmp/5tvnA00.pdb
 209 201 0 0 0
SMALL
GASTEIGER

@<TRIPOS>ATOM
      1  N        -14.2440  -26.1640   12.6770 N.3    74  THR74      -0.1218
      2  CA       -15.4060  -26.0740   13.5500 C.3    74  THR74       0.1862
      3  C        -15.8860  -27.4870   13.8720 C.2    74  THR74       0.2287
      4  O        -16.4520  -27.7510   14.9360 O.2    74  THR74      -0.2866
      5  CB       -16.5400  -25.2570   12.8900 C.3    74  THR74       0.1770
      6  OG1      -16.1070  -23.9050   12.7010 O.3    74  THR74      -0.2211
      7  CG2      -17.7990  -25.2630   13.7510 C.3    74  THR74       0.0375
      8  N        -12.2850  -14.5850    9.5820 N.3    91  TRP91      -0.1227
      9  CA       -12.9880  -15.7040    8.9710 C.3    91  TRP91       0.1737
     10  C        -14.4950  -15.4710    8.9260 C.2    91  TRP91       0.2595
     11  O        -15.1280  -15.6510    7.8860 O.2    91  TRP91      -0.2718
     12  CB       -12.6820  -17.0000    9.7180 C.3    91  TRP91       0.0564
     13  CG       -13.5460  -18.1340    9.2850 C.ar   91  TRP91       0.0003
     14  CD1      -13.6680  -18.6330    8.0210 C.ar   91  TRP91       0.0946
     15  CD2      -14.4040  -18.9270   10.1120 C.ar   91  TRP91       0.0152
     16  NE1      -14.5550  -19.6800    8.0080 N.ar   91  TRP91      -0.2442
     17  CE2      -15.0200  -19.8820    9.2830 C.ar   91  TRP91       0.0810
     18  CE3      -14.7110  -18.9190   11.4760 C.ar   91  TRP91       0.0012
     19  CZ2      -15.9260  -20.8220    9.7670 C.ar   91  TRP91       0.0191
     20  CZ3      -15.6110  -19.8540   11.9570 C.ar   91  TRP91       0.0001
     21  CH2      -16.2060  -20.7930   11.1050 C.ar   91  TRP91       0.0015
     22  N        -15.0610  -15.0730   10.0600 N.am   92  LEU92      -0.1980
     23  CA       -16.4840  -14.7730   10.1450 C.3    92  LEU92       0.1596
     24  C        -16.8800  -13.6710    9.1650 C.2    92  LEU92       0.2287
     25  O        -17.9360  -13.7440    8.5380 O.2    92  LEU92      -0.2864
     26  CB       -16.8570  -14.3740   11.5750 C.3    92  LEU92       0.0297
     27  CG       -16.8950  -15.5090   12.6030 C.3    92  LEU92       0.0022
     28  CD1      -16.9700  -14.9670   14.0240 C.3    92  LEU92       0.0001
     29  CD2      -18.0680  -16.4330   12.3220 C.3    92  LEU92       0.0001
     30  N        -16.9250  -15.0120    5.6660 N.3    95  ASP95      -0.1225
     31  CA       -18.0830  -15.8810    5.5130 C.3    95  ASP95       0.1805
     32  C        -19.3150  -15.0780    5.1190 C.2    95  ASP95       0.2597
     33  O        -19.9540  -15.3670    4.1080 O.2    95  ASP95      -0.2718
     34  CB       -18.3560  -16.6600    6.8010 C.3    95  ASP95       0.1424
     35  CG       -19.6510  -17.4470    6.7380 C.2    95  ASP95       0.3668
     36  OD1      -20.7160  -16.8680    7.0330 O.co2  95  ASP95      -0.2456
     37  OD2      -19.6060  -18.6410    6.3830 O.co2  95  ASP95      -0.2456
     38  N        -19.6430  -14.0710    5.9190 N.am   96  VAL96      -0.1980
     39  CA       -20.8330  -13.2610    5.6780 C.3    96  VAL96       0.1595
     40  C        -20.7140  -12.4880    4.3710 C.2    96  VAL96       0.2287
     41  O        -21.6910  -12.3140    3.6460 O.2    96  VAL96      -0.2864
     42  CB       -21.0840  -12.2790    6.8360 C.3    96  VAL96       0.0276
     43  CG1      -22.3590  -11.4940    6.6030 C.3    96  VAL96       0.0022
     44  CG2      -21.1730  -13.0360    8.1470 C.3    96  VAL96       0.0022
     45  N        -20.8100  -15.1240    1.1870 N.3    99  SER99      -0.1202
     46  CA       -22.1190  -15.7620    1.1280 C.3    99  SER99       0.2020
     47  C        -23.1930  -14.7810    0.6800 C.2    99  SER99       0.2619
     48  O        -24.1130  -15.1440   -0.0490 O.2    99  SER99      -0.2717
     49  CB       -22.4950  -16.3540    2.4860 C.3    99  SER99       0.2103
     50  OG       -21.4210  -17.0980    3.0280 O.3    99  SER99      -0.2182
     51  N        -23.0770  -13.5370    1.1250 N.am  100  THR100     -0.1952
     52  CA       -24.0670  -12.5230    0.7960 C.3   100  THR100      0.1897
     53  C        -23.9180  -12.0740   -0.6530 C.2   100  THR100      0.2313
     54  O        -24.9090  -11.8650   -1.3580 O.2   100  THR100     -0.2863
     55  CB       -23.9450  -11.3110    1.7320 C.3   100  THR100      0.1794
     56  OG1      -24.0370  -11.7530    3.0930 O.3   100  THR100     -0.2208
     57  CG2      -25.0370  -10.3090    1.4570 C.3   100  THR100      0.0378
     58  N        -23.1280   -5.2960    4.7820 N.3   146  ILE146     -0.1245
     59  CA       -23.8620   -6.2800    5.5620 C.3   146  ILE146      0.1561
     60  C        -22.9200   -7.0880    6.4520 C.2   146  ILE146      0.2260
     61  O        -23.2570   -7.4050    7.5910 O.2   146  ILE146     -0.2867
     62  CB       -24.6670   -7.2190    4.6450 C.3   146  ILE146      0.0252
     63  CG1      -25.7270   -6.4160    3.8880 C.3   146  ILE146      0.0019
     64  CG2      -25.3310   -8.3180    5.4470 C.3   146  ILE146      0.0019
     65  CD1      -26.5300   -7.2250    2.8920 C.3   146  ILE146      0.0001
     66  N        -15.2480  -19.2930   18.3850 N.3   164  CYS164     -0.1221
     67  CA       -15.6450  -18.5660   17.1850 C.3   164  CYS164      0.1808
     68  C        -17.0810  -18.8760   16.7770 C.2   164  CYS164      0.2601
     69  O        -17.3310  -19.8080   16.0130 O.2   164  CYS164     -0.2717
     70  CB       -14.6920  -18.8910   16.0350 C.3   164  CYS164      0.0970
     71  SG       -14.4680  -17.5570   14.8390 S.3   164  CYS164     -0.0800
     72  N        -18.0180  -18.0830   17.2850 N.am  165  VAL165     -0.1965
     73  CA       -19.4290  -18.2640   16.9710 C.3   165  VAL165      0.1727
     74  C        -20.2070  -16.9650   17.1870 C.2   165  VAL165      0.2616
     75  O        -19.8320  -16.1310   18.0110 O.2   165  VAL165     -0.2715
     76  CB       -20.0530  -19.3970   17.8230 C.3   165  VAL165      0.0290
     77  CG1      -20.2300  -18.9540   19.2690 C.3   165  VAL165      0.0023
     78  CG2      -21.3800  -19.8550   17.2330 C.3   165  VAL165      0.0023
     79  N        -21.2770  -16.7870   16.4210 N.am  166  LEU166     -0.1977
     80  CA       -22.1750  -15.6570   16.6090 C.3   166  LEU166      0.1596
     81  C        -23.3160  -16.0460   17.5430 C.2   166  LEU166      0.2287
     82  O        -24.2510  -16.7340   17.1350 O.2   166  LEU166     -0.2864
     83  CB       -22.7300  -15.1780   15.2660 C.3   166  LEU166      0.0297
     84  CG       -21.7120  -14.6940   14.2340 C.3   166  LEU166      0.0022
     85  CD1      -22.4090  -14.3100   12.9370 C.3   166  LEU166      0.0001
     86  CD2      -20.9160  -13.5200   14.7820 C.3   166  LEU166      0.0001
     87  N        -27.8690   -8.5130   14.6900 N.3   174  PHE174     -0.1227
     88  CA       -27.2080   -8.8220   13.4320 C.3   174  PHE174      0.1736
     89  C        -27.7220  -10.1210   12.8320 C.2   174  PHE174      0.2595
     90  O        -27.8390  -10.2450   11.6160 O.2   174  PHE174     -0.2718
     91  CB       -25.6950   -8.9020   13.6250 C.3   174  PHE174      0.0547
     92  CG       -24.9520   -9.2830   12.3800 C.ar  174  PHE174     -0.0202
     93  CD1      -24.7270   -8.3490   11.3850 C.ar  174  PHE174     -0.0042
     94  CD2      -24.4780  -10.5730   12.2040 C.ar  174  PHE174     -0.0042
     95  CE1      -24.0460   -8.6920   10.2350 C.ar  174  PHE174     -0.0003
     96  CE2      -23.7960  -10.9220   11.0560 C.ar  174  PHE174     -0.0003
     97  CZ       -23.5790   -9.9780   10.0680 C.ar  174  PHE174     -0.0000
     98  N        -28.0210  -11.0950   13.6830 N.am  175  MET175     -0.1979
     99  CA       -28.5250  -12.3750   13.2070 C.3   175  MET175      0.1605
    100  C        -29.9220  -12.2280   12.6060 C.2   175  MET175      0.2287
    101  O        -30.3100  -12.9880   11.7200 O.2   175  MET175     -0.2864
    102  CB       -28.5390  -13.3990   14.3400 C.3   175  MET175      0.0413
    103  CG       -27.1600  -13.8760   14.7680 C.3   175  MET175      0.0598
    104  SD       -27.2040  -14.8610   16.2760 S.3   175  MET175     -0.1393
    105  CE       -28.4430  -16.0740   15.8370 C.3   175  MET175      0.0692
    106  N        -29.4700   -8.9460    9.7360 N.3   178  GLY178     -0.1210
    107  CA       -28.4160   -9.2800    8.7990 C.3   178  GLY178      0.1956
    108  C        -28.8580  -10.3700    7.8470 C.2   178  GLY178      0.2612
    109  O        -28.3050  -10.5110    6.7600 O.2   178  GLY178     -0.2717
    110  N        -29.8560  -11.1440    8.2590 N.am  179  SER179     -0.1952
    111  CA       -30.4160  -12.1850    7.4060 C.3   179  SER179      0.1924
    112  C        -31.4590  -11.5920    6.4670 C.2   179  SER179      0.2314
    113  O        -31.5940  -12.0210    5.3200 O.2   179  SER179     -0.2863
    114  CB       -31.0320  -13.3060    8.2450 C.3   179  SER179      0.2116
    115  OG       -30.0320  -14.0650    8.9010 O.3   179  SER179     -0.2180
    116  N        -29.4960   -9.8370    3.7270 N.3   182  ALA182     -0.1245
    117  CA       -28.6350  -10.7000    2.9320 C.3   182  ALA182      0.1562
    118  C        -29.4030  -11.7650    2.1580 C.2   182  ALA182      0.2260
    119  O        -28.9300  -12.2380    1.1260 O.2   182  ALA182     -0.2867
    120  CB       -27.5980  -11.3550    3.8210 C.3   182  ALA182      0.0290
    121  N        -30.7890  -22.5090    0.6960 N.3   330  TRP330     -0.1241
    122  CA       -30.3660  -21.5150    1.6750 C.3   330  TRP330      0.1605
    123  C        -31.4750  -21.2340    2.6830 C.2   330  TRP330      0.2264
    124  O        -31.2430  -20.6050    3.7180 O.2   330  TRP330     -0.2867
    125  CB       -29.9480  -20.2180    0.9850 C.3   330  TRP330      0.0550
    126  CG       -28.4840  -20.1340    0.6900 C.ar  330  TRP330      0.0003
    127  CD1      -27.9010  -20.0510   -0.5390 C.ar  330  TRP330      0.0946
    128  CD2      -27.4150  -20.1220    1.6440 C.ar  330  TRP330      0.0152
    129  NE1      -26.5350  -19.9880   -0.4120 N.ar  330  TRP330     -0.2442
    130  CE2      -26.2110  -20.0300    0.9180 C.ar  330  TRP330      0.0810
    131  CE3      -27.3600  -20.1820    3.0400 C.ar  330  TRP330      0.0012
    132  CZ2      -24.9650  -19.9960    1.5420 C.ar  330  TRP330      0.0191
    133  CZ3      -26.1230  -20.1500    3.6560 C.ar  330  TRP330      0.0001
    134  CH2      -24.9430  -20.0590    2.9070 C.ar  330  TRP330      0.0015
    135  N        -31.1670  -22.6810    6.5200 N.3   333  PHE333     -0.1227
    136  CA       -30.2220  -21.9680    7.3740 C.3   333  PHE333      0.1736
    137  C        -30.7710  -20.6460    7.8980 C.2   333  PHE333      0.2595
    138  O        -30.7360  -20.3850    9.1010 O.2   333  PHE333     -0.2718
    139  CB       -28.9120  -21.6950    6.6380 C.3   333  PHE333      0.0547
    140  CG       -28.0580  -20.6650    7.3150 C.ar  333  PHE333     -0.0202
    141  CD1      -27.4120  -20.9600    8.5040 C.ar  333  PHE333     -0.0042
    142  CD2      -27.9140  -19.3980    6.7780 C.ar  333  PHE333     -0.0042
    143  CE1      -26.6320  -20.0150    9.1410 C.ar  333  PHE333     -0.0003
    144  CE2      -27.1330  -18.4500    7.4120 C.ar  333  PHE333     -0.0003
    145  CZ       -26.4950  -18.7630    8.5980 C.ar  333  PHE333     -0.0000
    146  N        -31.2570  -19.8020    6.9930 N.am  334  PHE334     -0.1976
    147  CA       -31.6810  -18.4610    7.3760 C.3   334  PHE334      0.1639
    148  C        -32.9840  -18.4700    8.1720 C.2   334  PHE334      0.2290
    149  O        -33.1970  -17.5990    9.0140 O.2   334  PHE334     -0.2864
    150  CB       -31.8160  -17.5690    6.1410 C.3   334  PHE334      0.0560
    151  CG       -30.5000  -17.0550    5.6250 C.ar  334  PHE334     -0.0200
    152  CD1      -29.7670  -16.1350    6.3580 C.ar  334  PHE334     -0.0042
    153  CD2      -29.9970  -17.4890    4.4090 C.ar  334  PHE334     -0.0042
    154  CE1      -28.5530  -15.6590    5.8870 C.ar  334  PHE334     -0.0003
    155  CE2      -28.7850  -17.0160    3.9330 C.ar  334  PHE334     -0.0003
    156  CZ       -28.0630  -16.1000    4.6720 C.ar  334  PHE334     -0.0000
    157  N        -31.7540  -19.4720   11.5810 N.3   337  ASN337     -0.1240
    158  CA       -31.0250  -18.3420   12.1460 C.3   337  ASN337      0.1653
    159  C        -31.9680  -17.2710   12.6930 C.2   337  ASN337      0.2266
    160  O        -31.6730  -16.6250   13.7000 O.2   337  ASN337     -0.2867
    161  CB       -30.0940  -17.7380   11.0890 C.3   337  ASN337      0.1155
    162  CG       -28.9440  -16.9560   11.6970 C.2   337  ASN337      0.2627
    163  OD1      -27.9640  -17.5350   12.1670 O.2   337  ASN337     -0.2716
    164  ND2      -29.0540  -15.6330   11.6830 N.am  337  ASN337     -0.0877
    165  N        -28.2600  -24.7350   17.5410 N.3   352  GLN352     -0.1245
    166  CA       -26.9650  -24.3560   16.9930 C.3   352  GLN352      0.1566
    167  C        -26.4000  -25.5010   16.1620 C.2   352  GLN352      0.2260
    168  O        -25.6910  -25.2790   15.1800 O.2   352  GLN352     -0.2867
    169  CB       -25.9920  -23.9740   18.1130 C.3   352  GLN352      0.0367
    170  CG       -24.6210  -23.5210   17.6280 C.3   352  GLN352      0.0905
    171  CD       -24.6720  -22.2090   16.8680 C.2   352  GLN352      0.2608
    172  OE1      -25.5550  -21.3800   17.0930 O.2   352  GLN352     -0.2717
    173  NE2      -23.7230  -22.0150   15.9570 N.am  352  GLN352     -0.0878
    174  N        -27.7860  -25.2700   12.7860 N.3   355  LEU355     -0.1231
    175  CA       -27.0980  -24.2040   12.0640 C.3   355  LEU355      0.1693
    176  C        -25.8010  -24.7190   11.4500 C.2   355  LEU355      0.2591
    177  O        -25.5110  -24.4570   10.2840 O.2   355  LEU355     -0.2718
    178  CB       -26.8060  -23.0140   12.9860 C.3   355  LEU355      0.0284
    179  CG       -27.8730  -21.9200   13.1040 C.3   355  LEU355      0.0019
    180  CD1      -27.2850  -20.6480   13.6950 C.3   355  LEU355      0.0001
    181  CD2      -28.5120  -21.6340   11.7600 C.3   355  LEU355      0.0001
    182  N        -25.0330  -25.4640   12.2420 N.am  356  GLU356     -0.1979
    183  CA       -23.7440  -25.9900   11.7980 C.3   356  GLU356      0.1602
    184  C        -23.9010  -27.0200   10.6830 C.2   356  GLU356      0.2287
    185  O        -22.9390  -27.3480    9.9900 O.2   356  GLU356     -0.2864
    186  CB       -22.9840  -26.6070   12.9730 C.3   356  GLU356      0.0415
    187  CG       -22.5620  -25.6040   14.0330 C.3   356  GLU356      0.1163
    188  CD       -21.6900  -26.2220   15.1100 C.2   356  GLU356      0.3649
    189  OE1      -20.6490  -26.8200   14.7640 O.co2 356  GLU356     -0.2457
    190  OE2      -22.0460  -26.1080   16.3010 O.co2 356  GLU356     -0.2457
    191  N        -25.6810  -24.8790    7.2110 N.3   359  VAL359     -0.1245
    192  CA       -24.7180  -23.9930    6.5700 C.3   359  VAL359      0.1561
    193  C        -24.0330  -24.6890    5.3880 C.2   359  VAL359      0.2260
    194  O        -23.5870  -24.0350    4.4450 O.2   359  VAL359     -0.2867
    195  CB       -23.6540  -23.4980    7.5850 C.3   359  VAL359      0.0252
    196  CG1      -22.7860  -24.6550    8.0720 C.3   359  VAL359      0.0019
    197  CG2      -22.8020  -22.3910    6.9870 C.3   359  VAL359      0.0019
    198  N        -23.7170  -23.6900    1.6020 N.3   363  TYR363     -0.1241
    199  CA       -22.3880  -23.6290    1.0010 C.3   363  TYR363      0.1605
    200  C        -22.3650  -24.3060   -0.3640 C.2   363  TYR363      0.2264
    201  O        -21.9550  -23.7010   -1.3580 O.2   363  TYR363     -0.2867
    202  CB       -21.3510  -24.2770    1.9190 C.3   363  TYR363      0.0534
    203  CG       -20.8670  -23.3950    3.0530 C.ar  363  TYR363     -0.0201
    204  CD1      -21.0610  -22.0200    3.0260 C.ar  363  TYR363     -0.0009
    205  CD2      -20.2000  -23.9390    4.1440 C.ar  363  TYR363     -0.0009
    206  CE1      -20.6120  -21.2120    4.0580 C.ar  363  TYR363      0.0417
    207  CE2      -19.7490  -23.1390    5.1810 C.ar  363  TYR363      0.0417
    208  CZ       -19.9560  -21.7770    5.1310 C.ar  363  TYR363      0.1957
    209  OH       -19.5100  -20.9780    6.1600 O.3   363  TYR363     -0.2866
@<TRIPOS>BOND
     1   201   200    2
     2    54    53    2
     3    53    52    1
     4   127   129   ar
     5   127   126   ar
     6   129   130   ar
     7   200   199    1
     8    48    47    2
     9    47    51   am
    10    47    46    1
    11   126   125    1
    12   126   128   ar
    13   121   122    1
    14    52    51    1
    15    52    55    1
    16   130   132   ar
    17   130   128   ar
    18   125   122    1
    19   199   198    1
    20   199   202    1
    21   119   118    2
    22    46    45    1
    23    46    49    1
    24    57    55    1
    25   132   134   ar
    26   128   131   ar
    27   122   123    1
    28    55    56    1
    29   202   203    1
    30   118   117    1
    31    49    50    1
    32   123   124    2
    33    65    63    1
    34   134   133   ar
    35   117   116    1
    36   117   120    1
    37   204   203   ar
    38   204   206   ar
    39   131   133   ar
    40   203   205   ar
    41    41    40    2
    42    63    62    1
    43   155   153   ar
    44   155   156   ar
    45   206   208   ar
    46    33    32    2
    47   205   207   ar
    48    40    39    1
    49   153   151   ar
    50   194   193    2
    51    62    64    1
    52    62    59    1
    53   156   154   ar
    54    58    59    1
    55    32    31    1
    56    32    38   am
    57   208   207   ar
    58   208   209    1
    59   113   112    2
    60   193   192    1
    61    31    30    1
    62    31    34    1
    63    59    60    1
    64   151   150    1
    65   151   152   ar
    66    39    38    1
    67    39    42    1
    68   154   152   ar
    69   150   147    1
    70    37    35   ar
    71    60    61    2
    72   112   111    1
    73   135   136    1
    74   192   191    1
    75   192   195    1
    76    43    42    1
    77   139   140    1
    78   139   136    1
    79    35    34    1
    80    35    36   ar
    81   109   108    2
    82   142   140   ar
    83   142   144   ar
    84    42    44    1
    85   197   195    1
    86   146   147    1
    87   146   137   am
    88   140   141   ar
    89   136   137    1
    90   147   148    1
    91   111   114    1
    92   111   110    1
    93   144   145   ar
    94   195   196    1
    95   108   110   am
    96   108   107    1
    97    11    10    2
    98   137   138    2
    99    16    14   ar
   100    16    17   ar
   101    14    13   ar
   102   148   149    2
   103   114   115    1
   104   141   143   ar
   105    25    24    2
   106   145   143   ar
   107   107   106    1
   108    10     9    1
   109    10    22   am
   110     9     8    1
   111     9    12    1
   112    24    23    1
   113    17    19   ar
   114    17    15   ar
   115    13    12    1
   116    13    15   ar
   117    19    21   ar
   118   185   184    2
   119    22    23    1
   120    97    95   ar
   121    97    96   ar
   122    15    18   ar
   123    23    26    1
   124    95    93   ar
   125   177   176    2
   126   184   183    1
   127    96    94   ar
   128   161   162    1
   129   161   158    1
   130    21    20   ar
   131    93    92   ar
   132   176   175    1
   133   176   182   am
   134    18    20   ar
   135    26    27    1
   136   157   158    1
   137    90    89    2
   138   164   162   am
   139   162   163    2
   140   101   100    2
   141   181   179    1
   142   183   182    1
   143   183   186    1
   144   175   174    1
   145   175   178    1
   146   158   159    1
   147    94    92   ar
   148    29    27    1
   149    92    91    1
   150    27    28    1
   151   100    99    1
   152     1     2    1
   153   159   160    2
   154     6     5    1
   155    89    88    1
   156    89    98   am
   157     5     2    1
   158     5     7    1
   159    85    84    1
   160   186   187    1
   161   178   179    1
   162   179   180    1
   163    99    98    1
   164    99   102    1
   165    88    91    1
   166    88    87    1
   167     2     3    1
   168     3     4    2
   169   187   188    1
   170    84    86    1
   171    84    83    1
   172   102   103    1
   173   189   188   ar
   174   103   104    1
   175    71    70    1
   176   188   190   ar
   177   168   167    2
   178    83    80    1
   179   105   104    1
   180   173   171   am
   181    69    68    2
   182    70    67    1
   183   167   166    1
   184    79    80    1
   185    79    74   am
   186    80    81    1
   187    68    67    1
   188    68    72   am
   189   171   172    2
   190   171   170    1
   191    73    74    1
   192    73    72    1
   193    73    76    1
   194   166   165    1
   195   166   169    1
   196    82    81    2
   197    67    66    1
   198    74    75    2
   199    78    76    1
   200   170   169    1
   201    76    77    1
