@<TRIPOS>MOLECULE
tmp/5tvnA01.pdb
 104 98 0 0 0
SMALL
GASTEIGER

@<TRIPOS>ATOM
      1  N        -15.2130  -32.4810    2.1530 N.3    21  ILE21      -0.1245
      2  CA       -14.1150  -32.2200    1.2360 C.3    21  ILE21       0.1561
      3  C        -14.4430  -32.7970   -0.1340 C.2    21  ILE21       0.2260
      4  O        -14.3750  -32.1000   -1.1440 O.2    21  ILE21      -0.2867
      5  CB       -12.7910  -32.8240    1.7390 C.3    21  ILE21       0.0252
      6  CG1      -12.3060  -32.0840    2.9870 C.3    21  ILE21       0.0019
      7  CG2      -11.7320  -32.7690    0.6480 C.3    21  ILE21       0.0019
      8  CD1      -10.9530  -32.5500    3.4930 C.3    21  ILE21       0.0001
      9  N        -16.3600  -29.2690   -0.9010 N.3    25  ILE25      -0.1231
     10  CA       -15.2500  -28.3300   -1.0590 C.3    25  ILE25       0.1692
     11  C        -14.5990  -28.4290   -2.4390 C.2    25  ILE25       0.2591
     12  O        -14.3540  -27.4110   -3.0870 O.2    25  ILE25      -0.2718
     13  CB       -14.1740  -28.5280    0.0290 C.3    25  ILE25       0.0266
     14  CG1      -14.8140  -28.4700    1.4210 C.3    25  ILE25       0.0019
     15  CG2      -13.0810  -27.4840   -0.1160 C.3    25  ILE25       0.0020
     16  CD1      -13.8980  -27.9660    2.5270 C.3    25  ILE25       0.0001
     17  N        -14.3260  -29.6470   -2.8920 N.am   26  ILE26      -0.1980
     18  CA       -13.7410  -29.8430   -4.2150 C.3    26  ILE26       0.1595
     19  C        -14.6940  -29.4420   -5.3600 C.2    26  ILE26       0.2287
     20  O        -14.2710  -28.7420   -6.2840 O.2    26  ILE26      -0.2864
     21  CB       -13.2740  -31.3040   -4.4110 C.3    26  ILE26       0.0276
     22  CG1      -12.1490  -31.6320   -3.4250 C.3    26  ILE26       0.0022
     23  CG2      -12.8150  -31.5340   -5.8430 C.3    26  ILE26       0.0022
     24  CD1      -11.6480  -33.0560   -3.5090 C.3    26  ILE26       0.0001
     25  N        -14.6150  -25.5330   -5.5110 N.3    29  ILE29      -0.1231
     26  CA       -13.3860  -24.9410   -6.0240 C.3    29  ILE29       0.1692
     27  C        -13.1710  -25.2930   -7.4900 C.2    29  ILE29       0.2592
     28  O        -12.7900  -24.4430   -8.2920 O.2    29  ILE29      -0.2718
     29  CB       -12.1630  -25.3980   -5.2120 C.3    29  ILE29       0.0266
     30  CG1      -12.3190  -24.9920   -3.7470 C.3    29  ILE29       0.0019
     31  CG2      -10.8840  -24.8170   -5.7950 C.3    29  ILE29       0.0020
     32  CD1      -11.2690  -25.5900   -2.8420 C.3    29  ILE29       0.0001
     33  N        -13.4230  -26.5500   -7.8350 N.am   30  GLY30      -0.1957
     34  CA       -13.2630  -27.0050   -9.2020 C.3    30  GLY30       0.1869
     35  C        -14.2580  -26.3740  -10.1550 C.2    30  GLY30       0.2309
     36  O        -13.8980  -25.9610  -11.2550 O.2    30  GLY30      -0.2863
     37  N        -13.6020  -22.6500  -10.9070 N.3    33  THR33      -0.1203
     38  CA       -12.3960  -22.4570  -11.6930 C.3    33  THR33       0.1994
     39  C        -12.7530  -22.5690  -13.1710 C.2    33  THR33       0.2617
     40  O        -12.3070  -21.7640  -13.9890 O.2    33  THR33      -0.2717
     41  CB       -11.3070  -23.4840  -11.3370 C.3    33  THR33       0.1784
     42  OG1      -10.9860  -23.3770   -9.9460 O.3    33  THR33      -0.2211
     43  CG2      -10.0540  -23.2320  -12.1580 C.3    33  THR33       0.0376
     44  N        -13.5710  -23.5660  -13.4970 N.am   34  LEU34      -0.1979
     45  CA       -14.0100  -23.7960  -14.8700 C.3    34  LEU34       0.1596
     46  C        -14.7270  -22.5750  -15.4480 C.2    34  LEU34       0.2287
     47  O        -14.4400  -22.1500  -16.5670 O.2    34  LEU34      -0.2864
     48  CB       -14.9240  -25.0220  -14.9360 C.3    34  LEU34       0.0297
     49  CG       -14.2750  -26.3660  -14.6000 C.3    34  LEU34       0.0022
     50  CD1      -15.2940  -27.4940  -14.6700 C.3    34  LEU34       0.0001
     51  CD2      -13.1060  -26.6390  -15.5350 C.3    34  LEU34       0.0001
     52  N        -12.0310  -19.7780  -15.8620 N.3    37  LEU37      -0.1245
     53  CA       -11.1710  -20.0710  -17.0060 C.3    37  LEU37       0.1561
     54  C        -11.8910  -19.8220  -18.3270 C.2    37  LEU37       0.2260
     55  O        -11.3120  -19.2690  -19.2660 O.2    37  LEU37      -0.2867
     56  CB       -10.6800  -21.5200  -16.9520 C.3    37  LEU37       0.0270
     57  CG        -9.5980  -21.8480  -15.9250 C.3    37  LEU37       0.0019
     58  CD1       -9.2730  -23.3350  -15.9440 C.3    37  LEU37       0.0001
     59  CD2       -8.3510  -21.0230  -16.1980 C.3    37  LEU37       0.0001
     60  N        -12.8550  -24.2740    4.1170 N.3    69  PRO69      -0.2116
     61  CA       -11.8660  -25.1400    4.7770 C.3    69  PRO69       0.1372
     62  C        -11.7120  -24.8760    6.2810 C.2    69  PRO69       0.2244
     63  O        -11.5400  -25.8230    7.0450 O.2    69  PRO69      -0.2868
     64  CB       -10.5640  -24.8200    4.0290 C.3    69  PRO69       0.0268
     65  CG       -10.7820  -23.4810    3.4240 C.3    69  PRO69       0.0207
     66  CD       -12.2360  -23.4350    3.0740 C.3    69  PRO69       0.0892
     67  N        -11.5610  -28.4430  -20.7790 N.3   387  TYR387     -0.1227
     68  CA       -10.7620  -28.1240  -19.6000 C.3   387  TYR387      0.1736
     69  C        -10.5270  -29.3510  -18.7300 C.2   387  TYR387      0.2595
     70  O         -9.4230  -29.5660  -18.2320 O.2   387  TYR387     -0.2718
     71  CB       -11.4370  -27.0320  -18.7680 C.3   387  TYR387      0.0548
     72  CG       -11.5000  -25.6760  -19.4340 C.ar  387  TYR387     -0.0200
     73  CD1      -10.7440  -25.3950  -20.5650 C.ar  387  TYR387     -0.0009
     74  CD2      -12.3070  -24.6720  -18.9190 C.ar  387  TYR387     -0.0009
     75  CE1      -10.7990  -24.1540  -21.1690 C.ar  387  TYR387      0.0417
     76  CE2      -12.3680  -23.4300  -19.5140 C.ar  387  TYR387      0.0417
     77  CZ       -11.6130  -23.1760  -20.6370 C.ar  387  TYR387      0.1957
     78  OH       -11.6780  -21.9360  -21.2240 O.3   387  TYR387     -0.2866
     79  N        -11.5730  -30.1510  -18.5480 N.am  388  ILE388     -0.1980
     80  CA       -11.4790  -31.3620  -17.7400 C.3   388  ILE388      0.1595
     81  C        -10.5890  -32.4080  -18.4050 C.2   388  ILE388      0.2287
     82  O        -10.1560  -33.3590  -17.7600 O.2   388  ILE388     -0.2864
     83  CB       -12.8680  -31.9760  -17.4780 C.3   388  ILE388      0.0276
     84  CG1      -13.5750  -32.2710  -18.8010 C.3   388  ILE388      0.0022
     85  CG2      -13.7090  -31.0470  -16.6160 C.3   388  ILE388      0.0022
     86  CD1      -14.9220  -32.9320  -18.6370 C.3   388  ILE388      0.0001
     87  N         -7.8710  -31.3140  -19.8790 N.3   390  CYS390     -0.1235
     88  CA        -6.6060  -30.5820  -19.8570 C.3   390  CYS390      0.1677
     89  C         -6.1890  -30.1010  -21.2470 C.2   390  CYS390      0.2270
     90  O         -5.0530  -30.3170  -21.6700 O.2   390  CYS390     -0.2867
     91  CB        -5.5000  -31.4510  -19.2450 C.3   390  CYS390      0.0956
     92  SG        -6.0150  -32.4120  -17.7930 S.3   390  CYS390     -0.0801
     93  N         -5.8960  -26.7370  -23.6900 N.3   392  TYR392     -0.1241
     94  CA        -5.9090  -25.2860  -23.8610 C.3   392  TYR392      0.1605
     95  C         -5.1270  -24.8610  -25.1000 C.2   392  TYR392      0.2264
     96  O         -3.9200  -25.0890  -25.1910 O.2   392  TYR392     -0.2867
     97  CB        -5.3300  -24.5890  -22.6270 C.3   392  TYR392      0.0534
     98  CG        -5.7580  -25.1980  -21.3130 C.ar  392  TYR392     -0.0201
     99  CD1       -7.0110  -24.9340  -20.7780 C.ar  392  TYR392     -0.0009
    100  CD2       -4.9050  -26.0290  -20.6010 C.ar  392  TYR392     -0.0009
    101  CE1       -7.4050  -25.4860  -19.5730 C.ar  392  TYR392      0.0417
    102  CE2       -5.2900  -26.5860  -19.3950 C.ar  392  TYR392      0.0417
    103  CZ        -6.5420  -26.3110  -18.8860 C.ar  392  TYR392      0.1957
    104  OH        -6.9320  -26.8620  -17.6870 O.3   392  TYR392     -0.2866
@<TRIPOS>BOND
     1    96    95    2
     2    95    94    1
     3    94    93    1
     4    94    97    1
     5    97    98    1
     6    90    89    2
     7    98    99   ar
     8    98   100   ar
     9    89    88    1
    10    78    77    1
    11    75    77   ar
    12    75    73   ar
    13    67    68    1
    14    99   101   ar
    15    77    76   ar
    16   100   102   ar
    17    73    72   ar
    18    87    88    1
    19    88    91    1
    20    68    71    1
    21    68    69    1
    22   101   103   ar
    23    76    74   ar
    24    72    74   ar
    25    72    71    1
    26   102   103   ar
    27    55    54    2
    28    91    92    1
    29   103   104    1
    30    84    86    1
    31    84    83    1
    32    69    79   am
    33    69    70    2
    34    79    80    1
    35    81    82    2
    36    81    80    1
    37    54    53    1
    38    80    83    1
    39    83    85    1
    40    53    56    1
    41    53    52    1
    42    56    57    1
    43    47    46    2
    44    59    57    1
    45    58    57    1
    46    51    49    1
    47    46    45    1
    48    48    45    1
    49    48    49    1
    50    45    44    1
    51    50    49    1
    52    40    39    2
    53    44    39   am
    54    39    38    1
    55    43    41    1
    56    38    41    1
    57    38    37    1
    58    41    42    1
    59    36    35    2
    60    35    34    1
    61    34    33    1
    62    28    27    2
    63    33    27   am
    64    27    26    1
    65    20    19    2
    66    26    25    1
    67    26    29    1
    68    23    21    1
    69    31    29    1
    70    19    18    1
    71    29    30    1
    72    21    18    1
    73    21    22    1
    74    18    17    1
    75    30    32    1
    76    24    22    1
    77    12    11    2
    78    17    11   am
    79    11    10    1
    80     4     3    2
    81    10     9    1
    82    10    13    1
    83     3     2    1
    84    15    13    1
    85    13    14    1
    86     7     5    1
    87     2     5    1
    88     2     1    1
    89    14    16    1
    90     5     6    1
    91     6     8    1
    92    66    65    1
    93    66    60    1
    94    65    64    1
    95    64    61    1
    96    60    61    1
    97    61    62    1
    98    62    63    2
