@<TRIPOS>MOLECULE
tmp/5tvnA02.pdb
 146 140 0 0 0
SMALL
GASTEIGER

@<TRIPOS>ATOM
      1  N        -31.1280  -11.7540  -12.1070 N.3   110  SER110     -0.1217
      2  CA       -32.5650  -11.8680  -12.3390 C.3   110  SER110      0.1889
      3  C        -33.1470  -10.5660  -12.8800 C.2   110  SER110      0.2288
      4  O        -33.9210  -10.5730  -13.8370 O.2   110  SER110     -0.2866
      5  CB       -33.2880  -12.2590  -11.0490 C.3   110  SER110      0.2089
      6  OG       -32.6680  -13.3700  -10.4360 O.3   110  SER110     -0.2183
      7  N        -32.1160   -9.9180  -16.5260 N.3   113  ARG113     -0.1231
      8  CA       -32.8300  -10.7410  -17.4880 C.3   113  ARG113      0.1694
      9  C        -34.2240  -10.1790  -17.7340 C.2   113  ARG113      0.2592
     10  O        -34.7020  -10.1550  -18.8660 O.2   113  ARG113     -0.2718
     11  CB       -32.8940  -12.1900  -17.0050 C.3   113  ARG113      0.0321
     12  CG       -31.5200  -12.8340  -16.8560 C.3   113  ARG113      0.0489
     13  CD       -30.9790  -13.3990  -18.1710 C.3   113  ARG113      0.2205
     14  NE       -30.7900  -12.3940  -19.2190 N.pl3 113  ARG113     -0.0865
     15  CZ       -29.7410  -11.5830  -19.3050 C.cat 113  ARG113      0.5346
     16  NH1      -28.7750  -11.6440  -18.3990 N.pl3 113  ARG113      0.1354
     17  NH2      -29.6590  -10.7070  -20.2990 N.pl3 113  ARG113      0.1354
     18  N        -34.8650   -9.7020  -16.6740 N.am  114  TYR114     -0.1976
     19  CA       -36.1740   -9.0760  -16.8120 C.3   114  TYR114      0.1639
     20  C        -36.0770   -7.7810  -17.6170 C.2   114  TYR114      0.2290
     21  O        -36.9140   -7.5160  -18.4780 O.2   114  TYR114     -0.2864
     22  CB       -36.7910   -8.8040  -15.4400 C.3   114  TYR114      0.0560
     23  CG       -38.0240   -7.9370  -15.5000 C.ar  114  TYR114     -0.0198
     24  CD1      -39.1960   -8.4020  -16.0830 C.ar  114  TYR114     -0.0009
     25  CD2      -38.0170   -6.6510  -14.9760 C.ar  114  TYR114     -0.0009
     26  CE1      -40.3300   -7.6070  -16.1440 C.ar  114  TYR114      0.0417
     27  CE2      -39.1450   -5.8500  -15.0300 C.ar  114  TYR114      0.0417
     28  CZ       -40.2960   -6.3330  -15.6140 C.ar  114  TYR114      0.1957
     29  OH       -41.4140   -5.5350  -15.6680 O.3   114  TYR114     -0.2866
     30  N        -35.7020   -8.4580  -21.2020 N.3   117  ILE117     -0.1245
     31  CA       -36.9600   -8.8570  -21.8190 C.3   117  ILE117      0.1561
     32  C        -37.8370   -7.6440  -22.0970 C.2   117  ILE117      0.2260
     33  O        -38.3150   -7.4550  -23.2180 O.2   117  ILE117     -0.2867
     34  CB       -37.7350   -9.8470  -20.9340 C.3   117  ILE117      0.0252
     35  CG1      -37.0020  -11.1860  -20.8710 C.3   117  ILE117      0.0019
     36  CG2      -39.1510  -10.0450  -21.4640 C.3   117  ILE117      0.0019
     37  CD1      -37.7050  -12.2270  -20.0270 C.3   117  ILE117      0.0001
     38  N        -34.4980  -12.2660   -1.7790 N.3   187  LEU187     -0.1245
     39  CA       -35.5200  -13.2800   -2.0370 C.3   187  LEU187      0.1561
     40  C        -36.8350  -12.6200   -2.4460 C.2   187  LEU187      0.2260
     41  O        -37.4810  -13.0550   -3.3940 O.2   187  LEU187     -0.2867
     42  CB       -35.7390  -14.1750   -0.8100 C.3   187  LEU187      0.0270
     43  CG       -36.9150  -15.1640   -0.8420 C.3   187  LEU187      0.0019
     44  CD1      -36.7960  -16.1330   -2.0090 C.3   187  LEU187      0.0001
     45  CD2      -37.0350  -15.9300    0.4720 C.3   187  LEU187      0.0001
     46  N        -36.5400  -11.1850   -5.9820 N.3   190  MET190     -0.1230
     47  CA       -36.5770  -12.2410   -6.9870 C.3   190  MET190      0.1702
     48  C        -37.9650  -12.8590   -7.1350 C.2   190  MET190      0.2592
     49  O        -38.2960  -13.4060   -8.1860 O.2   190  MET190     -0.2718
     50  CB       -35.5440  -13.3180   -6.6550 C.3   190  MET190      0.0401
     51  CG       -34.1160  -12.8360   -6.8590 C.3   190  MET190      0.0596
     52  SD       -32.8610  -13.8750   -6.1010 S.3   190  MET190     -0.1393
     53  CE       -32.8230  -15.2370   -7.2580 C.3   190  MET190      0.0692
     54  N        -38.7740  -12.7670   -6.0850 N.am  191  ILE191     -0.1980
     55  CA       -40.1630  -13.2110   -6.1520 C.3   191  ILE191      0.1595
     56  C        -40.9670  -12.2240   -6.9870 C.2   191  ILE191      0.2287
     57  O        -41.7650  -12.6130   -7.8380 O.2   191  ILE191     -0.2864
     58  CB       -40.7920  -13.3440   -4.7490 C.3   191  ILE191      0.0276
     59  CG1      -40.1820  -14.5300   -3.9990 C.3   191  ILE191      0.0022
     60  CG2      -42.3020  -13.5110   -4.8460 C.3   191  ILE191      0.0022
     61  CD1      -40.7100  -14.6980   -2.5910 C.3   191  ILE191      0.0001
     62  N        -39.7000   -9.9560   -9.2420 N.3   193  THR193     -0.1203
     63  CA       -39.2320   -9.9850  -10.6280 C.3   193  THR193      0.1994
     64  C        -39.7710  -11.2000  -11.3810 C.2   193  THR193      0.2618
     65  O        -39.9870  -11.1430  -12.5920 O.2   193  THR193     -0.2717
     66  CB       -37.6940   -9.9940  -10.7160 C.3   193  THR193      0.1784
     67  OG1      -37.1820  -11.1360  -10.0210 O.3   193  THR193     -0.2211
     68  CG2      -37.1100   -8.7280  -10.1100 C.3   193  THR193      0.0376
     69  N        -39.9870  -12.2940  -10.6570 N.am  194  TYR194     -0.1961
     70  CA       -40.5140  -13.5220  -11.2480 C.3   194  TYR194      0.1771
     71  C        -41.8770  -13.3010  -11.8910 C.2   194  TYR194      0.2619
     72  O        -42.1110  -13.6950  -13.0340 O.2   194  TYR194     -0.2715
     73  CB       -40.6190  -14.6240  -10.1910 C.3   194  TYR194      0.0574
     74  CG       -41.3730  -15.8480  -10.6610 C.ar  194  TYR194     -0.0198
     75  CD1      -40.7330  -16.8440  -11.3780 C.ar  194  TYR194     -0.0009
     76  CD2      -42.7270  -16.0050  -10.3870 C.ar  194  TYR194     -0.0009
     77  CE1      -41.4170  -17.9630  -11.8130 C.ar  194  TYR194      0.0417
     78  CE2      -43.4190  -17.1170  -10.8180 C.ar  194  TYR194      0.0417
     79  CZ       -42.7600  -18.0930  -11.5300 C.ar  194  TYR194      0.1957
     80  OH       -43.4440  -19.2070  -11.9590 O.3   194  TYR194     -0.2866
     81  N        -42.7800  -12.6790  -11.1420 N.am  195  PHE195     -0.1974
     82  CA       -44.1280  -12.4340  -11.6290 C.3   195  PHE195      0.1639
     83  C        -44.1320  -11.3250  -12.6710 C.2   195  PHE195      0.2290
     84  O        -44.9350  -11.3450  -13.6050 O.2   195  PHE195     -0.2864
     85  CB       -45.0640  -12.0960  -10.4670 C.3   195  PHE195      0.0560
     86  CG       -45.3970  -13.2780   -9.6010 C.ar  195  PHE195     -0.0200
     87  CD1      -46.1950  -14.2990  -10.0860 C.ar  195  PHE195     -0.0042
     88  CD2      -44.9150  -13.3700   -8.3050 C.ar  195  PHE195     -0.0042
     89  CE1      -46.5060  -15.3930   -9.2980 C.ar  195  PHE195     -0.0003
     90  CE2      -45.2240  -14.4600   -7.5110 C.ar  195  PHE195     -0.0003
     91  CZ       -46.0200  -15.4730   -8.0090 C.ar  195  PHE195     -0.0000
     92  N        -41.7920  -10.9240  -14.8030 N.3   197  THR197     -0.1218
     93  CA       -41.3090  -11.5760  -16.0190 C.3   197  THR197      0.1862
     94  C        -42.4380  -12.3060  -16.7460 C.2   197  THR197      0.2287
     95  O        -42.5160  -12.2680  -17.9730 O.2   197  THR197     -0.2866
     96  CB       -40.1750  -12.5800  -15.7190 C.3   197  THR197      0.1770
     97  OG1      -39.0790  -11.8990  -15.0990 O.3   197  THR197     -0.2211
     98  CG2      -39.6870  -13.2330  -17.0030 C.3   197  THR197      0.0375
     99  N        -36.3060  -18.2570  -19.6270 N.3   316  SER316     -0.1217
    100  CA       -36.9330  -17.7520  -18.4150 C.3   316  SER316      0.1889
    101  C        -37.2260  -18.8860  -17.4310 C.2   316  SER316      0.2288
    102  O        -36.9960  -18.7530  -16.2280 O.2   316  SER316     -0.2866
    103  CB       -38.2200  -17.0010  -18.7610 C.3   316  SER316      0.2089
    104  OG       -38.8530  -16.5030  -17.5990 O.3   316  SER316     -0.2183
    105  N        -33.9000  -20.5120  -15.8990 N.3   319  LEU319     -0.1231
    106  CA       -33.2510  -19.5720  -14.9960 C.3   319  LEU319      0.1693
    107  C        -34.0040  -19.5000  -13.6710 C.2   319  LEU319      0.2592
    108  O        -33.4050  -19.3090  -12.6170 O.2   319  LEU319     -0.2718
    109  CB       -33.1550  -18.1860  -15.6390 C.3   319  LEU319      0.0284
    110  CG       -32.4250  -17.1080  -14.8340 C.3   319  LEU319      0.0019
    111  CD1      -31.4980  -16.3020  -15.7280 C.3   319  LEU319      0.0001
    112  CD2      -33.4200  -16.1930  -14.1400 C.3   319  LEU319      0.0001
    113  N        -35.3210  -19.6620  -13.7330 N.am  320  GLY320     -0.1957
    114  CA       -36.1460  -19.6410  -12.5420 C.3   320  GLY320      0.1869
    115  C        -35.9150  -20.8550  -11.6670 C.2   320  GLY320      0.2309
    116  O        -35.8080  -20.7370  -10.4490 O.2   320  GLY320     -0.2863
    117  N        -32.4210  -20.8220   -9.9970 N.3   323  PHE323     -0.1227
    118  CA       -32.3830  -19.7770   -8.9820 C.3   323  PHE323      0.1736
    119  C        -33.2980  -20.1400   -7.8220 C.2   323  PHE323      0.2595
    120  O        -33.1180  -19.6670   -6.7030 O.2   323  PHE323     -0.2718
    121  CB       -32.7830  -18.4230   -9.5690 C.3   323  PHE323      0.0547
    122  CG       -31.6920  -17.7580  -10.3590 C.ar  323  PHE323     -0.0202
    123  CD1      -30.4680  -18.3820  -10.5380 C.ar  323  PHE323     -0.0042
    124  CD2      -31.8850  -16.5040  -10.9120 C.ar  323  PHE323     -0.0042
    125  CE1      -29.4620  -17.7730  -11.2630 C.ar  323  PHE323     -0.0003
    126  CE2      -30.8810  -15.8880  -11.6350 C.ar  323  PHE323     -0.0003
    127  CZ       -29.6670  -16.5230  -11.8100 C.ar  323  PHE323     -0.0000
    128  N        -34.2810  -20.9860   -8.1020 N.am  324  PHE324     -0.1976
    129  CA       -35.1990  -21.4590   -7.0770 C.3   324  PHE324      0.1639
    130  C        -34.4990  -22.4520   -6.1540 C.2   324  PHE324      0.2290
    131  O        -34.6450  -22.3890   -4.9350 O.2   324  PHE324     -0.2864
    132  CB       -36.4300  -22.0980   -7.7180 C.3   324  PHE324      0.0560
    133  CG       -37.4830  -22.5020   -6.7360 C.ar  324  PHE324     -0.0200
    134  CD1      -38.3310  -21.5570   -6.1840 C.ar  324  PHE324     -0.0042
    135  CD2      -37.6320  -23.8300   -6.3680 C.ar  324  PHE324     -0.0042
    136  CE1      -39.3050  -21.9280   -5.2780 C.ar  324  PHE324     -0.0003
    137  CE2      -38.6040  -24.2070   -5.4630 C.ar  324  PHE324     -0.0003
    138  CZ       -39.4410  -23.2550   -4.9170 C.ar  324  PHE324     -0.0000
    139  N        -32.0380  -20.6580   -3.6980 N.3   327  LEU327     -0.1245
    140  CA       -32.7420  -20.0490   -2.5790 C.3   327  LEU327      0.1561
    141  C        -33.3140  -21.1070   -1.6480 C.2   327  LEU327      0.2260
    142  O        -33.3080  -20.9430   -0.4260 O.2   327  LEU327     -0.2867
    143  CB       -33.8640  -19.1440   -3.0900 C.3   327  LEU327      0.0270
    144  CG       -33.4680  -17.9890   -4.0100 C.3   327  LEU327      0.0019
    145  CD1      -34.6950  -17.4400   -4.7150 C.3   327  LEU327      0.0001
    146  CD2      -32.7580  -16.8910   -3.2340 C.3   327  LEU327      0.0001
@<TRIPOS>BOND
     1    33    32    2
     2    32    31    1
     3    31    30    1
     4    31    34    1
     5    36    34    1
     6    34    35    1
     7    35    37    1
     8    17    15    1
     9    99   100    1
    10    15    14    2
    11    15    16    1
    12    14    13    1
    13    10     9    2
    14   103   100    1
    15   103   104    1
    16    21    20    2
    17   100   101    1
    18    13    12    1
    19    95    94    2
    20     9     8    1
    21     9    18   am
    22    20    19    1
    23     8    11    1
    24     8     7    1
    25   101   102    2
    26    11    12    1
    27    98    96    1
    28    19    18    1
    29    19    22    1
    30    94    93    1
    31    26    24   ar
    32    26    28   ar
    33    24    23   ar
    34    93    96    1
    35    93    92    1
    36   105   106    1
    37   111   110    1
    38    96    97    1
    39    29    28    1
    40   109   106    1
    41   109   110    1
    42    28    27   ar
    43    23    22    1
    44    23    25   ar
    45    27    25   ar
    46   106   107    1
    47   110   112    1
    48     4     3    2
    49   113   107   am
    50   113   114    1
    51   107   108    2
    52    84    83    2
    53    72    71    2
    54     3     2    1
    55    83    82    1
    56    65    64    2
    57   114   115    1
    58     2     1    1
    59     2     5    1
    60    80    79    1
    61    71    70    1
    62    71    81   am
    63    77    79   ar
    64    77    75   ar
    65   127   126   ar
    66   127   125   ar
    67   115   116    2
    68   126   124   ar
    69    82    81    1
    70    82    85    1
    71    79    78   ar
    72    64    69   am
    73    64    63    1
    74    75    74   ar
    75   125   123   ar
    76    70    69    1
    77    70    73    1
    78     5     6    1
    79   124   122   ar
    80    78    76   ar
    81    66    63    1
    82    66    68    1
    83    66    67    1
    84    74    76   ar
    85    74    73    1
    86    63    62    1
    87   123   122   ar
    88    85    86    1
    89   122   121    1
    90    87    86   ar
    91    87    89   ar
    92   117   118    1
    93    86    88   ar
    94   121   118    1
    95    89    91   ar
    96   118   119    1
    97    88    90   ar
    98    49    48    2
    99   128   119   am
   100   128   129    1
   101    91    90   ar
   102    57    56    2
   103   119   120    2
   104   132   129    1
   105   132   133    1
   106    53    52    1
   107    48    47    1
   108    48    54   am
   109   129   130    1
   110    56    55    1
   111    47    50    1
   112    47    46    1
   113    51    50    1
   114    51    52    1
   115   133   135   ar
   116   133   134   ar
   117   135   137   ar
   118   134   136   ar
   119   130   131    2
   120    55    54    1
   121    55    58    1
   122   137   138   ar
   123   136   138   ar
   124    60    58    1
   125    58    59    1
   126   145   144    1
   127   144   146    1
   128   144   143    1
   129    59    61    1
   130   139   140    1
   131    41    40    2
   132   143   140    1
   133   140   141    1
   134    40    39    1
   135    39    38    1
   136    39    42    1
   137    44    43    1
   138   141   142    2
   139    43    42    1
   140    43    45    1
