@<TRIPOS>MOLECULE
tmp/5tvnA03.pdb
 104 100 0 0 0
SMALL
GASTEIGER

@<TRIPOS>ATOM
      1  N        -18.0840  -10.9350  -22.8010 N.3    47  TYR47      -0.1241
      2  CA       -18.9790   -9.7910  -22.9110 C.3    47  TYR47       0.1605
      3  C        -19.5570   -9.4370  -21.5390 C.2    47  TYR47       0.2264
      4  O        -19.2190  -10.0630  -20.5350 O.2    47  TYR47      -0.2867
      5  CB       -20.0970  -10.0610  -23.9240 C.3    47  TYR47       0.0534
      6  CG       -20.7750  -11.4060  -23.7860 C.ar   47  TYR47      -0.0201
      7  CD1      -21.8830  -11.5680  -22.9640 C.ar   47  TYR47      -0.0009
      8  CD2      -20.3190  -12.5110  -24.4950 C.ar   47  TYR47      -0.0009
      9  CE1      -22.5100  -12.7950  -22.8410 C.ar   47  TYR47       0.0417
     10  CE2      -20.9400  -13.7430  -24.3790 C.ar   47  TYR47       0.0417
     11  CZ       -22.0350  -13.8790  -23.5510 C.ar   47  TYR47       0.1957
     12  OH       -22.6570  -15.1030  -23.4310 O.3    47  TYR47      -0.2866
     13  N        -22.3950   -9.6440  -19.7960 N.3    49  THR49      -0.1203
     14  CA       -23.1320  -10.5910  -18.9630 C.3    49  THR49       0.1994
     15  C        -22.2010  -11.4780  -18.1380 C.2    49  THR49       0.2617
     16  O        -22.4200  -11.6810  -16.9430 O.2    49  THR49      -0.2717
     17  CB       -24.0560  -11.4820  -19.8230 C.3    49  THR49       0.1784
     18  OG1      -25.2080  -10.7290  -20.2220 O.3    49  THR49      -0.2211
     19  CG2      -24.5120  -12.7060  -19.0430 C.3    49  THR49       0.0376
     20  N        -21.1470  -11.9760  -18.7740 N.am   50  ASN50      -0.1974
     21  CA       -20.2570  -12.9450  -18.1450 C.3    50  ASN50       0.1688
     22  C        -19.2840  -12.3390  -17.1400 C.2    50  ASN50       0.2292
     23  O        -18.8860  -13.0060  -16.1860 O.2    50  ASN50      -0.2864
     24  CB       -19.4780  -13.7000  -19.2180 C.3    50  ASN50       0.1181
     25  CG       -20.3870  -14.4170  -20.1900 C.2    50  ASN50       0.2629
     26  OD1      -21.5350  -14.7260  -19.8720 O.2    50  ASN50      -0.2716
     27  ND2      -19.8820  -14.6790  -21.3860 N.am   50  ASN50      -0.0877
     28  N        -21.0210  -12.4390  -14.2280 N.3    53  LEU53      -0.1245
     29  CA       -21.1090  -13.8520  -13.8900 C.3    53  LEU53       0.1561
     30  C        -19.7810  -14.3650  -13.3420 C.2    53  LEU53       0.2260
     31  O        -19.7530  -15.1660  -12.4060 O.2    53  LEU53      -0.2867
     32  CB       -21.5310  -14.6610  -15.1150 C.3    53  LEU53       0.0270
     33  CG       -21.7980  -16.1530  -14.9390 C.3    53  LEU53       0.0019
     34  CD1      -22.9090  -16.3770  -13.9300 C.3    53  LEU53       0.0001
     35  CD2      -22.1640  -16.7600  -16.2800 C.3    53  LEU53       0.0001
     36  N        -35.6280  -19.7450  -21.7830 N.3   315  ALA315     -0.1245
     37  CA       -34.5380  -19.1900  -20.9890 C.3   315  ALA315      0.1562
     38  C        -35.0430  -18.6660  -19.6500 C.2   315  ALA315      0.2260
     39  O        -34.3100  -18.6390  -18.6610 O.2   315  ALA315     -0.2867
     40  CB       -33.8360  -18.0850  -21.7590 C.3   315  ALA315      0.0290
     41  N        -35.8280  -22.0200  -17.1860 N.3   318  VAL318     -0.1231
     42  CA       -34.6680  -22.7020  -16.6230 C.3   318  VAL318      0.1692
     43  C        -33.9460  -21.8110  -15.6200 C.2   318  VAL318      0.2591
     44  O        -33.4570  -22.2920  -14.5970 O.2   318  VAL318     -0.2718
     45  CB       -33.6800  -23.1680  -17.7170 C.3   318  VAL318      0.0266
     46  CG1      -34.3050  -24.2750  -18.5520 C.3   318  VAL318      0.0020
     47  CG2      -33.2520  -22.0100  -18.5960 C.3   318  VAL318      0.0020
     48  N        -33.9000  -20.5120  -15.8990 N.am  319  LEU319     -0.1980
     49  CA       -33.2510  -19.5720  -14.9960 C.3   319  LEU319      0.1596
     50  C        -34.0040  -19.5000  -13.6710 C.2   319  LEU319      0.2287
     51  O        -33.4050  -19.3090  -12.6170 O.2   319  LEU319     -0.2864
     52  CB       -33.1550  -18.1860  -15.6390 C.3   319  LEU319      0.0297
     53  CG       -32.4250  -17.1080  -14.8340 C.3   319  LEU319      0.0022
     54  CD1      -31.4980  -16.3020  -15.7280 C.3   319  LEU319      0.0001
     55  CD2      -33.4200  -16.1930  -14.1400 C.3   319  LEU319      0.0001
     56  N        -25.6020  -23.1750  -13.5280 N.3   373  TYR373     -0.1227
     57  CA       -26.1650  -22.1200  -14.3650 C.3   373  TYR373      0.1736
     58  C        -25.5440  -22.1030  -15.7620 C.2   373  TYR373      0.2596
     59  O        -26.2570  -22.0910  -16.7650 O.2   373  TYR373     -0.2718
     60  CB       -25.9780  -20.7590  -13.6890 C.3   373  TYR373      0.0548
     61  CG       -26.5920  -19.5940  -14.4370 C.ar  373  TYR373     -0.0200
     62  CD1      -27.9610  -19.5280  -14.6600 C.ar  373  TYR373     -0.0009
     63  CD2      -25.8010  -18.5520  -14.9080 C.ar  373  TYR373     -0.0009
     64  CE1      -28.5250  -18.4610  -15.3390 C.ar  373  TYR373      0.0417
     65  CE2      -26.3550  -17.4820  -15.5860 C.ar  373  TYR373      0.0417
     66  CZ       -27.7180  -17.4400  -15.7980 C.ar  373  TYR373      0.1957
     67  OH       -28.2740  -16.3750  -16.4730 O.3   373  TYR373     -0.2866
     68  N        -24.2160  -22.1120  -15.8150 N.am  374  THR374     -0.1953
     69  CA       -23.4790  -22.0080  -17.0700 C.3   374  THR374      0.1897
     70  C        -23.5730  -23.2570  -17.9430 C.2   374  THR374      0.2313
     71  O        -23.2850  -23.2040  -19.1390 O.2   374  THR374     -0.2863
     72  CB       -21.9930  -21.7140  -16.8080 C.3   374  THR374      0.1794
     73  OG1      -21.4810  -22.6600  -15.8620 O.3   374  THR374     -0.2208
     74  CG2      -21.8140  -20.3160  -16.2550 C.3   374  THR374      0.0378
     75  N        -26.0980  -24.7930  -19.0090 N.3   376  PHE376     -0.1227
     76  CA       -27.1790  -24.7270  -19.9890 C.3   376  PHE376      0.1736
     77  C        -26.7590  -23.8970  -21.1940 C.2   376  PHE376      0.2595
     78  O        -27.5030  -23.7630  -22.1630 O.2   376  PHE376     -0.2718
     79  CB       -28.4460  -24.1560  -19.3580 C.3   376  PHE376      0.0547
     80  CG       -29.0580  -25.0570  -18.3290 C.ar  376  PHE376     -0.0202
     81  CD1      -28.6470  -25.0020  -17.0100 C.ar  376  PHE376     -0.0042
     82  CD2      -30.0330  -25.9740  -18.6860 C.ar  376  PHE376     -0.0042
     83  CE1      -29.2030  -25.8390  -16.0610 C.ar  376  PHE376     -0.0003
     84  CE2      -30.5930  -26.8130  -17.7440 C.ar  376  PHE376     -0.0003
     85  CZ       -30.1790  -26.7460  -16.4300 C.ar  376  PHE376     -0.0000
     86  N        -25.5550  -23.3410  -21.1190 N.am  377  ASN377     -0.1974
     87  CA       -24.9540  -22.6410  -22.2440 C.3   377  ASN377      0.1688
     88  C        -23.9500  -23.5490  -22.9420 C.2   377  ASN377      0.2292
     89  O        -23.0440  -24.0840  -22.3050 O.2   377  ASN377     -0.2864
     90  CB       -24.2790  -21.3530  -21.7760 C.3   377  ASN377      0.1181
     91  CG       -23.7170  -20.5440  -22.9210 C.2   377  ASN377      0.2629
     92  OD1      -22.6180  -20.8130  -23.4040 O.2   377  ASN377     -0.2716
     93  ND2      -24.4680  -19.5420  -23.3620 N.am  377  ASN377     -0.0877
     94  N        -20.0860  -22.5890  -22.8770 N.3   380  PHE380     -0.1241
     95  CA       -19.5300  -22.9250  -21.5710 C.3   380  PHE380      0.1605
     96  C        -19.3480  -24.4270  -21.4270 C.2   380  PHE380      0.2264
     97  O        -18.2910  -24.8980  -21.0100 O.2   380  PHE380     -0.2867
     98  CB       -20.4310  -22.4180  -20.4420 C.3   380  PHE380      0.0534
     99  CG       -20.1260  -21.0180  -19.9960 C.ar  380  PHE380     -0.0203
    100  CD1      -19.0410  -20.7610  -19.1760 C.ar  380  PHE380     -0.0042
    101  CD2      -20.9380  -19.9630  -20.3740 C.ar  380  PHE380     -0.0042
    102  CE1      -18.7610  -19.4790  -18.7540 C.ar  380  PHE380     -0.0003
    103  CE2      -20.6660  -18.6770  -19.9540 C.ar  380  PHE380     -0.0003
    104  CZ       -19.5750  -18.4340  -19.1410 C.ar  380  PHE380     -0.0000
@<TRIPOS>BOND
     1     8    10   ar
     2     8     6   ar
     3    10    11   ar
     4     5     6    1
     5     5     2    1
     6     6     7   ar
     7    11    12    1
     8    11     9   ar
     9    92    91    2
    10    93    91   am
    11     7     9   ar
    12    88    89    2
    13    88    87    1
    14    91    90    1
    15     2     1    1
    16     2     3    1
    17    94    95    1
    18    87    90    1
    19    87    86    1
    20    78    77    2
    21    36    37    1
    22    40    37    1
    23    95    96    1
    24    95    98    1
    25     3     4    2
    26    96    97    2
    27    27    25   am
    28    77    86   am
    29    77    76    1
    30    37    38    1
    31    98    99    1
    32   101    99   ar
    33   101   103   ar
    34    18    17    1
    35    25    26    2
    36    25    24    1
    37    99   100   ar
    38    76    79    1
    39    76    75    1
    40   103   104   ar
    41    17    19    1
    42    17    14    1
    43    13    14    1
    44    38    39    2
    45    79    80    1
    46    24    21    1
    47   100   102   ar
    48   104   102   ar
    49    71    70    2
    50    14    15    1
    51    20    21    1
    52    20    15   am
    53    82    80   ar
    54    82    84   ar
    55    47    45    1
    56    46    45    1
    57    80    81   ar
    58    21    22    1
    59    15    16    2
    60    70    69    1
    61    84    85   ar
    62    45    42    1
    63    41    42    1
    64    22    23    2
    65    69    72    1
    66    69    68    1
    67    81    83   ar
    68    72    74    1
    69    72    73    1
    70    59    58    2
    71    42    43    1
    72    67    66    1
    73    85    83   ar
    74    35    33    1
    75    48    43   am
    76    48    49    1
    77    68    58   am
    78    66    65   ar
    79    66    64   ar
    80    58    57    1
    81    54    53    1
    82    52    49    1
    83    52    53    1
    84    43    44    2
    85    65    63   ar
    86    64    62   ar
    87    32    33    1
    88    32    29    1
    89    49    50    1
    90    33    34    1
    91    63    61   ar
    92    53    55    1
    93    62    61   ar
    94    61    60    1
    95    57    60    1
    96    57    56    1
    97    28    29    1
    98    29    30    1
    99    50    51    2
   100    30    31    2
