@<TRIPOS>MOLECULE
tmp/5tvrB00.pdb
 122 118 0 0 0
SMALL
GASTEIGER

@<TRIPOS>ATOM
      1  N        -24.2320  137.9480   54.5500 N.3   126  TYR126     -0.1241
      2  CA       -24.7350  136.5860   54.7010 C.3   126  TYR126      0.1605
      3  C        -24.9850  136.3680   56.1790 C.2   126  TYR126      0.2264
      4  O        -24.0840  136.5660   56.9920 O.2   126  TYR126     -0.2867
      5  CB       -23.7270  135.5590   54.1390 C.3   126  TYR126      0.0534
      6  CG       -24.2630  134.1620   53.8370 C.ar  126  TYR126     -0.0201
      7  CD1      -25.6210  133.9320   53.6520 C.ar  126  TYR126     -0.0009
      8  CD2      -23.3910  133.0900   53.6360 C.ar  126  TYR126     -0.0009
      9  CE1      -26.1060  132.6630   53.3510 C.ar  126  TYR126      0.0417
     10  CE2      -23.8710  131.8120   53.3210 C.ar  126  TYR126      0.0417
     11  CZ       -25.2280  131.6100   53.1780 C.ar  126  TYR126      0.1957
     12  OH       -25.7220  130.3580   52.8650 O.3   126  TYR126     -0.2866
     13  N        -28.9520  129.5470   57.9860 N.3   171  TYR171     -0.1241
     14  CA       -28.2710  130.4470   57.0570 C.3   171  TYR171      0.1605
     15  C        -29.2770  131.3600   56.3810 C.2   171  TYR171      0.2264
     16  O        -30.1210  130.8950   55.6130 O.2   171  TYR171     -0.2867
     17  CB       -27.4950  129.6710   55.9840 C.3   171  TYR171      0.0534
     18  CG       -26.4430  128.7120   56.5010 C.ar  171  TYR171     -0.0201
     19  CD1      -26.7950  127.4640   56.9910 C.ar  171  TYR171     -0.0009
     20  CD2      -25.0940  129.0470   56.4710 C.ar  171  TYR171     -0.0009
     21  CE1      -25.8420  126.5870   57.4550 C.ar  171  TYR171      0.0417
     22  CE2      -24.1290  128.1700   56.9330 C.ar  171  TYR171      0.0417
     23  CZ       -24.5130  126.9390   57.4200 C.ar  171  TYR171      0.1957
     24  OH       -23.5660  126.0590   57.8870 O.3   171  TYR171     -0.2866
     25  N        -21.1040  130.1670   49.2990 N.3   179  PHE179     -0.1241
     26  CA       -20.2880  129.2840   50.1130 C.3   179  PHE179      0.1605
     27  C        -19.1980  128.6920   49.2240 C.2   179  PHE179      0.2264
     28  O        -19.4570  128.1860   48.1260 O.2   179  PHE179     -0.2867
     29  CB       -21.1210  128.2030   50.8380 C.3   179  PHE179      0.0534
     30  CG       -22.0880  127.4330   49.9630 C.ar  179  PHE179     -0.0203
     31  CD1      -23.2800  127.9980   49.5480 C.ar  179  PHE179     -0.0042
     32  CD2      -21.8280  126.1160   49.6210 C.ar  179  PHE179     -0.0042
     33  CE1      -24.1750  127.2790   48.7660 C.ar  179  PHE179     -0.0003
     34  CE2      -22.7130  125.3910   48.8450 C.ar  179  PHE179     -0.0003
     35  CZ       -23.8880  125.9690   48.4150 C.ar  179  PHE179     -0.0000
     36  N        -15.5680  123.3580   49.5960 N.3   182  HIS182     -0.1241
     37  CA       -15.1550  122.6340   50.7940 C.3   182  HIS182      0.1621
     38  C        -15.7680  121.2440   50.8400 C.2   182  HIS182      0.2264
     39  O        -16.7700  120.9730   50.1780 O.2   182  HIS182     -0.2867
     40  CB       -15.5680  123.4010   52.0530 C.3   182  HIS182      0.0745
     41  CG       -17.0510  123.4190   52.2750 C.ar  182  HIS182      0.0817
     42  ND1      -17.9110  124.1470   51.4800 N.ar  182  HIS182     -0.2268
     43  CD2      -17.8250  122.7810   53.1850 C.ar  182  HIS182      0.1154
     44  CE1      -19.1520  123.9670   51.9000 C.ar  182  HIS182      0.1986
     45  NE2      -19.1290  123.1450   52.9350 N.ar  182  HIS182     -0.2212
     46  N        -17.0200  118.6690   54.2100 N.3   184  GLU184     -0.1245
     47  CA       -17.3880  118.9200   55.6030 C.3   184  GLU184      0.1567
     48  C        -16.2270  118.6470   56.5480 C.2   184  GLU184      0.2260
     49  O        -15.2950  117.9190   56.2130 O.2   184  GLU184     -0.2867
     50  CB       -18.5880  118.0680   56.0070 C.3   184  GLU184      0.0388
     51  CG       -19.7890  118.2560   55.1120 C.3   184  GLU184      0.1160
     52  CD       -20.2100  119.7040   55.0410 C.2   184  GLU184      0.3649
     53  OE1      -20.5150  120.3070   56.0940 O.co2 184  GLU184     -0.2457
     54  OE2      -20.2030  120.2490   53.9290 O.co2 184  GLU184     -0.2457
     55  N        -23.3110  116.0340   55.1060 N.3   190  SER190     -0.1202
     56  CA       -24.1180  117.1510   55.5680 C.3   190  SER190      0.2020
     57  C        -25.5100  117.0450   54.9880 C.2   190  SER190      0.2619
     58  O        -25.7230  116.4170   53.9480 O.2   190  SER190     -0.2717
     59  CB       -23.4910  118.4960   55.1940 C.3   190  SER190      0.2103
     60  OG       -23.4930  118.6780   53.7960 O.3   190  SER190     -0.2182
     61  N        -26.4610  117.6510   55.6820 N.am  191  ILE191     -0.1965
     62  CA       -27.8240  117.7510   55.1920 C.3   191  ILE191      0.1727
     63  C        -28.2310  119.2200   55.2280 C.2   191  ILE191      0.2616
     64  O        -27.8660  119.9460   56.1500 O.2   191  ILE191     -0.2715
     65  CB       -28.7900  116.8780   56.0260 C.3   191  ILE191      0.0290
     66  CG1      -30.2370  117.0500   55.5590 C.3   191  ILE191      0.0022
     67  CG2      -28.6680  117.1910   57.5030 C.3   191  ILE191      0.0023
     68  CD1      -31.2140  116.2250   56.3590 C.3   191  ILE191      0.0001
     69  N        -28.9580  119.6620   54.2060 N.am  192  ASN192     -0.1972
     70  CA       -29.3420  121.0600   54.0790 C.3   192  ASN192      0.1688
     71  C        -30.8110  121.1570   53.6820 C.2   192  ASN192      0.2292
     72  O        -31.2230  120.5920   52.6660 O.2   192  ASN192     -0.2864
     73  CB       -28.4510  121.7640   53.0450 C.3   192  ASN192      0.1181
     74  CG       -28.6700  123.2690   52.9950 C.2   192  ASN192      0.2629
     75  OD1      -29.7440  123.7460   52.6280 O.2   192  ASN192     -0.2716
     76  ND2      -27.6340  124.0250   53.3390 N.am  192  ASN192     -0.0877
     77  N        -31.2030  128.1650   46.1620 N.3   200  LYS200     -0.1245
     78  CA       -29.7870  128.0670   46.4590 C.3   200  LYS200      0.1561
     79  C        -29.1780  127.1400   45.4090 C.2   200  LYS200      0.2260
     80  O        -29.6240  126.0030   45.2560 O.2   200  LYS200     -0.2867
     81  CB       -29.5660  127.5250   47.8810 C.3   200  LYS200      0.0271
     82  CG       -28.1190  127.3130   48.2630 C.3   200  LYS200      0.0035
     83  CD       -27.9790  126.5430   49.5820 C.3   200  LYS200      0.0206
     84  CE       -28.7090  127.2320   50.7280 C.3   200  LYS200      0.1093
     85  NZ       -27.9730  128.4460   51.2020 N.3   200  LYS200     -0.1314
     86  N        -25.9920  124.9860   43.6360 N.3   202  TRP202     -0.1241
     87  CA       -24.8770  124.1760   44.1080 C.3   202  TRP202      0.1605
     88  C        -23.9900  123.7010   42.9630 C.2   202  TRP202      0.2264
     89  O        -24.4720  123.4380   41.8640 O.2   202  TRP202     -0.2867
     90  CB       -25.3820  122.9390   44.8560 C.3   202  TRP202      0.0550
     91  CG       -26.1950  123.1810   46.0920 C.ar  202  TRP202      0.0003
     92  CD1      -27.4380  123.7530   46.1670 C.ar  202  TRP202      0.0946
     93  CD2      -25.8470  122.8030   47.4250 C.ar  202  TRP202      0.0152
     94  NE1      -27.8690  123.7730   47.4730 N.ar  202  TRP202     -0.2442
     95  CE2      -26.9090  123.1930   48.2620 C.ar  202  TRP202      0.0810
     96  CE3      -24.7330  122.1740   47.9950 C.ar  202  TRP202      0.0012
     97  CZ2      -26.8880  122.9820   49.6380 C.ar  202  TRP202      0.0191
     98  CZ3      -24.7170  121.9620   49.3580 C.ar  202  TRP202      0.0001
     99  CH2      -25.7830  122.3660   50.1660 C.ar  202  TRP202      0.0015
    100  N        -24.9240  116.1390   51.1600 N.3   264  THR264     -0.1218
    101  CA       -23.5620  115.9890   50.6560 C.3   264  THR264      0.1862
    102  C        -22.9170  114.7650   51.2980 C.2   264  THR264      0.2287
    103  O        -23.1740  114.4540   52.4580 O.2   264  THR264     -0.2866
    104  CB       -22.6770  117.2350   50.9200 C.3   264  THR264      0.1770
    105  OG1      -22.1960  117.2140   52.2660 O.3   264  THR264     -0.2211
    106  CG2      -23.4490  118.5290   50.6700 C.3   264  THR264      0.0375
    107  N        -18.1570  120.7730   47.5020 N.3   270  HIS270     -0.1241
    108  CA       -19.2830  121.5440   46.9950 C.3   270  HIS270      0.1621
    109  C        -19.1060  123.0300   47.2630 C.2   270  HIS270      0.2264
    110  O        -18.3740  123.4400   48.1660 O.2   270  HIS270     -0.2867
    111  CB       -20.6100  121.0570   47.6030 C.3   270  HIS270      0.0745
    112  CG       -20.5990  120.9790   49.0980 C.ar  270  HIS270      0.0817
    113  ND1      -20.0130  119.9340   49.7820 N.ar  270  HIS270     -0.2268
    114  CD2      -21.0900  121.8170   50.0410 C.ar  270  HIS270      0.1154
    115  CE1      -20.1430  120.1350   51.0830 C.ar  270  HIS270      0.1986
    116  NE2      -20.7960  121.2680   51.2690 N.ar  270  HIS270     -0.2212
    117  N        -28.9020  123.5580   58.2780 N.3   282  SER282     -0.1217
    118  CA       -28.0090  122.4460   57.9910 C.3   282  SER282      0.1889
    119  C        -27.3010  121.9110   59.2310 C.2   282  SER282      0.2288
    120  O        -27.1820  122.5970   60.2530 O.2   282  SER282     -0.2866
    121  CB       -26.9710  122.8540   56.9420 C.3   282  SER282      0.2089
    122  OG       -25.8450  123.4550   57.5490 O.3   282  SER282     -0.2183
@<TRIPOS>BOND
     1    89    88    2
     2    88    87    1
     3    86    87    1
     4    87    90    1
     5    90    91    1
     6    80    79    2
     7    79    78    1
     8    91    92   ar
     9    91    93   ar
    10    77    78    1
    11    92    94   ar
    12    78    81    1
    13   108   109    1
    14   108   107    1
    15   108   111    1
    16   109   110    2
    17    93    96   ar
    18    93    95   ar
    19    94    95   ar
    20   111   112    1
    21    81    82    1
    22    96    98   ar
    23    28    27    2
    24    95    97   ar
    25    82    83    1
    26    35    33   ar
    27    35    34   ar
    28    33    31   ar
    29    34    32   ar
    30   112   113   ar
    31   112   114   ar
    32    27    26    1
    33    25    26    1
    34    98    99   ar
    35    31    30   ar
    36    83    84    1
    37    36    37    1
    38    32    30   ar
    39    97    99   ar
    40   113   115   ar
    41    30    29    1
    42   114   116   ar
    43    26    29    1
    44    39    38    2
    45   101   104    1
    46   101   100    1
    47   101   102    1
    48   106   104    1
    49    84    85    1
    50    37    38    1
    51    37    40    1
    52   104   105    1
    53   115   116   ar
    54   102   103    2
    55    42    44   ar
    56    42    41   ar
    57    44    45   ar
    58    40    41    1
    59    41    43   ar
    60    75    74    2
    61    72    71    2
    62    12    11    1
    63    45    43   ar
    64    74    73    1
    65    74    76   am
    66    73    70    1
    67    11    10   ar
    68    11     9   ar
    69    10     8   ar
    70     9     7   ar
    71     8     6   ar
    72     7     6   ar
    73    71    70    1
    74    60    59    1
    75     6     5    1
    76    54    52   ar
    77    58    57    2
    78    70    69    1
    79     5     2    1
    80    69    63   am
    81    46    47    1
    82     1     2    1
    83     2     3    1
    84    57    56    1
    85    57    61   am
    86    52    51    1
    87    52    53   ar
    88    55    56    1
    89    51    50    1
    90    62    63    1
    91    62    61    1
    92    62    65    1
    93    59    56    1
    94    63    64    2
    95    66    65    1
    96    66    68    1
    97    47    50    1
    98    47    48    1
    99    16    15    2
   100    17    18    1
   101    17    14    1
   102    65    67    1
   103     3     4    2
   104    49    48    2
   105    15    14    1
   106    20    18   ar
   107    20    22   ar
   108    18    19   ar
   109    22    23   ar
   110   121   122    1
   111   121   118    1
   112    19    21   ar
   113    14    13    1
   114    23    21   ar
   115    23    24    1
   116   118   117    1
   117   118   119    1
   118   119   120    2
