@<TRIPOS>MOLECULE
tmp/5tvuB00.pdb
 217 207 0 0 0
SMALL
GASTEIGER

@<TRIPOS>ATOM
      1  N        233.3930   20.7200   25.7190 N.3    46  GLU46      -0.1231
      2  CA       234.5830   20.0910   25.1550 C.3    46  GLU46       0.1699
      3  C        235.7350   20.0780   26.1520 C.2    46  GLU46       0.2592
      4  O        236.4560   19.0790   26.2610 O.2    46  GLU46      -0.2718
      5  CB       234.9930   20.8040   23.8670 C.3    46  GLU46       0.0402
      6  CG       233.9400   20.7520   22.7740 C.3    46  GLU46       0.1161
      7  CD       233.6120   19.3340   22.3490 C.2    46  GLU46       0.3649
      8  OE1      234.5260   18.4820   22.3530 O.co2  46  GLU46      -0.2457
      9  OE2      232.4380   19.0710   22.0160 O.co2  46  GLU46      -0.2457
     10  N        235.9260   21.1760   26.8870 N.am   47  LEU47      -0.1980
     11  CA       237.0100   21.2240   27.8630 C.3    47  LEU47       0.1596
     12  C        236.7520   20.2920   29.0410 C.2    47  LEU47       0.2287
     13  O        237.6970   19.7090   29.5840 O.2    47  LEU47      -0.2864
     14  CB       237.2140   22.6590   28.3480 C.3    47  LEU47       0.0297
     15  CG       237.6770   23.6560   27.2850 C.3    47  LEU47       0.0022
     16  CD1      237.8670   25.0390   27.8880 C.3    47  LEU47       0.0001
     17  CD2      238.9590   23.1760   26.6180 C.3    47  LEU47       0.0001
     18  N        237.5110   16.8220   27.8750 N.3    50  ASN50      -0.1225
     19  CA       238.9520   16.6050   27.8050 C.3    50  ASN50       0.1785
     20  C        239.5430   16.3490   29.1840 C.2    50  ASN50       0.2597
     21  O        240.5440   15.6330   29.3060 O.2    50  ASN50      -0.2718
     22  CB       239.6350   17.8010   27.1440 C.3    50  ASN50       0.1169
     23  CG       239.2710   17.9410   25.6810 C.2    50  ASN50       0.2627
     24  OD1      238.9760   16.9550   25.0060 O.2    50  ASN50      -0.2716
     25  ND2      239.2900   19.1710   25.1810 N.am   50  ASN50      -0.0877
     26  N        238.9450   16.9240   30.2300 N.am   51  GLY51      -0.1957
     27  CA       239.3800   16.6160   31.5800 C.3    51  GLY51       0.1869
     28  C        238.9390   15.2420   32.0390 C.2    51  GLY51       0.2309
     29  O        239.6620   14.5710   32.7810 O.2    51  GLY51      -0.2863
     30  N        238.6760   12.6940   30.0540 N.3    53  ASP53      -0.1225
     31  CA       239.6080   11.7770   29.4080 C.3    53  ASP53       0.1805
     32  C        240.9340   11.7280   30.1550 C.2    53  ASP53       0.2597
     33  O        241.5020   10.6480   30.3520 O.2    53  ASP53      -0.2718
     34  CB       239.8270   12.1850   27.9510 C.3    53  ASP53       0.1424
     35  CG       238.5500   12.1520   27.1380 C.2    53  ASP53       0.3668
     36  OD1      237.6240   11.4040   27.5150 O.co2  53  ASP53      -0.2456
     37  OD2      238.4710   12.8750   26.1210 O.co2  53  ASP53      -0.2456
     38  N        241.4400   12.8880   30.5810 N.am   54  ALA54      -0.1979
     39  CA       242.6900   12.9200   31.3320 C.3    54  ALA54       0.1597
     40  C        242.5480   12.2460   32.6900 C.2    54  ALA54       0.2287
     41  O        243.5020   11.6270   33.1760 O.2    54  ALA54      -0.2864
     42  CB       243.1640   14.3620   31.5030 C.3    54  ALA54       0.0319
     43  N        242.5510    8.4670   32.0150 N.3    57  LYS57      -0.1245
     44  CA       243.9020    7.9770   31.7650 C.3    57  LYS57       0.1561
     45  C        244.6760    7.7960   33.0630 C.2    57  LYS57       0.2260
     46  O        245.5780    6.9550   33.1330 O.2    57  LYS57      -0.2867
     47  CB       244.6480    8.9310   30.8320 C.3    57  LYS57       0.0271
     48  CG       244.0650    9.0190   29.4320 C.3    57  LYS57       0.0035
     49  CD       244.7250   10.1310   28.6370 C.3    57  LYS57       0.0206
     50  CE       244.0250   10.3510   27.3080 C.3    57  LYS57       0.1093
     51  NZ       244.5830   11.5250   26.5850 N.3    57  LYS57      -0.1314
     52  N        241.8120   20.2960   35.7500 N.3    85  ASP85      -0.1239
     53  CA       241.6100   18.9110   36.1430 C.3    85  ASP85       0.1674
     54  C        242.8940   18.3570   36.7440 C.2    85  ASP85       0.2266
     55  O        243.9950   18.8350   36.4610 O.2    85  ASP85      -0.2867
     56  CB       241.1820   18.0460   34.9530 C.3    85  ASP85       0.1410
     57  CG       242.3210   17.7750   33.9890 C.2    85  ASP85       0.3668
     58  OD1      242.7650   18.7210   33.3050 O.co2  85  ASP85      -0.2456
     59  OD2      242.7810   16.6150   33.9250 O.co2  85  ASP85      -0.2456
     60  N        246.1350   13.0850   34.1090 N.3    88  VAL88      -0.1231
     61  CA       247.5010   12.6790   33.7900 C.3    88  VAL88       0.1692
     62  C        248.3670   13.8830   33.4470 C.2    88  VAL88       0.2593
     63  O        249.5680   13.8950   33.7440 O.2    88  VAL88      -0.2718
     64  CB       247.5000   11.6520   32.6440 C.3    88  VAL88       0.0266
     65  CG1      247.1380   10.2750   33.1670 C.3    88  VAL88       0.0020
     66  CG2      246.5320   12.0800   31.5500 C.3    88  VAL88       0.0020
     67  N        247.7900   14.9030   32.8210 N.am   89  GLY89      -0.1942
     68  CA       248.5680   16.0430   32.3800 C.3    89  GLY89       0.2014
     69  C        249.3960   15.7260   31.1530 C.2    89  GLY89       0.2638
     70  O        249.4450   14.5750   30.7090 O.2    89  GLY89      -0.2714
     71  N        250.0560   16.7380   30.5970 N.am   90  MET90      -0.1976
     72  CA       250.8270   16.5870   29.3730 C.3    90  MET90       0.1605
     73  C        252.2350   17.1210   29.5790 C.2    90  MET90       0.2287
     74  O        252.4250   18.1860   30.1750 O.2    90  MET90      -0.2864
     75  CB       250.1560   17.3220   28.2080 C.3    90  MET90       0.0413
     76  CG       248.8070   16.7490   27.8110 C.3    90  MET90       0.0598
     77  SD       247.8790   17.8450   26.7220 S.3    90  MET90      -0.1393
     78  CE       247.5610   19.2220   27.8230 C.3    90  MET90       0.0692
     79  N        249.8440   16.9690   20.7070 N.3    98  ASN98      -0.1225
     80  CA       248.4080   16.7930   20.8940 C.3    98  ASN98       0.1785
     81  C        247.6460   18.0960   20.6760 C.2    98  ASN98       0.2597
     82  O        246.6300   18.1180   19.9730 O.2    98  ASN98      -0.2718
     83  CB       248.1250   16.2320   22.2880 C.3    98  ASN98       0.1169
     84  CG       248.5530   14.7850   22.4340 C.2    98  ASN98       0.2627
     85  OD1      249.3140   14.2650   21.6180 O.2    98  ASN98      -0.2716
     86  ND2      248.0620   14.1250   23.4770 N.am   98  ASN98      -0.0877
     87  N        248.1190   19.1900   21.2720 N.am   99  LEU99      -0.1980
     88  CA       247.4220   20.4680   21.1760 C.3    99  LEU99       0.1596
     89  C        247.8090   21.2550   19.9290 C.2    99  LEU99       0.2287
     90  O        246.9390   21.8400   19.2740 O.2    99  LEU99      -0.2864
     91  CB       247.6930   21.3120   22.4250 C.3    99  LEU99       0.0297
     92  CG       246.6490   21.2560   23.5440 C.3    99  LEU99       0.0022
     93  CD1      246.3910   19.8240   23.9890 C.3    99  LEU99       0.0001
     94  CD2      247.0870   22.1150   24.7220 C.3    99  LEU99       0.0001
     95  N        244.8670   15.7550   15.5600 N.3   104  ARG104     -0.1231
     96  CA       245.6660   14.8200   16.3390 C.3   104  ARG104      0.1694
     97  C        245.0260   14.6280   17.7070 C.2   104  ARG104      0.2593
     98  O        244.7550   15.6020   18.4160 O.2   104  ARG104     -0.2718
     99  CB       247.1030   15.3200   16.4880 C.3   104  ARG104      0.0321
    100  CG       247.9820   14.4180   17.3380 C.3   104  ARG104      0.0489
    101  CD       249.3630   14.2770   16.7270 C.3   104  ARG104      0.2205
    102  NE       249.2980   13.6970   15.3900 N.pl3 104  ARG104     -0.0865
    103  CZ       250.3460   13.5520   14.5860 C.cat 104  ARG104      0.5346
    104  NH1      251.5480   13.9460   14.9820 N.pl3 104  ARG104      0.1354
    105  NH2      250.1910   13.0130   13.3840 N.pl3 104  ARG104      0.1354
    106  N        244.7850   13.3700   18.0720 N.am  105  SER105     -0.1938
    107  CA       244.0940   13.0290   19.3110 C.3   105  SER105      0.2055
    108  C        244.9370   12.0290   20.0890 C.2   105  SER105      0.2644
    109  O        245.0880   10.8790   19.6660 O.2   105  SER105     -0.2714
    110  CB       242.7040   12.4590   19.0250 C.3   105  SER105      0.2130
    111  OG       242.0500   12.0830   20.2240 O.3   105  SER105     -0.2179
    112  N        245.4860   12.4670   21.2240 N.am  106  GLY106     -0.1939
    113  CA       246.1730   11.5480   22.1120 C.3   106  GLY106      0.2014
    114  C        245.2580   10.5270   22.7530 C.2   106  GLY106      0.2639
    115  O        245.7360    9.4900   23.2240 O.2   106  GLY106     -0.2714
    116  N        243.9530   10.7950   22.7740 N.am  107  SER107     -0.1949
    117  CA       242.9610    9.8590   23.2870 C.3   107  SER107      0.1924
    118  C        242.6570    8.7280   22.3110 C.2   107  SER107      0.2314
    119  O        241.7040    7.9730   22.5360 O.2   107  SER107     -0.2863
    120  CB       241.6710   10.6030   23.6410 C.3   107  SER107      0.2116
    121  OG       241.9010   11.5680   24.6520 O.3   107  SER107     -0.2180
    122  N        237.2780   11.6710   23.9100 N.3   118  GLY118     -0.1210
    123  CA       238.0750   12.1920   22.8140 C.3   118  GLY118      0.1956
    124  C        238.0910   11.2540   21.6230 C.2   118  GLY118      0.2612
    125  O        238.0710   10.0300   21.7640 O.2   118  GLY118     -0.2717
    126  N        238.1310   11.8440   20.4260 N.am  119  GLN119     -0.1965
    127  CA       238.0490   11.0540   19.2040 C.3   119  GLN119      0.1733
    128  C        238.7400   11.7260   18.0230 C.2   119  GLN119      0.2616
    129  O        239.7450   11.2160   17.5160 O.2   119  GLN119     -0.2715
    130  CB       236.5840   10.7730   18.8590 C.3   119  GLN119      0.0408
    131  CG       236.3890    9.9200   17.6160 C.3   119  GLN119      0.0908
    132  CD       234.9270    9.6590   17.3120 C.2   119  GLN119      0.2608
    133  OE1      234.0390   10.1460   18.0110 O.2   119  GLN119     -0.2717
    134  NE2      234.6700    8.8850   16.2630 N.am  119  GLN119     -0.0878
    135  N        238.2110   12.8670   17.5740 N.am  120  PHE120     -0.1960
    136  CA       238.6830   13.4660   16.3280 C.3   120  PHE120      0.1771
    137  C        240.0130   14.1900   16.5050 C.2   120  PHE120      0.2620
    138  O        240.8970   14.0810   15.6490 O.2   120  PHE120     -0.2715
    139  CB       237.6280   14.4240   15.7740 C.3   120  PHE120      0.0574
    140  CG       236.2610   13.8160   15.6580 C.ar  120  PHE120     -0.0200
    141  CD1      235.9980   12.8500   14.7030 C.ar  120  PHE120     -0.0042
    142  CD2      235.2370   14.2140   16.5020 C.ar  120  PHE120     -0.0042
    143  CE1      234.7420   12.2880   14.5960 C.ar  120  PHE120     -0.0003
    144  CE2      233.9780   13.6570   16.3980 C.ar  120  PHE120     -0.0003
    145  CZ       233.7290   12.6940   15.4430 C.ar  120  PHE120     -0.0000
    146  N        240.1700   14.9380   17.5930 N.am  121  GLY121     -0.1940
    147  CA       241.3860   15.6810   17.8450 C.3   121  GLY121      0.2014
    148  C        241.2810   17.1830   17.6850 C.2   121  GLY121      0.2639
    149  O        242.3160   17.8610   17.6940 O.2   121  GLY121     -0.2714
    150  N        240.0720   17.7270   17.5440 N.am  122  VAL122     -0.1963
    151  CA       239.8700   19.1520   17.3190 C.3   122  VAL122      0.1727
    152  C        238.9970   19.7970   18.3830 C.2   122  VAL122      0.2617
    153  O        238.6700   20.9830   18.2610 O.2   122  VAL122     -0.2715
    154  CB       239.2770   19.4170   15.9200 C.3   122  VAL122      0.0290
    155  CG1      240.1200   18.7460   14.8480 C.3   122  VAL122      0.0023
    156  CG2      237.8390   18.9320   15.8550 C.3   122  VAL122      0.0023
    157  N        238.6090   19.0590   19.4250 N.am  123  GLY123     -0.1940
    158  CA       237.7060   19.6130   20.4200 C.3   123  GLY123      0.2014
    159  C        238.3240   20.7110   21.2620 C.2   123  GLY123      0.2639
    160  O        237.6180   21.6170   21.7160 O.2   123  GLY123     -0.2714
    161  N        239.6400   20.6510   21.4840 N.am  124  PHE124     -0.1959
    162  CA       240.3020   21.6630   22.3020 C.3   124  PHE124      0.1771
    163  C        240.2110   23.0460   21.6730 C.2   124  PHE124      0.2619
    164  O        240.1530   24.0510   22.3910 O.2   124  PHE124     -0.2715
    165  CB       241.7650   21.2780   22.5300 C.3   124  PHE124      0.0574
    166  CG       242.6170   22.4060   23.0430 C.ar  124  PHE124     -0.0200
    167  CD1      242.5540   22.7920   24.3710 C.ar  124  PHE124     -0.0042
    168  CD2      243.4870   23.0750   22.1960 C.ar  124  PHE124     -0.0042
    169  CE1      243.3380   23.8290   24.8440 C.ar  124  PHE124     -0.0003
    170  CE2      244.2730   24.1110   22.6640 C.ar  124  PHE124     -0.0003
    171  CZ       244.1980   24.4880   23.9890 C.ar  124  PHE124     -0.0000
    172  N        240.1900   23.1210   20.3420 N.am  125  TYR125     -0.1974
    173  CA       240.1580   24.4050   19.6530 C.3   125  TYR125      0.1639
    174  C        238.8020   25.0920   19.7310 C.2   125  TYR125      0.2290
    175  O        238.6600   26.1980   19.1980 O.2   125  TYR125     -0.2864
    176  CB       240.5670   24.2180   18.1910 C.3   125  TYR125      0.0560
    177  CG       241.8450   23.4280   18.0270 C.ar  125  TYR125     -0.0198
    178  CD1      243.0790   24.0010   18.3010 C.ar  125  TYR125     -0.0009
    179  CD2      241.8160   22.1060   17.6030 C.ar  125  TYR125     -0.0009
    180  CE1      244.2490   23.2810   18.1560 C.ar  125  TYR125      0.0417
    181  CE2      242.9800   21.3770   17.4550 C.ar  125  TYR125      0.0417
    182  CZ       244.1940   21.9700   17.7320 C.ar  125  TYR125      0.1957
    183  OH       245.3560   21.2490   17.5850 O.3   125  TYR125     -0.2866
    184  N        246.1080   19.6790   34.5660 N.3   170  THR170     -0.1218
    185  CA       246.1250   20.6650   33.4940 C.3   170  THR170      0.1862
    186  C        245.1350   21.7740   33.8150 C.2   170  THR170      0.2287
    187  O        243.9820   21.4970   34.1570 O.2   170  THR170     -0.2866
    188  CB       245.7770   20.0240   32.1450 C.3   170  THR170      0.1770
    189  OG1      246.6520   18.9160   31.8980 O.3   170  THR170     -0.2211
    190  CG2      245.9210   21.0370   31.0180 C.3   170  THR170      0.0375
    191  N        243.5020   25.3130   32.1600 N.3   172  ILE172     -0.1245
    192  CA       243.2950   26.1280   30.9690 C.3   172  ILE172      0.1561
    193  C        242.6090   27.4200   31.3880 C.2   172  ILE172      0.2260
    194  O        241.5710   27.3910   32.0600 O.2   172  ILE172     -0.2867
    195  CB       242.4680   25.3830   29.9080 C.3   172  ILE172      0.0252
    196  CG1      243.1570   24.0760   29.5140 C.3   172  ILE172      0.0019
    197  CG2      242.2570   26.2620   28.6850 C.3   172  ILE172      0.0019
    198  CD1      242.4260   23.3010   28.4400 C.3   172  ILE172      0.0001
    199  N        231.1940   16.1240   13.4800 N.3   311  LEU311     -0.1245
    200  CA       232.3420   16.7930   14.0830 C.3   311  LEU311      0.1561
    201  C        231.9080   17.7630   15.1750 C.2   311  LEU311      0.2260
    202  O        232.6030   17.9210   16.1860 O.2   311  LEU311     -0.2867
    203  CB       233.1520   17.5190   13.0090 C.3   311  LEU311      0.0270
    204  CG       234.4980   18.0810   13.4690 C.3   311  LEU311      0.0019
    205  CD1      235.3560   16.9720   14.0550 C.3   311  LEU311      0.0001
    206  CD2      235.2180   18.7680   12.3200 C.3   311  LEU311      0.0001
    207  N        229.3440   17.3680   17.0780 N.3   313  ARG313     -0.1245
    208  CA       228.7140   16.5950   18.1500 C.3   313  ARG313      0.1563
    209  C        227.2950   17.0940   18.4360 C.2   313  ARG313      0.2260
    210  O        226.9440   17.4480   19.5630 O.2   313  ARG313     -0.2867
    211  CB       229.5720   16.6240   19.4210 C.3   313  ARG313      0.0307
    212  CG       230.8980   15.8930   19.3070 C.3   313  ARG313      0.0489
    213  CD       231.7420   16.1050   20.5540 C.3   313  ARG313      0.2205
    214  NE       232.9080   15.2270   20.5910 N.pl3 313  ARG313     -0.0865
    215  CZ       232.9440   14.0640   21.2330 C.cat 313  ARG313      0.5346
    216  NH1      231.8770   13.6360   21.8940 N.pl3 313  ARG313      0.1354
    217  NH2      234.0480   13.3290   21.2160 N.pl3 313  ARG313      0.1354
@<TRIPOS>BOND
     1   206   204    1
     2   203   204    1
     3   203   200    1
     4   105   103    1
     5   204   205    1
     6   199   200    1
     7   200   201    1
     8   103   104    1
     9   103   102    2
    10   143   141   ar
    11   143   145   ar
    12   141   140   ar
    13   155   154    1
    14   201   202    2
    15   102   101    1
    16   145   144   ar
    17    95    96    1
    18   138   137    2
    19   140   139    1
    20   140   142   ar
    21   139   136    1
    22   156   154    1
    23   154   151    1
    24   134   132   am
    25   136   137    1
    26   136   135    1
    27    96    99    1
    28    96    97    1
    29   144   142   ar
    30    99   100    1
    31   137   146   am
    32   101   100    1
    33   207   208    1
    34   132   131    1
    35   132   133    2
    36   151   150    1
    37   151   152    1
    38   181   179   ar
    39   181   182   ar
    40   129   128    2
    41   150   148   am
    42   135   128   am
    43   183   182    1
    44   146   147    1
    45   179   177   ar
    46   131   130    1
    47   148   149    2
    48   148   147    1
    49    97   106   am
    50    97    98    2
    51   182   180   ar
    52   128   127    1
    53   177   176    1
    54   177   178   ar
    55   106   107    1
    56   208   209    1
    57   208   211    1
    58   180   178   ar
    59   176   173    1
    60   153   152    2
    61   152   157   am
    62   209   210    2
    63   130   127    1
    64   110   107    1
    65   110   111    1
    66   175   174    2
    67   127   126    1
    68    90    89    2
    69   212   211    1
    70   212   213    1
    71   107   108    1
    72   157   158    1
    73   173   174    1
    74   173   172    1
    75   109   108    2
    76    89    88    1
    77    82    81    2
    78   108   112   am
    79   172   163   am
    80   158   159    1
    81   126   124   am
    82   213   214    1
    83   214   215    2
    84    81    80    1
    85    81    87   am
    86    79    80    1
    87    80    83    1
    88    88    87    1
    89    88    91    1
    90   217   215    1
    91   112   113    1
    92   215   216    1
    93   159   161   am
    94   159   160    2
    95   161   162    1
    96    85    84    2
    97   124   125    2
    98   124   123    1
    99   163   162    1
   100   163   164    2
   101     9     7   ar
   102   113   114    1
   103   168   170   ar
   104   168   166   ar
   105    83    84    1
   106   162   165    1
   107   118   119    2
   108   118   117    1
   109     7     8   ar
   110     7     6    1
   111    91    92    1
   112    84    86   am
   113   165   166    1
   114   170   171   ar
   115   114   116   am
   116   114   115    2
   117     6     5    1
   118   116   117    1
   119   123   122    1
   120   166   167   ar
   121   117   120    1
   122    92    93    1
   123    92    94    1
   124   120   121    1
   125     5     2    1
   126   171   169   ar
   127   167   169   ar
   128    24    23    2
   129     2     1    1
   130     2     3    1
   131    25    23   am
   132    23    22    1
   133    37    35   ar
   134     3     4    2
   135     3    10   am
   136    51    50    1
   137    17    15    1
   138    77    76    1
   139    77    78    1
   140    10    11    1
   141    35    36   ar
   142    35    34    1
   143    22    19    1
   144    15    16    1
   145    15    14    1
   146    50    49    1
   147    19    18    1
   148    19    20    1
   149    76    75    1
   150    11    14    1
   151    11    12    1
   152    34    31    1
   153    75    72    1
   154   198   196    1
   155    49    48    1
   156   197   195    1
   157    12    13    2
   158    20    21    2
   159    20    26   am
   160    72    73    1
   161    72    71    1
   162    31    30    1
   163    31    32    1
   164    48    47    1
   165   196   195    1
   166    73    74    2
   167   195   192    1
   168    32    33    2
   169    32    38   am
   170    26    27    1
   171    38    39    1
   172    71    69   am
   173    70    69    2
   174    47    44    1
   175   192   193    1
   176   192   191    1
   177   190   188    1
   178    69    68    1
   179    39    42    1
   180    39    40    1
   181   193   194    2
   182    66    64    1
   183    27    28    1
   184    44    43    1
   185    44    45    1
   186   189   188    1
   187    28    29    2
   188   188   185    1
   189    68    67    1
   190    64    65    1
   191    64    61    1
   192    40    41    2
   193    67    62   am
   194    45    46    2
   195    58    57   ar
   196    62    63    2
   197    62    61    1
   198   185   186    1
   199   185   184    1
   200    61    60    1
   201   186   187    2
   202    59    57   ar
   203    57    56    1
   204    56    53    1
   205    52    53    1
   206    53    54    1
   207    55    54    2
