@<TRIPOS>MOLECULE
tmp/5tvyA00.pdb
 233 232 0 0 0
SMALL
GASTEIGER

@<TRIPOS>ATOM
      1  N         30.2970   32.5870    8.9680 N.3     8  TYR8       -0.1241
      2  CA        29.3020   31.6560    8.4490 C.3     8  TYR8        0.1605
      3  C         29.5840   31.3050    6.9980 C.2     8  TYR8        0.2264
      4  O         29.9140   32.1780    6.1810 O.2     8  TYR8       -0.2867
      5  CB        27.9160   32.2750    8.5860 C.3     8  TYR8        0.0534
      6  CG        26.7780   31.3620    8.1790 C.ar    8  TYR8       -0.0201
      7  CD1       26.5650   30.1610    8.8310 C.ar    8  TYR8       -0.0009
      8  CD2       25.9220   31.6870    7.1550 C.ar    8  TYR8       -0.0009
      9  CE1       25.5230   29.3150    8.4810 C.ar    8  TYR8        0.0417
     10  CE2       24.8830   30.8330    6.7870 C.ar    8  TYR8        0.0417
     11  CZ        24.6860   29.6570    7.4500 C.ar    8  TYR8        0.1957
     12  OH        23.6560   28.8280    7.0830 O.3     8  TYR8       -0.2866
     13  N         27.6730   29.3350    3.8490 N.3    10  LEU10      -0.1245
     14  CA        26.4130   28.8930    3.2740 C.3    10  LEU10       0.1561
     15  C         26.6910   28.1220    1.9960 C.2    10  LEU10       0.2260
     16  O         27.3470   28.6360    1.0900 O.2    10  LEU10      -0.2867
     17  CB        25.5540   30.1040    2.9450 C.3    10  LEU10       0.0270
     18  CG        24.2510   29.8100    2.2190 C.3    10  LEU10       0.0019
     19  CD1       23.2950   29.0080    3.0600 C.3    10  LEU10       0.0001
     20  CD2       23.6070   31.1310    1.7970 C.3    10  LEU10       0.0001
     21  N         24.0370   25.9740   -0.2220 N.3    12  PHE12      -0.1241
     22  CA        22.7100   25.4230   -0.4570 C.3    12  PHE12       0.1605
     23  C         22.5390   25.0820   -1.9270 C.2    12  PHE12       0.2264
     24  O         22.8090   25.9130   -2.7970 O.2    12  PHE12      -0.2867
     25  CB        21.6050   26.4050   -0.0620 C.3    12  PHE12       0.0534
     26  CG        20.2590   25.9340   -0.4940 C.ar   12  PHE12      -0.0203
     27  CD1       19.5640   25.0040    0.2550 C.ar   12  PHE12      -0.0042
     28  CD2       19.7150   26.3490   -1.6970 C.ar   12  PHE12      -0.0042
     29  CE1       18.3350   24.5300   -0.1780 C.ar   12  PHE12      -0.0003
     30  CE2       18.4910   25.8700   -2.1330 C.ar   12  PHE12      -0.0003
     31  CZ        17.8060   24.9640   -1.3660 C.ar   12  PHE12      -0.0000
     32  N         18.1660   25.5590   -8.2910 N.3    38  SER38      -0.1202
     33  CA        18.3650   26.7430   -7.4630 C.3    38  SER38       0.2020
     34  C         19.4760   26.4740   -6.4510 C.2    38  SER38       0.2619
     35  O         19.4780   25.4340   -5.7840 O.2    38  SER38      -0.2717
     36  CB        17.0620   27.0400   -6.7180 C.3    38  SER38       0.2103
     37  OG        17.2120   28.1430   -5.8460 O.3    38  SER38      -0.2182
     38  N         20.4110   27.4200   -6.3260 N.am   39  PHE39      -0.1961
     39  CA        21.5030   27.2910   -5.3730 C.3    39  PHE39       0.1771
     40  C         21.9060   28.6620   -4.8580 C.2    39  PHE39       0.2619
     41  O         21.6940   29.6850   -5.5140 O.2    39  PHE39      -0.2715
     42  CB        22.7150   26.5660   -5.9720 C.3    39  PHE39       0.0574
     43  CG        23.4620   27.3930   -6.9660 C.ar   39  PHE39      -0.0200
     44  CD1       24.5280   28.1720   -6.5720 C.ar   39  PHE39      -0.0042
     45  CD2       23.0720   27.4380   -8.3010 C.ar   39  PHE39      -0.0042
     46  CE1       25.2100   28.9550   -7.4930 C.ar   39  PHE39      -0.0003
     47  CE2       23.7400   28.2260   -9.2080 C.ar   39  PHE39      -0.0003
     48  CZ        24.7930   28.9880   -8.8060 C.ar   39  PHE39      -0.0000
     49  N         22.5230   28.6650   -3.6820 N.am   40  VAL40      -0.1977
     50  CA        23.1270   29.8720   -3.1380 C.3    40  VAL40       0.1596
     51  C         24.2980   29.4680   -2.2610 C.2    40  VAL40       0.2287
     52  O         24.1650   28.5880   -1.4050 O.2    40  VAL40      -0.2864
     53  CB        22.1070   30.7360   -2.3750 C.3    40  VAL40       0.0276
     54  CG1       21.5030   30.0040   -1.2540 C.3    40  VAL40       0.0022
     55  CG2       22.7520   32.0170   -1.9070 C.3    40  VAL40       0.0022
     56  N         20.6430   32.7620  -15.2330 N.3    66  TRP66      -0.1241
     57  CA        20.2980   33.4360  -13.9750 C.3    66  TRP66       0.1605
     58  C         21.4350   33.2110  -12.9760 C.2    66  TRP66       0.2264
     59  O         21.6410   32.0910  -12.4860 O.2    66  TRP66      -0.2867
     60  CB        18.9870   32.9030  -13.3950 C.3    66  TRP66       0.0550
     61  CG        17.7750   33.2590  -14.1940 C.ar   66  TRP66       0.0003
     62  CD1       17.0480   32.4350  -15.0010 C.ar   66  TRP66       0.0946
     63  CD2       17.1540   34.5400  -14.2760 C.ar   66  TRP66       0.0152
     64  NE1       16.0220   33.1310  -15.5970 N.ar   66  TRP66      -0.2442
     65  CE2       16.0650   34.4270  -15.1620 C.ar   66  TRP66       0.0810
     66  CE3       17.4230   35.7720  -13.6890 C.ar   66  TRP66       0.0012
     67  CZ2       15.2460   35.5030  -15.4580 C.ar   66  TRP66       0.0191
     68  CZ3       16.6080   36.8350  -13.9770 C.ar   66  TRP66       0.0001
     69  CH2       15.5400   36.6990  -14.8590 C.ar   66  TRP66       0.0015
     70  N         22.7300   38.3900    0.2790 N.3    72  VAL72      -0.1245
     71  CA        21.5300   37.5750    0.4840 C.3    72  VAL72       0.1561
     72  C         21.3400   37.4110    1.9820 C.2    72  VAL72       0.2260
     73  O         22.3010   37.1450    2.7160 O.2    72  VAL72      -0.2867
     74  CB        21.6580   36.1880   -0.1880 C.3    72  VAL72       0.0252
     75  CG1       20.4080   35.2990    0.0040 C.3    72  VAL72       0.0019
     76  CG2       21.9130   36.3540   -1.6730 C.3    72  VAL72       0.0019
     77  N         18.0620   36.7730    5.3360 N.3    74  TRP74      -0.1241
     78  CA        16.6950   36.5210    5.7510 C.3    74  TRP74       0.1605
     79  C         16.3900   37.1910    7.0790 C.2    74  TRP74       0.2264
     80  O         17.2690   37.3550    7.9340 O.2    74  TRP74      -0.2867
     81  CB        16.4420   35.0290    5.9470 C.3    74  TRP74       0.0550
     82  CG        16.5690   34.2090    4.7410 C.ar   74  TRP74       0.0003
     83  CD1       17.7300   33.7560    4.1890 C.ar   74  TRP74       0.0946
     84  CD2       15.5100   33.6880    3.9290 C.ar   74  TRP74       0.0152
     85  NE1       17.4680   32.9940    3.0900 N.ar   74  TRP74      -0.2442
     86  CE2       16.1100   32.9340    2.9040 C.ar   74  TRP74       0.0810
     87  CE3       14.1160   33.7910    3.9660 C.ar   74  TRP74       0.0012
     88  CZ2       15.3640   32.2890    1.9290 C.ar   74  TRP74       0.0191
     89  CZ3       13.3820   33.1400    3.0030 C.ar   74  TRP74       0.0001
     90  CH2       14.0050   32.4110    1.9930 C.ar   74  TRP74       0.0015
     91  N         17.7970   40.7600   -0.9470 N.3    83  TYR83      -0.1241
     92  CA        18.8660   40.6700   -1.9320 C.3    83  TYR83       0.1605
     93  C         19.3430   42.0720   -2.2860 C.2    83  TYR83       0.2264
     94  O         18.5280   42.9570   -2.5820 O.2    83  TYR83      -0.2867
     95  CB        18.3530   40.0360   -3.2330 C.3    83  TYR83       0.0534
     96  CG        17.6990   38.6940   -3.0140 C.ar   83  TYR83      -0.0201
     97  CD1       16.3660   38.6180   -2.6410 C.ar   83  TYR83      -0.0009
     98  CD2       18.3990   37.5240   -3.1430 C.ar   83  TYR83      -0.0009
     99  CE1       15.7490   37.4290   -2.3930 C.ar   83  TYR83       0.0417
    100  CE2       17.7860   36.2960   -2.8790 C.ar   83  TYR83       0.0417
    101  CZ        16.4510   36.2640   -2.5220 C.ar   83  TYR83       0.1957
    102  OH        15.8080   35.0610   -2.2790 O.3    83  TYR83      -0.2866
    103  N         17.6360   40.3800  -12.8650 N.3    93  TRP93      -0.1227
    104  CA        16.6240   40.1750  -11.8380 C.3    93  TRP93       0.1737
    105  C         15.7050   41.3840  -11.7200 C.2    93  TRP93       0.2596
    106  O         16.1800   42.5170  -11.6000 O.2    93  TRP93      -0.2718
    107  CB        17.3480   39.9470  -10.4950 C.3    93  TRP93       0.0564
    108  CG        18.3430   38.8240  -10.5350 C.ar   93  TRP93       0.0003
    109  CD1       19.6640   38.9050  -10.8920 C.ar   93  TRP93       0.0946
    110  CD2       18.0760   37.4430  -10.2800 C.ar   93  TRP93       0.0152
    111  NE1       20.2380   37.6650  -10.8520 N.ar   93  TRP93      -0.2442
    112  CE2       19.2820   36.7480  -10.4850 C.ar   93  TRP93       0.0810
    113  CE3       16.9390   36.7310   -9.8860 C.ar   93  TRP93       0.0012
    114  CZ2       19.3900   35.3830  -10.2940 C.ar   93  TRP93       0.0191
    115  CZ3       17.0490   35.3760   -9.6920 C.ar   93  TRP93       0.0001
    116  CH2       18.2630   34.7110   -9.9070 C.ar   93  TRP93       0.0015
    117  N         14.4000   41.1360  -11.7350 N.am   94  THR94      -0.1939
    118  CA        13.3970   42.1750  -11.5890 C.3    94  THR94       0.2028
    119  C         12.2010   41.6120  -10.8200 C.2    94  THR94       0.2642
    120  O         12.2140   40.4720  -10.3310 O.2    94  THR94      -0.2714
    121  CB        12.9470   42.7300  -12.9410 C.3    94  THR94       0.1808
    122  OG1       12.2680   41.6990  -13.6650 O.3    94  THR94      -0.2208
    123  CG2       14.0850   43.3010  -13.7560 C.3    94  THR94       0.0379
    124  N         11.1560   42.4130  -10.7410 N.am   95  GLY95      -0.1954
    125  CA         9.9540   42.0720  -10.0280 C.3    95  GLY95       0.1869
    126  C          8.9990   43.2440  -10.1300 C.2    95  GLY95       0.2309
    127  O          9.0150   43.9800  -11.1230 O.2    95  GLY95      -0.2863
    128  N          8.9870   40.6160   -4.9670 N.3   113  THR113     -0.1218
    129  CA         8.4050   39.4150   -5.5510 C.3   113  THR113      0.1862
    130  C          7.8950   38.5540   -4.4020 C.2   113  THR113      0.2287
    131  O          8.2220   38.7870   -3.2380 O.2   113  THR113     -0.2866
    132  CB         9.4240   38.6190   -6.3980 C.3   113  THR113      0.1770
    133  OG1       10.5550   38.2890   -5.5900 O.3   113  THR113     -0.2211
    134  CG2        9.9050   39.4160   -7.5920 C.3   113  THR113      0.0375
    135  N          7.4510   34.2970   -3.5140 N.3   115  ARG115     -0.1245
    136  CA         7.6750   32.9080   -3.8830 C.3   115  ARG115      0.1563
    137  C          6.6820   32.0190   -3.1480 C.2   115  ARG115      0.2260
    138  O          6.3630   32.2630   -1.9820 O.2   115  ARG115     -0.2867
    139  CB         9.0820   32.4690   -3.4960 C.3   115  ARG115      0.0307
    140  CG        10.1380   33.1770   -4.2800 C.3   115  ARG115      0.0489
    141  CD        10.4450   32.4530   -5.5730 C.3   115  ARG115      0.2205
    142  NE        11.3740   31.3470   -5.3450 N.pl3 115  ARG115     -0.0865
    143  CZ        11.4320   30.2390   -6.0770 C.cat 115  ARG115      0.5346
    144  NH1       10.5950   30.0540   -7.0920 N.pl3 115  ARG115      0.1354
    145  NH2       12.3210   29.2970   -5.7830 N.pl3 115  ARG115      0.1354
    146  N         11.8180   26.5970   -1.4830 N.3   119  PRO119     -0.2102
    147  CA        12.7060   26.4410   -0.3330 C.3   119  PRO119      0.1504
    148  C         13.0110   27.7700    0.3430 C.2   119  PRO119      0.2576
    149  O         13.2160   28.8030   -0.3040 O.2   119  PRO119     -0.2718
    150  CB        13.9700   25.8240   -0.9450 C.3   119  PRO119      0.0282
    151  CG        13.4950   25.1220   -2.1370 C.3   119  PRO119      0.0208
    152  CD        12.4260   26.0200   -2.6900 C.3   119  PRO119      0.0893
    153  N         13.0710   27.7190    1.6660 N.am  120  SER120     -0.1938
    154  CA        13.4860   28.8440    2.4800 C.3   120  SER120      0.2055
    155  C         14.1910   28.2840    3.7050 C.2   120  SER120      0.2642
    156  O         14.3280   27.0720    3.8720 O.2   120  SER120     -0.2714
    157  CB        12.2790   29.6590    2.9470 C.3   120  SER120      0.2130
    158  OG        11.5450   28.9240    3.9050 O.3   120  SER120     -0.2179
    159  N         14.6110   29.1830    4.5970 N.am  121  ILE121     -0.1977
    160  CA        15.1650   28.7380    5.8690 C.3   121  ILE121      0.1596
    161  C         14.1430   28.0360    6.7550 C.2   121  ILE121      0.2287
    162  O         14.5280   27.4550    7.7780 O.2   121  ILE121     -0.2864
    163  CB        15.8510   29.9050    6.6140 C.3   121  ILE121      0.0276
    164  CG1       14.8620   31.0330    6.8990 C.3   121  ILE121      0.0022
    165  CG2       17.0520   30.4240    5.8240 C.3   121  ILE121      0.0022
    166  CD1       15.3990   32.1170    7.8060 C.3   121  ILE121      0.0001
    167  N          7.0370   33.1040    0.7720 N.3   128  PHE128     -0.1241
    168  CA         7.7460   34.2270    1.3790 C.3   128  PHE128      0.1605
    169  C          7.8560   35.3690    0.3900 C.2   128  PHE128      0.2264
    170  O          7.9580   35.1650   -0.8140 O.2   128  PHE128     -0.2867
    171  CB         9.1370   33.8500    1.9100 C.3   128  PHE128      0.0534
    172  CG        10.0200   33.1650    0.9140 C.ar  128  PHE128     -0.0203
    173  CD1       10.9310   33.8910    0.1650 C.ar  128  PHE128     -0.0042
    174  CD2        9.9590   31.7910    0.7500 C.ar  128  PHE128     -0.0042
    175  CE1       11.7530   33.2650   -0.7450 C.ar  128  PHE128     -0.0003
    176  CE2       10.7760   31.1590   -0.1620 C.ar  128  PHE128     -0.0003
    177  CZ        11.6730   31.8880   -0.9050 C.ar  128  PHE128     -0.0000
    178  N         10.0550   38.5270   -1.1030 N.3   130  GLN130     -0.1245
    179  CA        11.4450   38.8590   -1.3770 C.3   130  GLN130      0.1566
    180  C         11.5440   40.3510   -1.6530 C.2   130  GLN130      0.2260
    181  O         10.7680   40.9110   -2.4400 O.2   130  GLN130     -0.2867
    182  CB        11.9250   38.0870   -2.6010 C.3   130  GLN130      0.0367
    183  CG        11.9110   36.5650   -2.4310 C.3   130  GLN130      0.0905
    184  CD        12.1520   35.8450   -3.7400 C.2   130  GLN130      0.2608
    185  OE1       11.3580   35.9610   -4.6770 O.2   130  GLN130     -0.2717
    186  NE2       13.2520   35.1120   -3.8230 N.am  130  GLN130     -0.0878
    187  N         14.2160   43.2470   -3.0630 N.3   132  TRP132     -0.1241
    188  CA        15.3680   43.3380   -3.9390 C.3   132  TRP132      0.1605
    189  C         15.8130   44.7740   -4.1210 C.2   132  TRP132      0.2264
    190  O         14.9970   45.6530   -4.3940 O.2   132  TRP132     -0.2867
    191  CB        15.0340   42.8260   -5.3620 C.3   132  TRP132      0.0550
    192  CG        14.4880   41.4490   -5.4730 C.ar  132  TRP132      0.0003
    193  CD1       13.2090   41.0670   -5.2250 C.ar  132  TRP132      0.0946
    194  CD2       15.2000   40.2700   -5.8620 C.ar  132  TRP132      0.0152
    195  NE1       13.0740   39.7170   -5.4150 N.ar  132  TRP132     -0.2442
    196  CE2       14.2780   39.2030   -5.8160 C.ar  132  TRP132      0.0810
    197  CE3       16.5130   40.0130   -6.2780 C.ar  132  TRP132      0.0012
    198  CZ2       14.6340   37.9030   -6.1430 C.ar  132  TRP132      0.0191
    199  CZ3       16.8660   38.7180   -6.6120 C.ar  132  TRP132      0.0001
    200  CH2       15.9330   37.6760   -6.5240 C.ar  132  TRP132      0.0015
    201  N         20.6800   34.4600    8.6210 N.3   169  TYR169     -0.1241
    202  CA        21.9950   34.6750    8.0260 C.3   169  TYR169      0.1605
    203  C         22.0050   35.8810    7.0900 C.2   169  TYR169      0.2264
    204  O         20.9740   36.3440    6.5920 O.2   169  TYR169     -0.2867
    205  CB        22.5100   33.4290    7.2980 C.3   169  TYR169      0.0534
    206  CG        21.8110   32.9850    6.0220 C.ar  169  TYR169     -0.0201
    207  CD1       21.9270   33.7050    4.8480 C.ar  169  TYR169     -0.0009
    208  CD2       21.1050   31.7850    5.9680 C.ar  169  TYR169     -0.0009
    209  CE1       21.3320   33.2610    3.6620 C.ar  169  TYR169      0.0417
    210  CE2       20.5240   31.3290    4.7730 C.ar  169  TYR169      0.0417
    211  CZ        20.6330   32.0780    3.6420 C.ar  169  TYR169      0.1957
    212  OH        20.0620   31.6280    2.4790 O.3   169  TYR169     -0.2866
    213  N         24.5020   33.2220   -6.2460 N.3   175  ALA175     -0.1231
    214  CA        23.2510   32.4910   -6.3420 C.3   175  ALA175      0.1694
    215  C         22.9130   32.2700   -7.8050 C.2   175  ALA175      0.2593
    216  O         23.3280   33.0430   -8.6810 O.2   175  ALA175     -0.2718
    217  CB        22.1060   33.2490   -5.6690 C.3   175  ALA175      0.0304
    218  N         22.1440   31.2300   -8.0840 N.am  176  GLY176     -0.1942
    219  CA        21.7760   31.0210   -9.4640 C.3   176  GLY176      0.2014
    220  C         20.5760   30.1190   -9.5850 C.2   176  GLY176      0.2638
    221  O         20.1070   29.4980   -8.6280 O.2   176  GLY176     -0.2714
    222  N         20.0720   30.0600  -10.8120 N.am  177  TYR177     -0.1973
    223  CA        18.9060   29.2490  -11.1440 C.3   177  TYR177      0.1639
    224  C         19.0480   28.7640  -12.5740 C.2   177  TYR177      0.2290
    225  O         19.1090   29.5690  -13.5020 O.2   177  TYR177     -0.2864
    226  CB        17.6340   30.0780  -11.0280 C.3   177  TYR177      0.0560
    227  CG        16.3690   29.2500  -11.1690 C.ar  177  TYR177     -0.0198
    228  CD1       16.0490   28.2660  -10.2350 C.ar  177  TYR177     -0.0009
    229  CD2       15.5050   29.4390  -12.2180 C.ar  177  TYR177     -0.0009
    230  CE1       14.8980   27.5080  -10.3350 C.ar  177  TYR177      0.0417
    231  CE2       14.3240   28.6780  -12.3300 C.ar  177  TYR177      0.0417
    232  CZ        14.0420   27.7170  -11.3780 C.ar  177  TYR177      0.1957
    233  OH        12.8940   26.9550  -11.4600 O.3   177  TYR177     -0.2866
@<TRIPOS>BOND
     1    64    65   ar
     2    64    62   ar
     3    67    65   ar
     4    67    69   ar
     5    56    57    1
     6    65    63   ar
     7    62    61   ar
     8    69    68   ar
     9    63    61   ar
    10    63    66   ar
    11    61    60    1
    12    68    66   ar
    13    57    60    1
    14    57    58    1
    15   123   121    1
    16   122   121    1
    17   225   224    2
    18    58    59    2
    19   121   118    1
    20   103   104    1
    21   224   223    1
    22   231   229   ar
    23   231   232   ar
    24   229   227   ar
    25   104   105    1
    26   104   107    1
    27   117   105   am
    28   117   118    1
    29   105   106    2
    30   118   119    1
    31   233   232    1
    32   232   230   ar
    33   227   226    1
    34   227   228   ar
    35   223   226    1
    36   223   222    1
    37   127   126    2
    38   109   111   ar
    39   109   108   ar
    40   111   112   ar
    41   119   124   am
    42   119   120    2
    43   222   220   am
    44   124   125    1
    45   108   107    1
    46   108   110   ar
    47   112   114   ar
    48   112   110   ar
    49   230   228   ar
    50   114   116   ar
    51   110   113   ar
    52   126   125    1
    53   116   115   ar
    54   113   115   ar
    55   220   219    1
    56   220   221    2
    57   219   218    1
    58    47    48   ar
    59    47    45   ar
    60    48    46   ar
    61   216   215    2
    62    45    43   ar
    63    32    33    1
    64   218   215   am
    65   215   214    1
    66   134   132    1
    67    46    44   ar
    68    33    36    1
    69    33    34    1
    70   144   143    1
    71    43    44   ar
    72    43    42    1
    73    36    37    1
    74   199   200   ar
    75   199   197   ar
    76   200   198   ar
    77    34    38   am
    78    34    35    2
    79   132   133    1
    80   132   129    1
    81   214   213    1
    82   214   217    1
    83    38    39    1
    84   197   194   ar
    85   198   196   ar
    86   143   145    1
    87   143   142    2
    88    42    39    1
    89   194   196   ar
    90   194   192   ar
    91   196   195   ar
    92   141   142    1
    93   141   140    1
    94   129   128    1
    95   129   130    1
    96    41    40    2
    97   192   191    1
    98   192   193   ar
    99   195   193   ar
   100    39    40    1
   101   191   188    1
   102    40    49   am
   103   185   184    2
   104   130   131    2
   105   190   189    2
   106   140   139    1
   107   189   188    1
   108   188   187    1
   109   136   135    1
   110   136   139    1
   111   136   137    1
   112   186   184   am
   113   184   183    1
   114    49    50    1
   115    95    96    1
   116    95    92    1
   117   137   138    2
   118    98    96   ar
   119    98   100   ar
   120    50    53    1
   121    50    51    1
   122    96    97   ar
   123   100   101   ar
   124    24    23    2
   125   152   151    1
   126   152   146    1
   127    97    99   ar
   128   182   183    1
   129   182   179    1
   130    94    93    2
   131   101    99   ar
   132   101   102    1
   133   181   180    2
   134    53    55    1
   135    53    54    1
   136    93    92    1
   137    51    52    2
   138   151   150    1
   139    30    28   ar
   140    30    31   ar
   141    92    91    1
   142    23    22    1
   143    28    26   ar
   144    76    74    1
   145   180   179    1
   146   146   147    1
   147   179   178    1
   148    31    29   ar
   149   150   147    1
   150   177   175   ar
   151   177   176   ar
   152   170   169    2
   153   175   173   ar
   154    26    25    1
   155    26    27   ar
   156    22    21    1
   157    22    25    1
   158   147   148    1
   159   149   148    2
   160    74    75    1
   161    74    71    1
   162    29    27   ar
   163   176   174   ar
   164   173   172   ar
   165    70    71    1
   166   148   153   am
   167   169   168    1
   168    71    72    1
   169   174   172   ar
   170   167   168    1
   171   172   171    1
   172    16    15    2
   173   168   171    1
   174   153   154    1
   175    20    18    1
   176    88    90   ar
   177    88    86   ar
   178    72    73    2
   179    90    89   ar
   180    15    14    1
   181    18    17    1
   182    18    19    1
   183   212   211    1
   184   154   157    1
   185   154   155    1
   186    86    85   ar
   187    86    84   ar
   188    17    14    1
   189   157   158    1
   190    89    87   ar
   191    85    83   ar
   192    14    13    1
   193   211   209   ar
   194   211   210   ar
   195   209   207   ar
   196   155   156    2
   197   155   159   am
   198    84    87   ar
   199    84    82   ar
   200    83    82   ar
   201   159   160    1
   202    82    81    1
   203   210   208   ar
   204   207   206   ar
   205    77    78    1
   206    78    81    1
   207    78    79    1
   208   165   163    1
   209   160   163    1
   210   160   161    1
   211   208   206   ar
   212   206   205    1
   213     4     3    2
   214   204   203    2
   215   163   164    1
   216   161   162    2
   217    10     8   ar
   218    10    11   ar
   219   164   166    1
   220     3     2    1
   221    79    80    2
   222    12    11    1
   223   203   202    1
   224     8     6   ar
   225   205   202    1
   226    11     9   ar
   227   202   201    1
   228     6     5    1
   229     6     7   ar
   230     2     5    1
   231     2     1    1
   232     9     7   ar
