@<TRIPOS>MOLECULE
tmp/5tw3A00.pdb
 185 181 0 0 0
SMALL
GASTEIGER

@<TRIPOS>ATOM
      1  N        463.1830   -7.9280  126.5370 N.3    93  PRO93      -0.2116
      2  CA       462.3080   -8.7140  125.6610 C.3    93  PRO93       0.1372
      3  C        461.4330   -9.6840  126.4440 C.2    93  PRO93       0.2244
      4  O        461.9120  -10.3440  127.3650 O.2    93  PRO93      -0.2868
      5  CB       463.2940   -9.4650  124.7550 C.3    93  PRO93       0.0268
      6  CG       464.6010   -9.4170  125.4680 C.3    93  PRO93       0.0207
      7  CD       464.6060   -8.1270  126.2170 C.3    93  PRO93       0.0892
      8  N        459.5360  -14.0300  121.8170 N.3    98  LEU98      -0.1231
      9  CA       460.6570  -14.7650  121.2440 C.3    98  LEU98       0.1693
     10  C        460.1590  -15.8410  120.2840 C.2    98  LEU98       0.2592
     11  O        458.9910  -16.2290  120.3210 O.2    98  LEU98      -0.2718
     12  CB       461.5110  -15.3960  122.3420 C.3    98  LEU98       0.0284
     13  CG       462.0830  -14.4630  123.4100 C.3    98  LEU98       0.0019
     14  CD1      462.8520  -15.2590  124.4510 C.3    98  LEU98       0.0001
     15  CD2      462.9700  -13.3950  122.7900 C.3    98  LEU98       0.0001
     16  N        461.0480  -16.3110  119.4170 N.am   99  LYS99      -0.1966
     17  CA       460.6980  -17.3540  118.4630 C.3    99  LYS99       0.1728
     18  C        461.5940  -18.5610  118.6690 C.2    99  LYS99       0.2616
     19  O        462.8010  -18.4180  118.8790 O.2    99  LYS99      -0.2715
     20  CB       460.8120  -16.8420  117.0280 C.3    99  LYS99       0.0311
     21  CG       460.0650  -15.5390  116.7800 C.3    99  LYS99       0.0038
     22  CD       460.4560  -14.9120  115.4510 C.3    99  LYS99       0.0206
     23  CE       459.9480  -13.4850  115.3430 C.3    99  LYS99       0.1093
     24  NZ       460.3420  -12.8610  114.0470 N.3    99  LYS99      -0.1314
     25  N        460.9870  -19.7440  118.6140 N.am  100  LYS100     -0.1963
     26  CA       461.6870  -21.0080  118.8150 C.3   100  LYS100      0.1728
     27  C        462.9060  -21.1510  117.9040 C.2   100  LYS100      0.2616
     28  O        462.8110  -21.0100  116.6840 O.2   100  LYS100     -0.2715
     29  CB       460.7220  -22.1780  118.5920 C.3   100  LYS100      0.0311
     30  CG       461.3730  -23.5520  118.5650 C.3   100  LYS100      0.0038
     31  CD       462.1300  -23.8260  119.8500 C.3   100  LYS100      0.0206
     32  CE       462.9650  -25.0900  119.7490 C.3   100  LYS100      0.1093
     33  NZ       464.0280  -25.1100  120.7930 N.3   100  LYS100     -0.1314
     34  N        464.0540  -21.4120  118.5180 N.am  101  LYS101     -0.1977
     35  CA       465.2740  -21.7220  117.7870 C.3   101  LYS101      0.1596
     36  C        465.7550  -23.1080  118.1970 C.2   101  LYS101      0.2287
     37  O        465.6620  -23.4760  119.3690 O.2   101  LYS101     -0.2864
     38  CB       466.3600  -20.6770  118.0550 C.3   101  LYS101      0.0298
     39  CG       466.0770  -19.3100  117.4550 C.3   101  LYS101      0.0038
     40  CD       465.7380  -19.4130  115.9770 C.3   101  LYS101      0.0206
     41  CE       465.7050  -18.0460  115.3190 C.3   101  LYS101      0.1093
     42  NZ       465.1540  -18.1100  113.9380 N.3   101  LYS101     -0.1314
     43  N        470.0610  -22.5690  121.4630 N.3   104  VAL104     -0.1245
     44  CA       470.2490  -21.2870  122.1380 C.3   104  VAL104      0.1561
     45  C        471.4260  -21.3460  123.1150 C.2   104  VAL104      0.2260
     46  O        471.5120  -22.2480  123.9470 O.2   104  VAL104     -0.2867
     47  CB       468.9740  -20.8510  122.9020 C.3   104  VAL104      0.0252
     48  CG1      469.2490  -19.6100  123.7320 C.3   104  VAL104      0.0019
     49  CG2      467.8190  -20.6040  121.9370 C.3   104  VAL104      0.0019
     50  N        474.0850  -19.1590  125.8570 N.3   106  VAL106     -0.1245
     51  CA       474.2930  -17.9890  126.6970 C.3   106  VAL106      0.1561
     52  C        475.7800  -17.7300  126.8690 C.2   106  VAL106      0.2260
     53  O        476.5090  -18.5840  127.3690 O.2   106  VAL106     -0.2867
     54  CB       473.6390  -18.1550  128.0840 C.3   106  VAL106      0.0252
     55  CG1      474.0660  -17.0300  129.0140 C.3   106  VAL106      0.0019
     56  CG2      472.1300  -18.2030  127.9520 C.3   106  VAL106      0.0019
     57  N        470.9560  -15.5150  115.1630 N.3   177  VAL177     -0.1245
     58  CA       470.3640  -14.3630  115.8280 C.3   177  VAL177      0.1561
     59  C        471.0010  -14.0960  117.1860 C.2   177  VAL177      0.2260
     60  O        470.8840  -14.9020  118.1030 O.2   177  VAL177     -0.2867
     61  CB       468.8470  -14.5540  116.0150 C.3   177  VAL177      0.0252
     62  CG1      468.2390  -13.3490  116.6990 C.3   177  VAL177      0.0019
     63  CG2      468.1780  -14.8070  114.6760 C.3   177  VAL177      0.0019
     64  N        471.2190  -11.7780  120.5750 N.3   179  TYR179     -0.1241
     65  CA       470.5970  -10.7850  121.4370 C.3   179  TYR179      0.1605
     66  C        471.6350  -10.2420  122.4030 C.2   179  TYR179      0.2264
     67  O        472.4050  -11.0000  122.9800 O.2   179  TYR179     -0.2867
     68  CB       469.4160  -11.3750  122.2090 C.3   179  TYR179      0.0534
     69  CG       468.1730  -11.5850  121.3710 C.ar  179  TYR179     -0.0201
     70  CD1      467.0990  -12.3010  121.8620 C.ar  179  TYR179     -0.0009
     71  CD2      468.0780  -11.0700  120.0890 C.ar  179  TYR179     -0.0009
     72  CE1      465.9610  -12.5000  121.1060 C.ar  179  TYR179      0.0417
     73  CE2      466.9400  -11.2630  119.3240 C.ar  179  TYR179      0.0417
     74  CZ       465.8850  -11.9810  119.8420 C.ar  179  TYR179      0.1957
     75  OH       464.7510  -12.1780  119.0920 O.3   179  TYR179     -0.2866
     76  N        475.6920   -9.9700  128.9700 N.3   184  ASP184     -0.1239
     77  CA       475.3990  -11.2310  128.3040 C.3   184  ASP184      0.1674
     78  C        475.0500  -11.0910  126.8240 C.2   184  ASP184      0.2266
     79  O        474.5720  -10.0480  126.3690 O.2   184  ASP184     -0.2867
     80  CB       474.2450  -11.9470  129.0170 C.3   184  ASP184      0.1410
     81  CG       474.5530  -12.2700  130.4710 C.2   184  ASP184      0.3668
     82  OD1      475.7190  -12.1120  130.8950 O.co2 184  ASP184     -0.2456
     83  OD2      473.6220  -12.6940  131.1910 O.co2 184  ASP184     -0.2456
     84  N        472.9310  -13.6570  123.9180 N.3   186  TYR186     -0.1241
     85  CA       472.1010  -14.8440  123.7790 C.3   186  TYR186      0.1605
     86  C        471.9540  -15.1900  122.3050 C.2   186  TYR186      0.2264
     87  O        471.2400  -14.5120  121.5670 O.2   186  TYR186     -0.2867
     88  CB       470.7330  -14.6280  124.4290 C.3   186  TYR186      0.0534
     89  CG       470.8190  -14.0380  125.8200 C.ar  186  TYR186     -0.0201
     90  CD1      471.6440  -14.6030  126.7840 C.ar  186  TYR186     -0.0009
     91  CD2      470.0970  -12.9010  126.1620 C.ar  186  TYR186     -0.0009
     92  CE1      471.7350  -14.0620  128.0530 C.ar  186  TYR186      0.0417
     93  CE2      470.1820  -12.3540  127.4270 C.ar  186  TYR186      0.0417
     94  CZ       471.0020  -12.9370  128.3690 C.ar  186  TYR186      0.1957
     95  OH       471.0910  -12.3940  129.6300 O.3   186  TYR186     -0.2866
     96  N        470.8410  -17.5320  119.2640 N.3   188  GLY188     -0.1225
     97  CA       469.9530  -18.5800  118.7980 C.3   188  GLY188      0.1811
     98  C        470.1660  -18.8970  117.3300 C.2   188  GLY188      0.2280
     99  O        470.5760  -18.0330  116.5560 O.2   188  GLY188     -0.2866
    100  N        475.8130  -22.2100  131.4000 N.3   221  LYS221     -0.1245
    101  CA       474.3650  -22.2890  131.5210 C.3   221  LYS221      0.1561
    102  C        473.7490  -23.2070  130.4680 C.2   221  LYS221      0.2260
    103  O        474.0710  -23.1260  129.2810 O.2   221  LYS221     -0.2867
    104  CB       473.7520  -20.8880  131.4400 C.3   221  LYS221      0.0271
    105  CG       474.1790  -19.9860  132.5900 C.3   221  LYS221      0.0035
    106  CD       473.7490  -18.5450  132.3760 C.3   221  LYS221      0.0206
    107  CE       474.3870  -17.6280  133.4110 C.3   221  LYS221      0.1093
    108  NZ       474.0070  -16.2000  133.2170 N.3   221  LYS221     -0.1314
    109  N        469.7540  -25.0970  129.3830 N.3   223  PRO223     -0.2116
    110  CA       468.3120  -25.0240  129.6460 C.3   223  PRO223      0.1372
    111  C        467.8980  -25.9350  130.8000 C.2   223  PRO223      0.2244
    112  O        468.4490  -27.0300  130.9320 O.2   223  PRO223     -0.2868
    113  CB       467.6820  -25.4860  128.3250 C.3   223  PRO223      0.0268
    114  CG       468.7910  -26.1660  127.5710 C.3   223  PRO223      0.0207
    115  CD       470.0430  -25.4710  127.9890 C.3   223  PRO223      0.0892
    116  N        466.7980  -21.8490  131.4150 N.3   225  PHE225     -0.1227
    117  CA       467.5220  -20.6420  131.7800 C.3   225  PHE225      0.1736
    118  C        466.7140  -19.7890  132.7540 C.2   225  PHE225      0.2595
    119  O        465.5930  -19.3750  132.4550 O.2   225  PHE225     -0.2718
    120  CB       467.8700  -19.8260  130.5320 C.3   225  PHE225      0.0547
    121  CG       468.7100  -20.5720  129.5310 C.ar  225  PHE225     -0.0202
    122  CD1      470.0690  -20.7470  129.7400 C.ar  225  PHE225     -0.0042
    123  CD2      468.1430  -21.0860  128.3750 C.ar  225  PHE225     -0.0042
    124  CE1      470.8450  -21.4270  128.8220 C.ar  225  PHE225     -0.0003
    125  CE2      468.9150  -21.7660  127.4510 C.ar  225  PHE225     -0.0003
    126  CZ       470.2680  -21.9350  127.6760 C.ar  225  PHE225     -0.0000
    127  N        467.2910  -19.5380  133.9240 N.am  226  LEU226     -0.1966
    128  CA       466.6620  -18.6820  134.9210 C.3   226  LEU226      0.1728
    129  C        467.0300  -17.2330  134.6400 C.2   226  LEU226      0.2616
    130  O        468.0910  -16.7620  135.0500 O.2   226  LEU226     -0.2715
    131  CB       467.0940  -19.0840  136.3310 C.3   226  LEU226      0.0311
    132  CG       467.0580  -20.5810  136.6500 C.3   226  LEU226      0.0022
    133  CD1      467.4300  -20.8230  138.1040 C.3   226  LEU226      0.0001
    134  CD2      465.6930  -21.1790  136.3360 C.3   226  LEU226      0.0001
    135  N        466.1490  -16.5280  133.9390 N.am  227  TRP227     -0.1974
    136  CA       466.4790  -15.1970  133.4380 C.3   227  TRP227      0.1640
    137  C        465.4230  -14.1490  133.7750 C.2   227  TRP227      0.2290
    138  O        464.2980  -14.2140  133.2840 O.2   227  TRP227     -0.2864
    139  CB       466.6860  -15.2620  131.9230 C.3   227  TRP227      0.0576
    140  CG       466.9490  -13.9400  131.2740 C.ar  227  TRP227      0.0006
    141  CD1      468.1170  -13.2340  131.2940 C.ar  227  TRP227      0.0946
    142  CD2      466.0280  -13.1740  130.4890 C.ar  227  TRP227      0.0152
    143  NE1      467.9770  -12.0710  130.5760 N.ar  227  TRP227     -0.2442
    144  CE2      466.7040  -12.0100  130.0710 C.ar  227  TRP227      0.0810
    145  CE3      464.6960  -13.3560  130.1030 C.ar  227  TRP227      0.0012
    146  CZ2      466.0930  -11.0320  129.2860 C.ar  227  TRP227      0.0191
    147  CZ3      464.0920  -12.3860  129.3230 C.ar  227  TRP227      0.0001
    148  CH2      464.7910  -11.2380  128.9220 C.ar  227  TRP227      0.0015
    149  N        463.1550  -20.1190  131.0750 N.3   232  LEU232     -0.1231
    150  CA       463.1980  -20.3060  129.6310 C.3   232  LEU232      0.1693
    151  C        463.5500  -21.7470  129.2710 C.2   232  LEU232      0.2592
    152  O        464.6850  -22.1850  129.4510 O.2   232  LEU232     -0.2718
    153  CB       464.2040  -19.3420  128.9980 C.3   232  LEU232      0.0284
    154  CG       463.9890  -17.8500  129.2750 C.3   232  LEU232      0.0019
    155  CD1      465.1140  -17.0210  128.6810 C.3   232  LEU232      0.0001
    156  CD2      462.6420  -17.3820  128.7430 C.3   232  LEU232      0.0001
    157  N        462.5590  -22.4730  128.7650 N.am  233  HIS233     -0.1962
    158  CA       462.7120  -23.8710  128.3710 C.3   233  HIS233      0.1772
    159  C        462.6460  -23.9960  126.8480 C.2   233  HIS233      0.2462
    160  O        461.8930  -23.2680  126.1990 O.2   233  HIS233     -0.2730
    161  CB       461.6240  -24.7420  129.0170 C.3   233  HIS233      0.0785
    162  CG       461.5680  -24.6460  130.5110 C.ar  233  HIS233      0.0821
    163  ND1      461.8370  -25.7180  131.3350 N.ar  233  HIS233     -0.2267
    164  CD2      461.2610  -23.6110  131.3290 C.ar  233  HIS233      0.1154
    165  CE1      461.7040  -25.3450  132.5960 C.ar  233  HIS233      0.1986
    166  NE2      461.3570  -24.0710  132.6200 N.ar  233  HIS233     -0.2212
    167  N        463.4210  -24.9330  126.2790 N.am  234  PRO234     -0.2727
    168  CA       463.5560  -25.1590  124.8340 C.3   234  PRO234      0.1402
    169  C        462.2700  -25.0140  124.0120 C.2   234  PRO234      0.2269
    170  O        462.3340  -24.5030  122.8970 O.2   234  PRO234     -0.2865
    171  CB       464.0660  -26.5970  124.7690 C.3   234  PRO234      0.0296
    172  CG       464.9190  -26.7130  125.9850 C.3   234  PRO234      0.0237
    173  CD       464.2550  -25.8740  127.0510 C.3   234  PRO234      0.0939
    174  N        456.1160  -20.0840  122.6560 N.3   316  TYR316     -0.1241
    175  CA       456.8210  -19.0460  121.9170 C.3   316  TYR316      0.1605
    176  C        456.0260  -18.6220  120.6860 C.2   316  TYR316      0.2264
    177  O        455.0250  -19.2540  120.3340 O.2   316  TYR316     -0.2867
    178  CB       458.2110  -19.5350  121.5170 C.3   316  TYR316      0.0534
    179  CG       459.1390  -19.7420  122.6920 C.ar  316  TYR316     -0.0201
    180  CD1      459.8640  -20.9180  122.8310 C.ar  316  TYR316     -0.0009
    181  CD2      459.2950  -18.7590  123.6600 C.ar  316  TYR316     -0.0009
    182  CE1      460.7150  -21.1100  123.9060 C.ar  316  TYR316      0.0417
    183  CE2      460.1450  -18.9400  124.7350 C.ar  316  TYR316      0.0417
    184  CZ       460.8520  -20.1170  124.8540 C.ar  316  TYR316      0.1957
    185  OH       461.6970  -20.2990  125.9250 O.3   316  TYR316     -0.2866
@<TRIPOS>BOND
     1    42    41    1
     2    24    23    1
     3    63    61    1
     4    57    58    1
     5    41    40    1
     6    23    22    1
     7    22    21    1
     8    58    61    1
     9    58    59    1
    10    40    39    1
    11    61    62    1
    12    99    98    2
    13    28    27    2
    14    21    20    1
    15    20    17    1
    16    59    60    2
    17    98    97    1
    18    39    38    1
    19    35    38    1
    20    35    36    1
    21    35    34    1
    22    27    34   am
    23    27    26    1
    24    36    37    2
    25    17    18    1
    26    17    16    1
    27    30    29    1
    28    30    31    1
    29    29    26    1
    30    25    18   am
    31    25    26    1
    32    18    19    2
    33    97    96    1
    34    75    74    1
    35    73    74   ar
    36    73    71   ar
    37    16    10   am
    38    32    31    1
    39    32    33    1
    40    74    72   ar
    41    71    69   ar
    42    10    11    2
    43    10     9    1
    44   177   176    2
    45    64    65    1
    46   176   175    1
    47    72    70   ar
    48     9     8    1
    49     9    12    1
    50    69    70   ar
    51    69    68    1
    52    65    68    1
    53    65    66    1
    54    43    44    1
    55   178   175    1
    56   178   179    1
    57    87    86    2
    58   175   174    1
    59    49    47    1
    60    44    47    1
    61    44    45    1
    62    86    85    1
    63    12    13    1
    64    66    67    2
    65   179   180   ar
    66   179   181   ar
    67    15    13    1
    68   180   182   ar
    69   170   169    2
    70    47    48    1
    71    45    46    2
    72    13    14    1
    73   181   183   ar
    74    85    84    1
    75    85    88    1
    76   182   184   ar
    77   169   168    1
    78    88    89    1
    79   183   184   ar
    80     5     6    1
    81     5     2    1
    82   171   168    1
    83   171   172    1
    84   168   167    1
    85   184   185    1
    86     6     7    1
    87     2     3    1
    88     2     1    1
    89    89    91   ar
    90    89    90   ar
    91    50    51    1
    92   172   173    1
    93    91    93   ar
    94   160   159    2
    95     7     1    1
    96   167   159   am
    97   167   173    1
    98    79    78    2
    99     3     4    2
   100    51    52    1
   101    51    54    1
   102    90    92   ar
   103    78    77    1
   104   159   158    1
   105    52    53    2
   106    93    94   ar
   107   125   126   ar
   108   125   123   ar
   109   114   115    1
   110   114   113    1
   111   126   124   ar
   112    56    54    1
   113   115   109    1
   114    92    94   ar
   115    54    55    1
   116    77    76    1
   117    77    80    1
   118   113   110    1
   119    94    95    1
   120   158   157    1
   121   158   161    1
   122   123   121   ar
   123   155   154    1
   124   156   154    1
   125   157   151   am
   126   124   122   ar
   127   148   146   ar
   128   148   147   ar
   129   153   154    1
   130   153   150    1
   131   161   162    1
   132    80    81    1
   133   151   152    2
   134   151   150    1
   135   103   102    2
   136   146   144   ar
   137   147   145   ar
   138   109   110    1
   139   121   122   ar
   140   121   120    1
   141   150   149    1
   142   110   111    1
   143   144   142   ar
   144   144   143   ar
   145   145   142   ar
   146   102   101    1
   147    81    82   ar
   148    81    83   ar
   149   142   140   ar
   150   162   164   ar
   151   162   163   ar
   152   120   117    1
   153   143   141   ar
   154   111   112    2
   155   140   141   ar
   156   140   139    1
   157   164   166   ar
   158   163   165   ar
   159   100   101    1
   160   116   117    1
   161   104   101    1
   162   104   105    1
   163   117   118    1
   164   139   136    1
   165   106   105    1
   166   106   107    1
   167   119   118    2
   168   165   166   ar
   169   118   127   am
   170   108   107    1
   171   138   137    2
   172   136   137    1
   173   136   135    1
   174   127   128    1
   175   135   129   am
   176   129   128    1
   177   129   130    2
   178   128   131    1
   179   131   132    1
   180   134   132    1
   181   132   133    1
