@<TRIPOS>MOLECULE
tmp/5tw5A00.pdb
 206 195 0 0 0
SMALL
GASTEIGER

@<TRIPOS>ATOM
      1  N         -9.1270    7.9280  -27.1070 N.3     4  PHE4       -0.1241
      2  CA        -9.6280    6.5730  -27.3060 C.3     4  PHE4        0.1605
      3  C         -8.6070    5.6150  -26.7230 C.2     4  PHE4        0.2264
      4  O         -7.4430    5.6580  -27.1070 O.2     4  PHE4       -0.2867
      5  CB        -9.7860    6.3030  -28.7920 C.3     4  PHE4        0.0534
      6  CG       -10.2370    4.9080  -29.1210 C.ar    4  PHE4       -0.0203
      7  CD1      -11.5540    4.5270  -28.9170 C.ar    4  PHE4       -0.0042
      8  CD2       -9.3530    3.9870  -29.6780 C.ar    4  PHE4       -0.0042
      9  CE1      -11.9880    3.2610  -29.2550 C.ar    4  PHE4       -0.0003
     10  CE2       -9.7750    2.7140  -30.0070 C.ar    4  PHE4       -0.0003
     11  CZ       -11.0980    2.3490  -29.7990 C.ar    4  PHE4       -0.0000
     12  N         -7.8780    1.4540  -25.4720 N.3     6  CYS6       -0.1235
     13  CA        -8.1680    0.0500  -25.2850 C.3     6  CYS6        0.1677
     14  C         -7.2810   -0.4200  -24.1580 C.2     6  CYS6        0.2270
     15  O         -6.0650   -0.3480  -24.2680 O.2     6  CYS6       -0.2867
     16  CB        -7.8440   -0.7430  -26.5530 C.3     6  CYS6        0.0956
     17  SG        -8.6760   -0.1080  -28.0150 S.3     6  CYS6       -0.0801
     18  N         -6.1560   -3.4030  -21.6590 N.3     8  GLN8       -0.1245
     19  CA        -6.0500   -4.8470  -21.5110 C.3     8  GLN8        0.1566
     20  C         -5.4480   -5.1270  -20.1550 C.2     8  GLN8        0.2260
     21  O         -4.4420   -4.5140  -19.7930 O.2     8  GLN8       -0.2867
     22  CB        -5.1400   -5.4330  -22.5910 C.3     8  GLN8        0.0367
     23  CG        -4.8680   -6.9380  -22.4790 C.3     8  GLN8        0.0905
     24  CD        -3.7920   -7.4120  -23.4350 C.2     8  GLN8        0.2608
     25  OE1       -3.6170   -6.8490  -24.5110 O.2     8  GLN8       -0.2717
     26  NE2       -3.0400   -8.4370  -23.0340 N.am    8  GLN8       -0.0878
     27  N         -7.3910  -12.8050  -19.3340 N.3    20  THR20      -0.1218
     28  CA        -7.2280  -11.5130  -19.9700 C.3    20  THR20       0.1862
     29  C         -8.6170  -10.9230  -20.1760 C.2    20  THR20       0.2287
     30  O         -9.5070  -11.5780  -20.7400 O.2    20  THR20      -0.2866
     31  CB        -6.4700  -11.6450  -21.3070 C.3    20  THR20       0.1770
     32  OG1       -5.1500  -12.1400  -21.0530 O.3    20  THR20      -0.2211
     33  CG2       -6.3690  -10.3070  -22.0320 C.3    20  THR20       0.0375
     34  N        -10.5050   -7.0080  -21.2430 N.3    22  SER22      -0.1217
     35  CA       -10.3070   -5.6820  -21.7970 C.3    22  SER22       0.1889
     36  C        -11.5690   -4.8530  -21.7000 C.2    22  SER22       0.2288
     37  O        -12.6780   -5.3910  -21.7030 O.2    22  SER22      -0.2866
     38  CB        -9.8750   -5.7660  -23.2680 C.3    22  SER22       0.2089
     39  OG        -8.5670   -6.2700  -23.3530 O.3    22  SER22      -0.2183
     40  N        -12.8410   -0.8260  -23.4040 N.3    24  VAL24      -0.1245
     41  CA       -12.4960    0.2460  -24.3350 C.3    24  VAL24       0.1561
     42  C        -13.3160    1.4830  -24.0340 C.2    24  VAL24       0.2260
     43  O        -14.5240    1.3840  -23.8670 O.2    24  VAL24      -0.2867
     44  CB       -12.7560   -0.1560  -25.7960 C.3    24  VAL24       0.0252
     45  CG1      -12.3280    0.9690  -26.7420 C.3    24  VAL24       0.0019
     46  CG2      -12.0010   -1.4360  -26.1330 C.3    24  VAL24       0.0019
     47  N        -16.6550   -0.6870  -25.4930 N.3    32  HIS32      -0.1241
     48  CA       -16.5350   -2.1340  -25.5770 C.3    32  HIS32       0.1621
     49  C        -16.1180   -2.7610  -24.2600 C.2    32  HIS32       0.2264
     50  O        -15.5030   -2.1130  -23.4010 O.2    32  HIS32      -0.2867
     51  CB       -15.4810   -2.5290  -26.6200 C.3    32  HIS32       0.0745
     52  CG       -15.7180   -1.9530  -27.9750 C.ar   32  HIS32       0.0817
     53  ND1      -15.4400   -0.6390  -28.2910 N.ar   32  HIS32      -0.2268
     54  CD2      -16.2310   -2.5100  -29.0960 C.ar   32  HIS32       0.1154
     55  CE1      -15.7570   -0.4160  -29.5540 C.ar   32  HIS32       0.1986
     56  NE2      -16.2320   -1.5380  -30.0670 N.ar   32  HIS32      -0.2212
     57  N        -14.4400   -6.8750  -23.4010 N.3    34  TRP34      -0.1241
     58  CA       -14.1290   -8.2150  -23.8590 C.3    34  TRP34       0.1605
     59  C        -13.6590   -9.0460  -22.6800 C.2    34  TRP34       0.2264
     60  O        -12.4890   -9.0000  -22.2880 O.2    34  TRP34      -0.2867
     61  CB       -13.0860   -8.1820  -24.9760 C.3    34  TRP34       0.0550
     62  CG       -12.8920   -9.5170  -25.6620 C.ar   34  TRP34       0.0003
     63  CD1      -13.7470  -10.5820  -25.6590 C.ar   34  TRP34       0.0946
     64  CD2      -11.7750   -9.9050  -26.4610 C.ar   34  TRP34       0.0152
     65  NE1      -13.2240  -11.6140  -26.4010 N.ar   34  TRP34      -0.2442
     66  CE2      -12.0170  -11.2210  -26.9120 C.ar   34  TRP34       0.0810
     67  CE3      -10.5880   -9.2670  -26.8400 C.ar   34  TRP34       0.0012
     68  CZ2      -11.1120  -11.9170  -27.7210 C.ar   34  TRP34       0.0191
     69  CZ3       -9.6810   -9.9560  -27.6380 C.ar   34  TRP34       0.0001
     70  CH2       -9.9560  -11.2730  -28.0750 C.ar   34  TRP34       0.0015
     71  N        -15.7970   -9.8600  -28.8160 N.3    41  ILE41      -0.1245
     72  CA       -15.7980   -8.5460  -28.1940 C.3    41  ILE41       0.1561
     73  C        -17.2530   -8.0890  -28.0950 C.2    41  ILE41       0.2260
     74  O        -18.0270   -8.2490  -29.0520 O.2    41  ILE41      -0.2867
     75  CB       -14.9690   -7.5240  -29.0190 C.3    41  ILE41       0.0252
     76  CG1      -13.5080   -7.9800  -29.1510 C.3    41  ILE41       0.0019
     77  CG2      -15.0140   -6.1230  -28.3910 C.3    41  ILE41       0.0019
     78  CD1      -12.7980   -7.4200  -30.3670 C.3    41  ILE41       0.0001
     79  N        -15.1120   -5.2470  -39.2910 N.3    57  TRP57      -0.1241
     80  CA       -15.1680   -5.5520  -37.8590 C.3    57  TRP57       0.1605
     81  C        -14.7570   -6.9930  -37.5920 C.2    57  TRP57       0.2264
     82  O        -13.9780   -7.2370  -36.6860 O.2    57  TRP57      -0.2867
     83  CB       -16.5580   -5.2920  -37.2460 C.3    57  TRP57       0.0550
     84  CG       -16.5530   -5.6100  -35.7830 C.ar   57  TRP57       0.0003
     85  CD1      -17.1120   -6.6920  -35.1670 C.ar   57  TRP57       0.0946
     86  CD2      -15.8600   -4.8800  -34.7620 C.ar   57  TRP57       0.0152
     87  NE1      -16.8420   -6.6580  -33.8130 N.ar   57  TRP57      -0.2442
     88  CE2      -16.0740   -5.5580  -33.5390 C.ar   57  TRP57       0.0810
     89  CE3      -15.0930   -3.7100  -34.7590 C.ar   57  TRP57       0.0012
     90  CZ2      -15.5490   -5.1000  -32.3210 C.ar   57  TRP57       0.0191
     91  CZ3      -14.5700   -3.2510  -33.5320 C.ar   57  TRP57       0.0001
     92  CH2      -14.8050   -3.9490  -32.3410 C.ar   57  TRP57       0.0015
     93  N        -11.0080   -7.4390  -37.9620 N.3    60  LEU60      -0.1245
     94  CA       -10.4200   -6.8600  -36.7360 C.3    60  LEU60       0.1561
     95  C        -10.5610   -7.7990  -35.5320 C.2    60  LEU60       0.2260
     96  O         -9.5900   -8.0670  -34.8240 O.2    60  LEU60      -0.2867
     97  CB       -11.0870   -5.5080  -36.4390 C.3    60  LEU60       0.0270
     98  CG       -10.3210   -4.3760  -35.7610 C.3    60  LEU60       0.0019
     99  CD1       -8.8590   -4.2950  -36.2040 C.3    60  LEU60       0.0001
    100  CD2      -11.0420   -3.0680  -36.0790 C.3    60  LEU60       0.0001
    101  N         -7.7700   -9.8260  -33.2270 N.3    64  PHE64      -0.1241
    102  CA        -7.6990   -9.7480  -31.7550 C.3    64  PHE64       0.1605
    103  C         -7.8750  -11.0960  -31.0520 C.2    64  PHE64       0.2264
    104  O         -7.2640  -11.3360  -30.0160 O.2    64  PHE64      -0.2867
    105  CB        -8.7140   -8.7480  -31.2080 C.3    64  PHE64       0.0534
    106  CG        -8.3090   -7.3110  -31.3780 C.ar   64  PHE64      -0.0203
    107  CD1       -7.1200   -6.8350  -30.8230 C.ar   64  PHE64      -0.0042
    108  CD2       -9.1300   -6.4180  -32.0590 C.ar   64  PHE64      -0.0042
    109  CE1       -6.7560   -5.4960  -30.9570 C.ar   64  PHE64      -0.0003
    110  CE2       -8.7770   -5.0820  -32.1940 C.ar   64  PHE64      -0.0003
    111  CZ        -7.5860   -4.6210  -31.6480 C.ar   64  PHE64      -0.0000
    112  N         -4.5500  -12.7460  -31.3930 N.3    67  TYR67      -0.1227
    113  CA        -3.7030  -12.0310  -30.4340 C.3    67  TYR67       0.1736
    114  C         -3.8860  -12.5010  -28.9860 C.2    67  TYR67       0.2595
    115  O         -2.9070  -12.7670  -28.3030 O.2    67  TYR67      -0.2718
    116  CB        -3.9450  -10.5190  -30.5430 C.3    67  TYR67       0.0548
    117  CG        -3.3610   -9.7260  -29.3960 C.ar   67  TYR67      -0.0200
    118  CD1       -1.9980   -9.7330  -29.1450 C.ar   67  TYR67      -0.0009
    119  CD2       -4.1850   -9.0030  -28.5330 C.ar   67  TYR67      -0.0009
    120  CE1       -1.4620   -9.0180  -28.0830 C.ar   67  TYR67       0.0417
    121  CE2       -3.6580   -8.2790  -27.4680 C.ar   67  TYR67       0.0417
    122  CZ        -2.3010   -8.2880  -27.2440 C.ar   67  TYR67       0.1957
    123  OH        -1.7670   -7.5830  -26.1970 O.3    67  TYR67      -0.2866
    124  N         -5.1240  -12.6240  -28.5260 N.am   68  ARG68      -0.1980
    125  CA        -5.3670  -12.9530  -27.1140 C.3    68  ARG68       0.1597
    126  C         -4.7710  -14.3230  -26.7520 C.2    68  ARG68       0.2287
    127  O         -4.0510  -14.4580  -25.7490 O.2    68  ARG68      -0.2864
    128  CB        -6.8600  -12.8790  -26.7820 C.3    68  ARG68       0.0334
    129  CG        -7.1560  -13.0780  -25.3020 C.3    68  ARG68       0.0492
    130  CD        -8.5740  -12.6880  -24.9180 C.3    68  ARG68       0.2205
    131  NE        -9.5300  -13.7780  -25.1320 N.pl3  68  ARG68      -0.0865
    132  CZ       -10.8020  -13.7740  -24.7020 C.cat  68  ARG68       0.5346
    133  NH1      -11.3110  -12.7280  -24.0320 N.pl3  68  ARG68       0.1354
    134  NH2      -11.5810  -14.8250  -24.9460 N.pl3  68  ARG68       0.1354
    135  N         -1.9850   -3.2790  -20.6640 N.3    94  LEU94      -0.1245
    136  CA        -1.6630   -2.6510  -21.9290 C.3    94  LEU94       0.1561
    137  C         -2.6900   -1.5580  -22.1660 C.2    94  LEU94       0.2260
    138  O         -3.8880   -1.7670  -21.9590 O.2    94  LEU94      -0.2867
    139  CB        -1.6830   -3.7030  -23.0300 C.3    94  LEU94       0.0270
    140  CG        -1.2220   -3.3270  -24.4350 C.3    94  LEU94       0.0019
    141  CD1       -0.5250   -4.5180  -25.0820 C.3    94  LEU94       0.0001
    142  CD2       -2.3850   -2.8450  -25.2890 C.3    94  LEU94       0.0001
    143  N         -3.5650    1.1140  -25.1930 N.3    96  ALA96      -0.1231
    144  CA        -3.3120    1.4570  -26.5830 C.3    96  ALA96       0.1694
    145  C         -4.4850    2.2040  -27.1600 C.2    96  ALA96       0.2592
    146  O         -5.6470    1.9270  -26.8210 O.2    96  ALA96      -0.2718
    147  CB        -3.0530    0.1990  -27.3910 C.3    96  ALA96       0.0304
    148  N         -4.1830    3.1450  -28.0430 N.am   97  GLY97      -0.1957
    149  CA        -5.2020    3.9660  -28.6300 C.3    97  GLY97       0.1869
    150  C         -4.6380    5.1950  -29.3050 C.2    97  GLY97       0.2309
    151  O         -3.4960    5.1990  -29.7440 O.2    97  GLY97      -0.2863
    152  N          0.8990    3.0690  -27.4700 N.3   110  LEU110     -0.1245
    153  CA         0.7720    1.7120  -26.9980 C.3   110  LEU110      0.1561
    154  C          1.7650    1.5510  -25.8670 C.2   110  LEU110      0.2260
    155  O          2.9780    1.4830  -26.0910 O.2   110  LEU110     -0.2867
    156  CB         1.0130    0.7110  -28.1340 C.3   110  LEU110      0.0270
    157  CG         0.5740   -0.7450  -27.8910 C.3   110  LEU110      0.0019
    158  CD1        0.7330   -1.5580  -29.1720 C.3   110  LEU110      0.0001
    159  CD2        1.3140   -1.4240  -26.7450 C.3   110  LEU110      0.0001
    160  N          0.9180   -4.0360  -35.8950 N.3   154  VAL154     -0.1245
    161  CA         0.8010   -3.0160  -34.8470 C.3   154  VAL154      0.1561
    162  C          0.9410   -1.6080  -35.4500 C.2   154  VAL154      0.2260
    163  O          0.1750   -0.7080  -35.1150 O.2   154  VAL154     -0.2867
    164  CB         1.8250   -3.2290  -33.7180 C.3   154  VAL154      0.0252
    165  CG1        1.8010   -2.0540  -32.7400 C.3   154  VAL154      0.0019
    166  CG2        1.5330   -4.5300  -32.9820 C.3   154  VAL154      0.0019
    167  N         -2.3370   -0.8130  -37.0530 N.3   157  LEU157     -0.1231
    168  CA        -3.3560   -0.5410  -36.0430 C.3   157  LEU157      0.1693
    169  C         -3.2130    0.8570  -35.4540 C.2   157  LEU157      0.2591
    170  O         -4.2070    1.5730  -35.3250 O.2   157  LEU157     -0.2718
    171  CB        -3.3260   -1.5790  -34.9300 C.3   157  LEU157      0.0284
    172  CG        -3.7620   -2.9760  -35.3450 C.3   157  LEU157      0.0019
    173  CD1       -3.3950   -3.9240  -34.2270 C.3   157  LEU157      0.0001
    174  CD2       -5.2470   -3.0290  -35.6640 C.3   157  LEU157      0.0001
    175  N         -1.9800    1.2420  -35.1330 N.am  158  LEU158     -0.1980
    176  CA        -1.7050    2.5540  -34.5430 C.3   158  LEU158      0.1596
    177  C         -1.8180    3.6910  -35.5550 C.2   158  LEU158      0.2287
    178  O         -2.4970    4.6840  -35.2980 O.2   158  LEU158     -0.2864
    179  CB        -0.3120    2.5790  -33.9060 C.3   158  LEU158      0.0297
    180  CG        -0.1260    2.2070  -32.4200 C.3   158  LEU158      0.0022
    181  CD1       -1.3180    1.5640  -31.7380 C.3   158  LEU158      0.0001
    182  CD2        1.1360    1.3860  -32.2410 C.3   158  LEU158      0.0001
    183  N         -5.6490    2.2300  -38.4410 N.3   161  THR161     -0.1203
    184  CA        -6.9140    1.7140  -37.9290 C.3   161  THR161      0.1994
    185  C         -7.4650    2.5800  -36.8000 C.2   161  THR161      0.2618
    186  O         -8.6590    2.9120  -36.8080 O.2   161  THR161     -0.2717
    187  CB        -6.7780    0.2520  -37.4390 C.3   161  THR161      0.1784
    188  OG1       -5.9930   -0.5070  -38.3650 O.3   161  THR161     -0.2211
    189  CG2       -8.1440   -0.4090  -37.3050 C.3   161  THR161      0.0376
    190  N         -6.6110    2.9490  -35.8390 N.am  162  CYS162     -0.1969
    191  CA        -7.0760    3.7010  -34.6700 C.3   162  CYS162      0.1712
    192  C         -7.7750    4.9990  -35.0710 C.2   162  CYS162      0.2296
    193  O         -8.9670    5.1380  -34.7860 O.2   162  CYS162     -0.2864
    194  CB        -5.9740    3.9620  -33.6330 C.3   162  CYS162      0.0983
    195  SG        -6.6250    4.5520  -32.0350 S.3   162  CYS162     -0.0798
    196  N        -11.0010    4.2740  -37.1220 N.3   165  PHE165     -0.1241
    197  CA       -12.0920    3.7530  -36.3180 C.3   165  PHE165      0.1605
    198  C        -12.7200    4.8610  -35.4810 C.2   165  PHE165      0.2264
    199  O        -13.9480    4.9690  -35.4110 O.2   165  PHE165     -0.2867
    200  CB       -11.6080    2.6180  -35.4140 C.3   165  PHE165      0.0534
    201  CG       -12.7080    1.9780  -34.6130 C.ar  165  PHE165     -0.0203
    202  CD1      -13.8360    1.4570  -35.2480 C.ar  165  PHE165     -0.0042
    203  CD2      -12.6240    1.8930  -33.2310 C.ar  165  PHE165     -0.0042
    204  CE1      -14.8540    0.8720  -34.5110 C.ar  165  PHE165     -0.0003
    205  CE2      -13.6380    1.3120  -32.4960 C.ar  165  PHE165     -0.0003
    206  CZ       -14.7570    0.8040  -33.1370 C.ar  165  PHE165     -0.0000
@<TRIPOS>BOND
     1    79    80    1
     2   183   184    1
     3   188   187    1
     4    93    94    1
     5   184   187    1
     6   184   185    1
     7    80    81    1
     8    80    83    1
     9    81    82    2
    10   187   189    1
    11    83    84    1
    12   196   197    1
    13   167   168    1
    14   186   185    2
    15   185   190   am
    16    94    97    1
    17    94    95    1
    18    97    98    1
    19   197   198    1
    20   197   200    1
    21    99    98    1
    22   100    98    1
    23   168   169    1
    24   168   171    1
    25   160   161    1
    26   190   191    1
    27    84    85   ar
    28    84    86   ar
    29   174   172    1
    30   177   178    2
    31   177   176    1
    32    95    96    2
    33   198   199    2
    34   169   170    2
    35   169   175   am
    36   162   163    2
    37   162   161    1
    38   200   201    1
    39   172   171    1
    40   172   173    1
    41   202   201   ar
    42   202   204   ar
    43    85    87   ar
    44   175   176    1
    45   192   193    2
    46   192   191    1
    47   161   164    1
    48    86    89   ar
    49    86    88   ar
    50    89    91   ar
    51   191   194    1
    52   201   203   ar
    53   176   179    1
    54   204   206   ar
    55   179   180    1
    56    87    88   ar
    57   164   166    1
    58   164   165    1
    59   194   195    1
    60    88    90   ar
    61    91    92   ar
    62   203   205   ar
    63   101   102    1
    64   206   205   ar
    65   180   182    1
    66   180   181    1
    67    92    90   ar
    68   110   108   ar
    69   110   111   ar
    70   108   106   ar
    71   102   105    1
    72   102   103    1
    73   111   109   ar
    74   112   113    1
    75   106   105    1
    76   106   107   ar
    77   103   104    2
    78   109   107   ar
    79   116   113    1
    80   116   117    1
    81   113   114    1
    82    78    76    1
    83    56    55   ar
    84    56    54   ar
    85    10    11   ar
    86    10     8   ar
    87    11     9   ar
    88   151   150    2
    89     8     6   ar
    90    55    53   ar
    91   117   118   ar
    92   117   119   ar
    93   150   149    1
    94     9     7   ar
    95   158   157    1
    96    76    75    1
    97   118   120   ar
    98     6     7   ar
    99     6     5    1
   100    54    52   ar
   101    74    73    2
   102    75    77    1
   103    75    72    1
   104   114   124   am
   105   114   115    2
   106    71    72    1
   107     5     2    1
   108   149   148    1
   109   119   121   ar
   110   124   125    1
   111    53    52   ar
   112    72    73    1
   113   156   157    1
   114   156   153    1
   115   120   122   ar
   116    70    68   ar
   117    70    69   ar
   118   148   145   am
   119    17    16    1
   120    52    51    1
   121   157   159    1
   122    68    66   ar
   123    69    67   ar
   124   152   153    1
   125   121   122   ar
   126   147   144    1
   127     2     1    1
   128     2     3    1
   129   122   123    1
   130   145   146    2
   131   145   144    1
   132   125   128    1
   133   125   126    1
   134     4     3    2
   135   153   154    1
   136    66    64   ar
   137    66    65   ar
   138    67    64   ar
   139   128   129    1
   140   126   127    2
   141    45    44    1
   142    51    48    1
   143   144   143    1
   144    16    13    1
   145    64    62   ar
   146    65    63   ar
   147    46    44    1
   148   155   154    2
   149    44    41    1
   150    62    63   ar
   151    62    61    1
   152    48    47    1
   153    48    49    1
   154    12    13    1
   155   129   130    1
   156   142   140    1
   157    13    14    1
   158   131   130    1
   159   131   132    2
   160   141   140    1
   161    61    58    1
   162   134   132    1
   163   132   133    1
   164    25    24    2
   165   140   139    1
   166    41    42    1
   167    41    40    1
   168    15    14    2
   169    49    50    2
   170    42    43    2
   171    58    57    1
   172    58    59    1
   173    24    26   am
   174    24    23    1
   175    39    38    1
   176    38    35    1
   177   139   136    1
   178    59    60    2
   179    22    23    1
   180    22    19    1
   181   137   138    2
   182   137   136    1
   183    33    31    1
   184   136   135    1
   185    35    36    1
   186    35    34    1
   187    37    36    2
   188    18    19    1
   189    19    20    1
   190    31    32    1
   191    31    28    1
   192    30    29    2
   193    29    28    1
   194    20    21    2
   195    28    27    1
