@<TRIPOS>MOLECULE
tmp/5tw6A00.pdb
 155 145 0 0 0
SMALL
GASTEIGER

@<TRIPOS>ATOM
      1  N          6.8320   -7.6250  -18.0720 N.3    40  PRO40      -0.2116
      2  CA         6.4700   -6.4420  -17.3150 C.3    40  PRO40       0.1372
      3  C          5.0620   -6.0090  -17.7020 C.2    40  PRO40       0.2244
      4  O          4.8020   -5.8700  -18.8190 O.2    40  PRO40      -0.2868
      5  CB         7.4390   -5.3860  -17.8120 C.3    40  PRO40       0.0268
      6  CG         8.3900   -6.0520  -18.7180 C.3    40  PRO40       0.0207
      7  CD         7.8400   -7.3700  -19.1000 C.3    40  PRO40       0.0892
      8  N          3.3380   -3.1460  -17.2070 N.3    42  CYS42      -0.1221
      9  CA         3.0960   -1.7740  -17.5300 C.3    42  CYS42       0.1808
     10  C          1.6350   -1.3730  -17.1260 C.2    42  CYS42       0.2601
     11  O          1.1120   -1.7880  -16.1120 O.2    42  CYS42      -0.2717
     12  CB         3.5100   -1.3870  -18.9250 C.3    42  CYS42       0.0970
     13  SG         5.2870   -1.7680  -19.1750 S.3    42  CYS42      -0.0800
     14  N          0.9750   -0.6330  -18.0030 N.am   43  SER43      -0.1952
     15  CA        -0.3610   -0.1150  -17.7320 C.3    43  SER43       0.1924
     16  C         -1.4820   -1.1420  -17.7290 C.2    43  SER43       0.2314
     17  O         -2.5370   -0.8800  -17.2780 O.2    43  SER43      -0.2863
     18  CB        -0.7010    1.0570  -18.6160 C.3    43  SER43       0.2116
     19  OG        -0.0420    2.1700  -18.1960 O.3    43  SER43      -0.2180
     20  N          4.2490   11.0470  -14.5700 N.3    77  ASN77      -0.1225
     21  CA         4.7350   11.0260  -15.9410 C.3    77  ASN77       0.1785
     22  C          3.7370   11.1870  -17.0770 C.2    77  ASN77       0.2597
     23  O          4.0900   11.6580  -18.1260 O.2    77  ASN77      -0.2718
     24  CB         5.6100    9.8040  -16.1930 C.3    77  ASN77       0.1169
     25  CG         4.8190    8.5240  -16.2030 C.2    77  ASN77       0.2627
     26  OD1        4.0670    8.2910  -15.3170 O.2    77  ASN77      -0.2716
     27  ND2        4.9980    7.7110  -17.2280 N.am   77  ASN77      -0.0877
     28  N          2.5230   10.7260  -16.8920 N.am   78  TYR78      -0.1976
     29  CA         1.5340   10.7590  -17.9690 C.3    78  TYR78       0.1639
     30  C          0.1450   10.8600  -17.3490 C.2    78  TYR78       0.2290
     31  O         -0.3340    9.8890  -16.7570 O.2    78  TYR78      -0.2864
     32  CB         1.6620    9.5140  -18.8560 C.3    78  TYR78       0.0560
     33  CG         0.8870    9.6340  -20.1470 C.ar   78  TYR78      -0.0198
     34  CD1       -0.3490    9.0200  -20.2970 C.ar   78  TYR78      -0.0009
     35  CD2        1.3800   10.3850  -21.2080 C.ar   78  TYR78      -0.0009
     36  CE1       -1.0710    9.1410  -21.4670 C.ar   78  TYR78       0.0417
     37  CE2        0.6670   10.5090  -22.3800 C.ar   78  TYR78       0.0417
     38  CZ        -0.5610    9.8840  -22.5030 C.ar   78  TYR78       0.1957
     39  OH        -1.2820    9.9990  -23.6690 O.3    78  TYR78      -0.2866
     40  N         -5.1210    5.6990  -20.3270 N.3   103  SER103     -0.1217
     41  CA        -4.0310    5.2440  -19.4530 C.3   103  SER103      0.1889
     42  C         -3.4300    6.3880  -18.6430 C.2   103  SER103      0.2288
     43  O         -2.2190    6.6320  -18.6760 O.2   103  SER103     -0.2866
     44  CB        -2.9410    4.5000  -20.2390 C.3   103  SER103      0.2089
     45  OG        -2.3120    3.4860  -19.4290 O.3   103  SER103     -0.2183
     46  N         -1.9060    7.8520  -15.5440 N.3   105  ASN105     -0.1240
     47  CA        -1.1720    7.2510  -14.4360 C.3   105  ASN105      0.1653
     48  C         -1.5250    7.8960  -13.1040 C.2   105  ASN105      0.2266
     49  O         -1.4770    7.2240  -12.0710 O.2   105  ASN105     -0.2867
     50  CB         0.3390    7.3520  -14.6610 C.3   105  ASN105      0.1155
     51  CG         0.8390    6.3660  -15.6930 C.2   105  ASN105      0.2627
     52  OD1        0.1350    5.4260  -16.0630 O.2   105  ASN105     -0.2716
     53  ND2        2.0570    6.5840  -16.1750 N.am  105  ASN105     -0.0877
     54  N          4.8620   -1.3630   -7.4970 N.3   137  ARG137     -0.1245
     55  CA         5.1140    0.0640   -7.4970 C.3   137  ARG137      0.1563
     56  C          3.8910    0.8290   -7.9710 C.2   137  ARG137      0.2260
     57  O          3.1090    0.3380   -8.7860 O.2   137  ARG137     -0.2867
     58  CB         6.3150    0.3980   -8.3890 C.3   137  ARG137      0.0307
     59  CG         7.6490   -0.1080   -7.8570 C.3   137  ARG137      0.0489
     60  CD         8.7200    0.0770   -8.9030 C.3   137  ARG137      0.2205
     61  NE         8.5840   -0.9460   -9.9310 N.pl3 137  ARG137     -0.0865
     62  CZ         9.3880   -1.0580  -10.9850 C.cat 137  ARG137      0.5346
     63  NH1       10.4050   -0.2170  -11.1450 N.pl3 137  ARG137      0.1354
     64  NH2        9.1800   -2.0140  -11.8720 N.pl3 137  ARG137      0.1354
     65  N          7.3210    9.4230  -11.9190 N.3   141  THR141     -0.1218
     66  CA         7.8860   10.1630  -13.0410 C.3   141  THR141      0.1862
     67  C          8.9040    9.3310  -13.8140 C.2   141  THR141      0.2287
     68  O          9.0740    9.5290  -15.0220 O.2   141  THR141     -0.2866
     69  CB         8.5160   11.4650  -12.5490 C.3   141  THR141      0.1770
     70  OG1        9.3020   11.2080  -11.3780 O.3   141  THR141     -0.2211
     71  CG2        7.4230   12.4780  -12.2030 C.3   141  THR141      0.0375
     72  N          9.5380    5.2950  -14.4560 N.3   143  ASN143     -0.1225
     73  CA         9.1310    3.9090  -14.3070 C.3   143  ASN143      0.1785
     74  C         10.0480    3.0310  -15.1510 C.2   143  ASN143      0.2598
     75  O         10.7290    3.5180  -16.0550 O.2   143  ASN143     -0.2718
     76  CB         7.6660    3.7290  -14.7250 C.3   143  ASN143      0.1169
     77  CG         6.7500    4.7920  -14.1250 C.2   143  ASN143      0.2627
     78  OD1        6.1930    4.5980  -13.0450 O.2   143  ASN143     -0.2716
     79  ND2        6.6170    5.9260  -14.8070 N.am  143  ASN143     -0.0877
     80  N         10.0870    1.7290  -14.8380 N.am  144  THR144     -0.1939
     81  CA        10.9940    0.8020  -15.5120 C.3   144  THR144      0.2028
     82  C         10.2700   -0.4690  -15.9350 C.2   144  THR144      0.2642
     83  O          9.2420   -0.8390  -15.3590 O.2   144  THR144     -0.2714
     84  CB        12.1910    0.4170  -14.6190 C.3   144  THR144      0.1808
     85  OG1       11.7380   -0.4350  -13.5520 O.3   144  THR144     -0.2208
     86  CG2       12.8480    1.6630  -14.0450 C.3   144  THR144      0.0379
     87  N         10.8200   -1.1310  -16.9610 N.am  145  ALA145     -0.1977
     88  CA        10.3320   -2.4300  -17.4390 C.3   145  ALA145      0.1597
     89  C         11.5540   -3.2970  -17.7430 C.2   145  ALA145      0.2287
     90  O         11.8010   -3.7200  -18.8730 O.2   145  ALA145     -0.2864
     91  CB         9.4300   -2.2860  -18.6700 C.3   145  ALA145      0.0319
     92  N          6.1890   -5.9400  -10.7020 N.3   152  ASP152     -0.1239
     93  CA         5.1320   -5.4680  -11.6070 C.3   152  ASP152      0.1674
     94  C          5.0120   -6.3420  -12.8540 C.2   152  ASP152      0.2266
     95  O          4.9130   -5.8470  -13.9740 O.2   152  ASP152     -0.2867
     96  CB         5.3660   -4.0090  -11.9900 C.3   152  ASP152      0.1410
     97  CG         5.5760   -3.1320  -10.7690 C.2   152  ASP152      0.3668
     98  OD1        4.6580   -3.0440   -9.9450 O.co2 152  ASP152     -0.2456
     99  OD2        6.6580   -2.5480  -10.6360 O.co2 152  ASP152     -0.2456
    100  N         -7.0130    3.9980  -26.4960 N.3   189  THR189     -0.1218
    101  CA        -5.5820    3.8670  -26.7610 C.3   189  THR189      0.1862
    102  C         -5.2120    2.6070  -27.5390 C.2   189  THR189      0.2287
    103  O         -4.0270    2.3930  -27.8000 O.2   189  THR189     -0.2866
    104  CB        -4.7970    3.8730  -25.4400 C.3   189  THR189      0.1770
    105  OG1       -5.0260    2.6340  -24.7590 O.3   189  THR189     -0.2211
    106  CG2       -5.2300    5.0350  -24.5320 C.3   189  THR189      0.0375
    107  N         -7.1390   -3.1290  -22.8010 N.3   207  LYS207     -0.1231
    108  CA        -6.2830   -2.1810  -22.0930 C.3   207  LYS207      0.1693
    109  C         -4.8400   -2.3790  -22.5240 C.2   207  LYS207      0.2593
    110  O         -4.3080   -3.4880  -22.4210 O.2   207  LYS207     -0.2718
    111  CB        -6.3610   -2.3370  -20.5730 C.3   207  LYS207      0.0285
    112  CG        -5.3610   -1.4270  -19.8450 C.3   207  LYS207      0.0035
    113  CD        -5.8850    0.0050  -19.7260 C.3   207  LYS207      0.0206
    114  CE        -4.8130    0.9740  -19.2430 C.3   207  LYS207      0.1093
    115  NZ        -3.9720    1.4260  -20.4120 N.3   207  LYS207     -0.1314
    116  N         -4.1950   -1.2910  -22.9240 N.am  208  THR208     -0.1939
    117  CA        -2.8310   -1.3180  -23.4330 C.3   208  THR208      0.2028
    118  C         -1.8080   -1.0320  -22.3390 C.2   208  THR208      0.2643
    119  O         -2.1130   -0.5500  -21.2430 O.2   208  THR208     -0.2714
    120  CB        -2.6490   -0.2810  -24.5380 C.3   208  THR208      0.1808
    121  OG1       -3.1050    0.9920  -24.0550 O.3   208  THR208     -0.2208
    122  CG2       -3.4060   -0.6700  -25.8110 C.3   208  THR208      0.0379
    123  N         -0.5570   -1.2980  -22.6680 N.am  209  GLY209     -0.1939
    124  CA         0.5370   -0.8700  -21.8200 C.3   209  GLY209      0.2014
    125  C          1.7450   -0.6050  -22.6800 C.2   209  GLY209      0.2640
    126  O          1.9400   -1.2430  -23.7200 O.2   209  GLY209     -0.2714
    127  N          2.5490    0.3640  -22.2580 N.am  210  SER210     -0.1935
    128  CA         3.7960    0.6370  -22.9510 C.3   210  SER210      0.2055
    129  C          4.8210    1.1460  -21.9470 C.2   210  SER210      0.2644
    130  O          4.4730    1.7820  -20.9480 O.2   210  SER210     -0.2714
    131  CB         3.5960    1.6400  -24.0890 C.3   210  SER210      0.2130
    132  OG         3.0190    2.8240  -23.5960 O.3   210  SER210     -0.2179
    133  N          6.0850    0.8520  -22.2190 N.am  211  GLY211     -0.1939
    134  CA         7.1330    1.2210  -21.2930 C.3   211  GLY211      0.2014
    135  C          8.4840    1.1810  -21.9620 C.2   211  GLY211      0.2638
    136  O          8.5930    0.9850  -23.1750 O.2   211  GLY211     -0.2714
    137  N          9.5330    1.3480  -21.1620 N.am  212  ASP212     -0.1971
    138  CA        10.8460    1.2570  -21.7810 C.3   212  ASP212      0.1709
    139  C         11.1420   -0.2020  -22.1170 C.2   212  ASP212      0.2293
    140  O         10.2990   -1.0940  -21.9460 O.2   212  ASP212     -0.2864
    141  CB        11.9250    1.9080  -20.9120 C.3   212  ASP212      0.1436
    142  CG        12.1270    1.2220  -19.5870 C.2   212  ASP212      0.3671
    143  OD1       11.2910    0.3990  -19.1920 O.co2 212  ASP212     -0.2456
    144  OD2       13.1530    1.5200  -18.9340 O.co2 212  ASP212     -0.2456
    145  N          3.4250   -1.7320  -31.5150 N.3   247  ARG247     -0.1245
    146  CA         2.0220   -2.1360  -31.4920 C.3   247  ARG247      0.1563
    147  C          1.6790   -3.0410  -32.6760 C.2   247  ARG247      0.2260
    148  O          0.7810   -3.8870  -32.5730 O.2   247  ARG247     -0.2867
    149  CB         1.1310   -0.8890  -31.4430 C.3   247  ARG247      0.0307
    150  CG         1.5090    0.0050  -30.2450 C.3   247  ARG247      0.0489
    151  CD         0.4650    1.0190  -29.7850 C.3   247  ARG247      0.2205
    152  NE         0.7800    1.4720  -28.4250 N.pl3 247  ARG247     -0.0865
    153  CZ         0.3510    0.8710  -27.3190 C.cat 247  ARG247      0.5346
    154  NH1       -0.4590   -0.1580  -27.4270 N.pl3 247  ARG247      0.1354
    155  NH2        0.6800    1.3250  -26.1150 N.pl3 247  ARG247      0.1354
@<TRIPOS>BOND
     1   147   148    2
     2   147   146    1
     3   145   146    1
     4   146   149    1
     5   149   150    1
     6   150   151    1
     7   151   152    1
     8   152   153    2
     9   103   102    2
    10   102   101    1
    11   154   153    1
    12   153   155    1
    13   101   100    1
    14   101   104    1
    15   122   120    1
    16   104   105    1
    17   104   106    1
    18   120   121    1
    19   120   117    1
    20   131   132    1
    21   131   128    1
    22   126   125    2
    23    39    38    1
    24   117   116    1
    25   117   118    1
    26   136   135    2
    27   128   127    1
    28   128   129    1
    29   116   109   am
    30   107   108    1
    31   125   127   am
    32   125   124    1
    33   123   118   am
    34   123   124    1
    35   109   110    2
    36   109   108    1
    37    38    37   ar
    38    38    36   ar
    39    37    35   ar
    40   118   119    2
    41   133   129   am
    42   133   134    1
    43   139   140    2
    44   139   138    1
    45   108   111    1
    46   135   134    1
    47   135   137   am
    48   129   130    2
    49   138   137    1
    50   138   141    1
    51    36    34   ar
    52    35    33   ar
    53   141   142    1
    54   111   112    1
    55   115   114    1
    56    40    41    1
    57    34    33   ar
    58    44    41    1
    59    44    45    1
    60    33    32    1
    61   112   113    1
    62   113   114    1
    63   142   143   ar
    64   142   144   ar
    65    41    42    1
    66    13    12    1
    67     7     6    1
    68     7     1    1
    69    12     9    1
    70    90    89    2
    71    32    29    1
    72     4     3    2
    73     6     5    1
    74    43    42    2
    75    91    88    1
    76    18    19    1
    77    18    15    1
    78    23    22    2
    79     1     2    1
    80    14    15    1
    81    14    10   am
    82    29    30    1
    83    29    28    1
    84     5     2    1
    85    89    88    1
    86    15    16    1
    87    16    17    2
    88     3     2    1
    89     9     8    1
    90     9    10    1
    91    88    87    1
    92    30    31    2
    93    27    25   am
    94    10    11    2
    95    22    28   am
    96    22    21    1
    97    87    82   am
    98    25    24    1
    99    25    26    2
   100    24    21    1
   101    53    51   am
   102    52    51    2
   103    75    74    2
   104    21    20    1
   105    82    81    1
   106    82    83    2
   107    51    50    1
   108    46    47    1
   109    81    80    1
   110    81    84    1
   111    74    80   am
   112    74    73    1
   113    68    67    2
   114    79    77   am
   115    76    73    1
   116    76    77    1
   117    50    47    1
   118    84    86    1
   119    84    85    1
   120    72    73    1
   121    47    48    1
   122    77    78    2
   123    95    94    2
   124    67    66    1
   125    48    49    2
   126    66    69    1
   127    66    65    1
   128    94    93    1
   129    69    71    1
   130    69    70    1
   131    96    93    1
   132    96    97    1
   133    64    62    1
   134    93    92    1
   135    63    62    1
   136    62    61    2
   137    97    99   ar
   138    97    98   ar
   139    61    60    1
   140    60    59    1
   141    57    56    2
   142    58    59    1
   143    58    55    1
   144    56    55    1
   145    54    55    1
