@<TRIPOS>MOLECULE
tmp/5tweA00.pdb
 135 127 0 0 0
SMALL
GASTEIGER

@<TRIPOS>ATOM
      1  N         -3.1110    3.1030  -17.3120 N.3    43  CYS43      -0.1221
      2  CA        -2.9130    1.7200  -17.5970 C.3    43  CYS43       0.1808
      3  C         -1.4300    1.3390  -17.2870 C.2    43  CYS43       0.2601
      4  O         -0.8840    1.7520  -16.3330 O.2    43  CYS43      -0.2717
      5  CB        -3.4110    1.3070  -18.9840 C.3    43  CYS43       0.0970
      6  SG        -5.2610    1.5920  -19.0990 S.3    43  CYS43      -0.0800
      7  N         -0.8240    0.5590  -18.1460 N.am   44  GLY44      -0.1957
      8  CA         0.5320    0.1280  -17.8960 C.3    44  GLY44       0.1869
      9  C          1.5850    1.2060  -17.9530 C.2    44  GLY44       0.2309
     10  O          2.6740    0.9030  -17.6520 O.2    44  GLY44      -0.2863
     11  N          3.6370    1.6460  -14.8890 N.3    47  LYS47      -0.1245
     12  CA         4.7050    0.7390  -14.4950 C.3    47  LYS47       0.1561
     13  C          6.0580    1.4330  -14.4700 C.2    47  LYS47       0.2260
     14  O          6.9540    1.0140  -13.7240 O.2    47  LYS47      -0.2867
     15  CB         4.7100   -0.4610  -15.4330 C.3    47  LYS47       0.0271
     16  CG         3.4770   -1.3320  -15.2360 C.3    47  LYS47       0.0035
     17  CD         3.4610   -2.5010  -16.1880 C.3    47  LYS47       0.0206
     18  CE         2.1530   -3.2420  -16.0610 C.3    47  LYS47       0.1093
     19  NZ         2.0390   -4.3640  -17.0210 N.3    47  LYS47      -0.1314
     20  N         -4.3220  -11.3500  -14.9000 N.3    78  ASN78      -0.1225
     21  CA        -4.7430  -11.4850  -16.2900 C.3    78  ASN78       0.1785
     22  C         -3.7060  -11.6440  -17.3880 C.2    78  ASN78       0.2597
     23  O         -3.9720  -12.2090  -18.3960 O.2    78  ASN78      -0.2718
     24  CB        -5.6630  -10.3270  -16.6680 C.3    78  ASN78       0.1169
     25  CG        -4.9240   -9.0260  -16.8030 C.2    78  ASN78       0.2627
     26  OD1       -4.0170   -8.7510  -16.0740 O.2    78  ASN78      -0.2716
     27  ND2       -5.3100   -8.2430  -17.7650 N.am   78  ASN78      -0.0877
     28  N         -2.5570  -11.0510  -17.2210 N.am   79  TYR79      -0.1976
     29  CA        -1.5540  -11.0360  -18.2830 C.3    79  TYR79       0.1639
     30  C         -0.1770  -11.1170  -17.6380 C.2    79  TYR79       0.2290
     31  O          0.3010  -10.1280  -17.0710 O.2    79  TYR79      -0.2864
     32  CB        -1.6740   -9.7850  -19.1520 C.3    79  TYR79       0.0560
     33  CG        -0.7500   -9.8350  -20.3440 C.ar   79  TYR79      -0.0198
     34  CD1       -0.9770  -10.7390  -21.3700 C.ar   79  TYR79      -0.0009
     35  CD2        0.3660   -9.0040  -20.4260 C.ar   79  TYR79      -0.0009
     36  CE1       -0.1370  -10.8150  -22.4520 C.ar   79  TYR79       0.0417
     37  CE2        1.2200   -9.0740  -21.5250 C.ar   79  TYR79       0.0417
     38  CZ         0.9560   -9.9830  -22.5310 C.ar   79  TYR79       0.1957
     39  OH         1.7850  -10.0760  -23.6260 O.3    79  TYR79      -0.2866
     40  N          5.1810   -5.7770  -20.3570 N.3   104  SER104     -0.1217
     41  CA         3.8840   -5.3650  -19.8210 C.3   104  SER104      0.1889
     42  C          3.3110   -6.4090  -18.8670 C.2   104  SER104      0.2288
     43  O          2.0980   -6.5980  -18.8010 O.2   104  SER104     -0.2866
     44  CB         2.8820   -5.0820  -20.9440 C.3   104  SER104      0.2089
     45  OG         3.4130   -4.2110  -21.9350 O.3   104  SER104     -0.2183
     46  N          1.7590   -8.0040  -15.8050 N.3   106  ASN106     -0.1240
     47  CA         0.9870   -7.4260  -14.7090 C.3   106  ASN106      0.1653
     48  C          1.3010   -8.0740  -13.3660 C.2   106  ASN106      0.2266
     49  O          1.1790   -7.4120  -12.3280 O.2   106  ASN106     -0.2867
     50  CB        -0.5130   -7.5260  -14.9950 C.3   106  ASN106      0.1155
     51  CG        -0.9670   -6.5360  -16.0440 C.2   106  ASN106      0.2627
     52  OD1       -0.2910   -5.5410  -16.2970 O.2   106  ASN106     -0.2716
     53  ND2       -2.1240   -6.7930  -16.6530 N.am  106  ASN106     -0.0877
     54  N         -2.8650   -4.4610  -10.1510 N.3   140  GLU140     -0.1231
     55  CA        -3.2950   -5.1580  -11.3580 C.3   140  GLU140      0.1699
     56  C         -4.2480   -6.2840  -10.9910 C.2   140  GLU140      0.2593
     57  O         -4.0370   -6.9800   -9.9950 O.2   140  GLU140     -0.2718
     58  CB        -2.0860   -5.7290  -12.1000 C.3   140  GLU140      0.0402
     59  CG        -1.0740   -4.6730  -12.4800 C.3   140  GLU140      0.1161
     60  CD        -1.4390   -3.9490  -13.7520 C.2   140  GLU140      0.3649
     61  OE1       -2.5500   -4.1840  -14.2900 O.co2 140  GLU140     -0.2457
     62  OE2       -0.6200   -3.1160  -14.1970 O.co2 140  GLU140     -0.2457
     63  N         -5.2690   -6.5090  -11.8230 N.am  141  SER141     -0.1938
     64  CA        -5.4240   -5.8520  -13.1180 C.3   141  SER141      0.2055
     65  C         -6.4850   -4.7610  -13.1290 C.2   141  SER141      0.2643
     66  O         -6.7640   -4.1840  -14.1850 O.2   141  SER141     -0.2714
     67  CB        -5.7860   -6.8850  -14.1840 C.3   141  SER141      0.2130
     68  OG        -7.0140   -7.5040  -13.8550 O.3   141  SER141     -0.2179
     69  N         -7.0930   -4.4810  -11.9720 N.am  142  THR142     -0.1950
     70  CA        -8.2000   -3.5300  -11.9720 C.3   142  THR142      0.1897
     71  C         -7.7530   -2.1000  -12.2370 C.2   142  THR142      0.2313
     72  O         -8.6050   -1.2620  -12.5560 O.2   142  THR142     -0.2863
     73  CB        -8.9750   -3.5770  -10.6490 C.3   142  THR142      0.1794
     74  OG1       -8.0980   -3.2580   -9.5610 O.3   142  THR142     -0.2208
     75  CG2       -9.5850   -4.9470  -10.4280 C.3   142  THR142      0.0378
     76  N         -6.6300   -1.0450  -14.7750 N.3   144  ASN144     -0.1225
     77  CA        -6.8300   -0.8160  -16.2040 C.3   144  ASN144      0.1785
     78  C         -8.3000   -0.6980  -16.6040 C.2   144  ASN144      0.2597
     79  O         -8.6050   -0.7820  -17.7980 O.2   144  ASN144     -0.2718
     80  CB        -6.1850   -1.9380  -17.0240 C.3   144  ASN144      0.1169
     81  CG        -4.7320   -2.1610  -16.6670 C.2   144  ASN144      0.2627
     82  OD1       -3.8830   -1.3100  -16.9220 O.2   144  ASN144     -0.2716
     83  ND2       -4.4350   -3.3180  -16.0690 N.am  144  ASN144     -0.0877
     84  N         -9.2200   -0.5070  -15.6500 N.am  145  THR145     -0.1953
     85  CA       -10.6350   -0.4380  -16.0240 C.3   145  THR145      0.1897
     86  C        -10.9360    0.7920  -16.8760 C.2   145  THR145      0.2313
     87  O        -11.8680    0.7580  -17.6850 O.2   145  THR145     -0.2863
     88  CB       -11.5540   -0.4640  -14.7920 C.3   145  THR145      0.1794
     89  OG1      -11.1510    0.5310  -13.8410 O.3   145  THR145     -0.2208
     90  CG2      -11.5180   -1.8380  -14.1380 C.3   145  THR145      0.0378
     91  N          6.9700   -4.0660  -26.6200 N.3   190  THR190     -0.1218
     92  CA         5.5380   -3.9530  -26.8780 C.3   190  THR190      0.1862
     93  C          5.1640   -2.7090  -27.6740 C.2   190  THR190      0.2287
     94  O          3.9780   -2.4860  -27.9190 O.2   190  THR190     -0.2866
     95  CB         4.7530   -3.9410  -25.5660 C.3   190  THR190      0.1770
     96  OG1        5.0370   -2.7150  -24.8790 O.3   190  THR190     -0.2211
     97  CG2        5.1940   -5.0760  -24.6710 C.3   190  THR190      0.0375
     98  N          7.1980    3.0050  -22.9770 N.3   208  LYS208     -0.1231
     99  CA         6.3380    2.0780  -22.2550 C.3   208  LYS208      0.1693
    100  C          4.9020    2.2770  -22.7000 C.2   208  LYS208      0.2593
    101  O          4.3810    3.3940  -22.6330 O.2   208  LYS208     -0.2718
    102  CB         6.4260    2.2790  -20.7450 C.3   208  LYS208      0.0285
    103  CG         5.4630    1.4070  -19.9700 C.3   208  LYS208      0.0035
    104  CD         6.0020   -0.0130  -19.8300 C.3   208  LYS208      0.0206
    105  CE         4.9190   -0.9970  -19.3790 C.3   208  LYS208      0.1093
    106  NZ         4.0270   -1.3730  -20.5150 N.3   208  LYS208     -0.1314
    107  N          4.2610    1.1910  -23.1140 N.am  209  THR209     -0.1939
    108  CA         2.8820    1.2330  -23.5710 C.3   209  THR209      0.2028
    109  C          1.9150    1.0040  -22.4200 C.2   209  THR209      0.2643
    110  O          2.2920    0.6240  -21.3090 O.2   209  THR209     -0.2714
    111  CB         2.6430    0.1700  -24.6450 C.3   209  THR209      0.1808
    112  OG1        2.9840   -1.1110  -24.0950 O.3   209  THR209     -0.2208
    113  CG2        3.4790    0.4400  -25.8870 C.3   209  THR209      0.0379
    114  N          0.6460    1.2400  -22.7080 N.am  210  GLY210     -0.1939
    115  CA        -0.4170    0.8460  -21.8010 C.3   210  GLY210      0.2014
    116  C         -1.6560    0.5450  -22.6050 C.2   210  GLY210      0.2640
    117  O         -1.8730    1.1130  -23.6820 O.2   210  GLY210     -0.2714
    118  N         -2.4590   -0.3840  -22.1030 N.am  211  SER211     -0.1935
    119  CA        -3.7550   -0.6090  -22.7140 C.3   211  SER211      0.2055
    120  C         -4.7560   -1.0450  -21.6570 C.2   211  SER211      0.2644
    121  O         -4.3980   -1.5600  -20.5920 O.2   211  SER211     -0.2714
    122  CB        -3.6710   -1.6310  -23.8460 C.3   211  SER211      0.2130
    123  OG        -3.4090   -2.9160  -23.3480 O.3   211  SER211     -0.2179
    124  N         -6.0220   -0.8030  -21.9620 N.am  212  GLY212     -0.1939
    125  CA        -7.0660   -1.0820  -21.0000 C.3   212  GLY212      0.2014
    126  C         -8.4230   -1.0960  -21.6630 C.2   212  GLY212      0.2638
    127  O         -8.5440   -1.0430  -22.8890 O.2   212  GLY212     -0.2714
    128  N         -9.4530   -1.1520  -20.8250 N.am  213  ASP213     -0.1971
    129  CA       -10.8150   -1.0980  -21.3230 C.3   213  ASP213      0.1709
    130  C        -11.0840    0.2820  -21.9210 C.2   213  ASP213      0.2293
    131  O        -10.2520    1.1950  -21.8530 O.2   213  ASP213     -0.2864
    132  CB       -11.8030   -1.4110  -20.2000 C.3   213  ASP213      0.1436
    133  CG       -11.7260   -2.8450  -19.7240 C.2   213  ASP213      0.3671
    134  OD1      -11.2210   -3.7020  -20.4790 O.co2 213  ASP213     -0.2456
    135  OD2      -12.1680   -3.1130  -18.5860 O.co2 213  ASP213     -0.2456
@<TRIPOS>BOND
     1    94    93    2
     2    93    92    1
     3    92    91    1
     4    92    95    1
     5   113   111    1
     6    95    96    1
     7    95    97    1
     8   111   112    1
     9   111   108    1
    10   122   123    1
    11   122   119    1
    12   117   116    2
    13    39    38    1
    14   108   107    1
    15   108   109    1
    16   107   100   am
    17    98    99    1
    18   127   126    2
    19   119   118    1
    20   119   120    1
    21   114   109   am
    22   114   115    1
    23   100   101    2
    24   100    99    1
    25   116   118   am
    26   116   115    1
    27    38    36   ar
    28    38    37   ar
    29    36    34   ar
    30   109   110    2
    31    99   102    1
    32   124   120   am
    33   124   125    1
    34    45    44    1
    35   130   131    2
    36   130   129    1
    37   126   125    1
    38   126   128   am
    39   120   121    2
    40    37    35   ar
    41    34    33   ar
    42   129   128    1
    43   129   132    1
    44    44    41    1
    45   102   103    1
    46   106   105    1
    47   134   133   ar
    48    35    33   ar
    49    40    41    1
    50    33    32    1
    51   132   133    1
    52   103   104    1
    53   104   105    1
    54    41    42    1
    55   133   135   ar
    56    32    29    1
    57     6     5    1
    58     5     2    1
    59    42    43    2
    60    23    22    2
    61    29    30    1
    62    29    28    1
    63     7     8    1
    64     7     3   am
    65     9     8    1
    66     9    10    2
    67    79    78    2
    68    27    25   am
    69    87    86    2
    70    30    31    2
    71     2     1    1
    72     2     3    1
    73    22    28   am
    74    22    21    1
    75     3     4    2
    76    80    81    1
    77    80    77    1
    78    19    18    1
    79    82    81    2
    80    86    85    1
    81    25    24    1
    82    25    26    2
    83    24    21    1
    84    81    83   am
    85    53    51   am
    86    78    77    1
    87    78    84   am
    88    52    51    2
    89    21    20    1
    90    77    76    1
    91    17    18    1
    92    17    16    1
    93    51    50    1
    94    85    84    1
    95    85    88    1
    96    46    47    1
    97    15    16    1
    98    15    12    1
    99    50    47    1
   100    11    12    1
   101    88    90    1
   102    88    89    1
   103    47    48    1
   104    12    13    1
   105    13    14    2
   106    61    60   ar
   107    62    60   ar
   108    66    65    2
   109    67    68    1
   110    67    64    1
   111    60    59    1
   112    48    49    2
   113    65    64    1
   114    65    69   am
   115    64    63    1
   116    72    71    2
   117    59    58    1
   118    71    70    1
   119    58    55    1
   120    70    69    1
   121    70    73    1
   122    63    56   am
   123    55    56    1
   124    55    54    1
   125    56    57    2
   126    73    75    1
   127    73    74    1
