@<TRIPOS>MOLECULE
tmp/5twgA00.pdb
 131 130 0 0 0
SMALL
GASTEIGER

@<TRIPOS>ATOM
      1  N         12.4380   -3.4460   -1.5360 N.3    73  PRO73      -0.2102
      2  CA        11.8180   -2.1780   -1.1260 C.3    73  PRO73       0.1504
      3  C         11.4690   -2.1140    0.3570 C.2    73  PRO73       0.2576
      4  O         11.1310   -1.0250    0.8510 O.2    73  PRO73      -0.2718
      5  CB        10.5640   -2.0910   -2.0210 C.3    73  PRO73       0.0282
      6  CG        10.2200   -3.5210   -2.3010 C.3    73  PRO73       0.0208
      7  CD        11.4710   -4.3540   -2.1790 C.3    73  PRO73       0.0893
      8  N         11.4630   -3.2500    1.0600 N.am   74  ARG74      -0.1966
      9  CA        11.1230   -3.2420    2.4750 C.3    74  ARG74       0.1729
     10  C         12.2890   -2.8160    3.3510 C.2    74  ARG74       0.2616
     11  O         12.0540   -2.4340    4.4980 O.2    74  ARG74      -0.2715
     12  CB        10.6240   -4.6210    2.9120 C.3    74  ARG74       0.0348
     13  CG         9.2540   -5.0070    2.4230 C.3    74  ARG74       0.0492
     14  CD         8.7350   -6.1980    3.2140 C.3    74  ARG74       0.2205
     15  NE         9.6870   -7.3100    3.2380 N.pl3  74  ARG74      -0.0865
     16  CZ         9.8540   -8.1850    2.2460 C.cat  74  ARG74       0.5346
     17  NH1        9.1290   -8.0840    1.1400 N.pl3  74  ARG74       0.1354
     18  NH2       10.7480   -9.1610    2.3550 N.pl3  74  ARG74       0.1354
     19  N         13.5300   -2.8440    2.8420 N.am   75  TYR75      -0.1960
     20  CA        14.6900   -2.5350    3.6690 C.3    75  TYR75       0.1771
     21  C         15.6370   -1.5720    2.9600 C.2    75  TYR75       0.2619
     22  O         16.0010   -1.7740    1.7960 O.2    75  TYR75      -0.2715
     23  CB        15.4340   -3.8260    4.0720 C.3    75  TYR75       0.0574
     24  CG        14.5520   -4.8940    4.7150 C.ar   75  TYR75      -0.0198
     25  CD1       14.3680   -4.9370    6.0920 C.ar   75  TYR75      -0.0009
     26  CD2       13.9110   -5.8670    3.9330 C.ar   75  TYR75      -0.0009
     27  CE1       13.5770   -5.9130    6.6780 C.ar   75  TYR75       0.0417
     28  CE2       13.1140   -6.8490    4.5140 C.ar   75  TYR75       0.0417
     29  CZ        12.9620   -6.8650    5.8940 C.ar   75  TYR75       0.1957
     30  OH        12.1840   -7.8300    6.4880 O.3    75  TYR75      -0.2866
     31  N         16.0480   -0.5320    3.6880 N.am   76  GLU76      -0.1963
     32  CA        16.9540    0.4910    3.1900 C.3    76  GLU76       0.1733
     33  C         18.0190    0.7620    4.2510 C.2    76  GLU76       0.2616
     34  O         17.7670    0.6230    5.4500 O.2    76  GLU76      -0.2715
     35  CB        16.1510    1.7460    2.8240 C.3    76  GLU76       0.0429
     36  CG        16.9290    3.0060    2.5540 C.3    76  GLU76       0.1163
     37  CD        16.0070    4.1400    2.1630 C.2    76  GLU76       0.3649
     38  OE1       16.4840    5.2810    1.9670 O.co2  76  GLU76      -0.2457
     39  OE2       14.7900    3.8800    2.0490 O.co2  76  GLU76      -0.2457
     40  N         19.2230    1.1240    3.8140 N.am   77  TYR77      -0.1960
     41  CA        20.3270    1.3040    4.7440 C.3    77  TYR77       0.1771
     42  C         20.9880    2.6620    4.5600 C.2    77  TYR77       0.2619
     43  O         21.3010    3.0770    3.4360 O.2    77  TYR77      -0.2715
     44  CB        21.3740    0.1990    4.5920 C.3    77  TYR77       0.0574
     45  CG        20.8190   -1.1930    4.7870 C.ar   77  TYR77      -0.0198
     46  CD1       20.6750   -1.7270    6.0650 C.ar   77  TYR77      -0.0009
     47  CD2       20.4750   -1.9910    3.6910 C.ar   77  TYR77      -0.0009
     48  CE1       20.1870   -3.0040    6.2510 C.ar   77  TYR77       0.0417
     49  CE2       19.9860   -3.2800    3.8680 C.ar   77  TYR77       0.0417
     50  CZ        19.8470   -3.7770    5.1490 C.ar   77  TYR77       0.1957
     51  OH        19.3690   -5.0520    5.3360 O.3    77  TYR77      -0.2866
     52  N         21.2010    3.3450    5.6850 N.am   78  HIS78      -0.1973
     53  CA        21.9060    4.6150    5.7210 C.3    78  HIS78       0.1656
     54  C         23.1810    4.4640    6.5290 C.2    78  HIS78       0.2291
     55  O         23.2080    3.7620    7.5420 O.2    78  HIS78      -0.2864
     56  CB        21.0430    5.6920    6.3270 C.3    78  HIS78       0.0771
     57  CG        19.6690    5.7490    5.7360 C.ar   78  HIS78       0.0820
     58  ND1       19.4230    6.2500    4.4730 N.ar   78  HIS78      -0.2267
     59  CD2       18.4660    5.3540    6.2220 C.ar   78  HIS78       0.1154
     60  CE1       18.1290    6.1790    4.2150 C.ar   78  HIS78       0.1986
     61  NE2       17.5250    5.6350    5.2590 N.ar   78  HIS78      -0.2212
     62  N         26.3960    5.1280    8.8610 N.3    80  ALA80      -0.1245
     63  CA        26.9660    5.8060   10.0210 C.3    80  ALA80       0.1562
     64  C         27.9660    4.8700   10.6940 C.2    80  ALA80       0.2260
     65  O         27.9160    3.6520   10.5090 O.2    80  ALA80      -0.2867
     66  CB        25.8760    6.2400   11.0040 C.3    80  ALA80       0.0290
     67  N         23.0750    8.7700   10.6830 N.3    88  PRO88      -0.2116
     68  CA        22.9490    7.9780    9.4440 C.3    88  PRO88       0.1372
     69  C         22.6160    8.8370    8.2250 C.2    88  PRO88       0.2244
     70  O         21.7210    9.6850    8.2710 O.2    88  PRO88      -0.2868
     71  CB        21.8170    6.9960    9.7770 C.3    88  PRO88       0.0268
     72  CG        21.8800    6.8460   11.2820 C.3    88  PRO88       0.0207
     73  CD        22.2720    8.2080   11.7900 C.3    88  PRO88       0.0892
     74  N         27.6450   -8.1680   10.3790 N.3   135  LYS135     -0.1231
     75  CA        26.2960   -7.6430   10.2250 C.3   135  LYS135      0.1693
     76  C         26.1920   -6.7450    8.9960 C.2   135  LYS135      0.2591
     77  O         25.1790   -6.7620    8.2830 O.2   135  LYS135     -0.2718
     78  CB        25.9120   -6.8710   11.4950 C.3   135  LYS135      0.0285
     79  CG        24.8160   -5.8560   11.3120 C.3   135  LYS135      0.0035
     80  CD        24.1730   -5.4550   12.6420 C.3   135  LYS135      0.0206
     81  CE        25.0670   -4.5400   13.4720 C.3   135  LYS135      0.1093
     82  NZ        24.6800   -3.0990   13.4740 N.3   135  LYS135     -0.1314
     83  N         27.2360   -5.9390    8.7430 N.am  136  ARG136     -0.1980
     84  CA        27.2050   -5.0170    7.6150 C.3   136  ARG136      0.1597
     85  C         27.5860   -5.6840    6.3160 C.2   136  ARG136      0.2287
     86  O         27.0180   -5.3330    5.2780 O.2   136  ARG136     -0.2864
     87  CB        28.1080   -3.8240    7.8580 C.3   136  ARG136      0.0334
     88  CG        28.0220   -3.2790    9.2480 C.3   136  ARG136      0.0492
     89  CD        27.6770   -1.8160    9.2660 C.3   136  ARG136      0.2205
     90  NE        28.0450   -1.3180   10.5710 N.pl3 136  ARG136     -0.0865
     91  CZ        28.1600   -0.0270   10.8510 C.cat 136  ARG136      0.5346
     92  NH1       27.9060    0.8850    9.9190 N.pl3 136  ARG136      0.1354
     93  NH2       28.4950    0.3770   12.0670 N.pl3 136  ARG136      0.1354
     94  N         24.6350   -7.1460    4.5380 N.3   139  ARG139     -0.1245
     95  CA        23.8330   -6.2590    3.7090 C.3   139  ARG139      0.1563
     96  C         24.3860   -6.1190    2.3050 C.2   139  ARG139      0.2260
     97  O         23.6590   -5.6520    1.4250 O.2   139  ARG139     -0.2867
     98  CB        23.7040   -4.8790    4.3600 C.3   139  ARG139      0.0307
     99  CG        23.4930   -4.9730    5.8150 C.3   139  ARG139      0.0489
    100  CD        23.5830   -3.5930    6.4440 C.3   139  ARG139      0.2205
    101  NE        23.1160   -3.7150    7.8050 N.pl3 139  ARG139     -0.0865
    102  CZ        23.2290   -2.7330    8.6870 C.cat 139  ARG139      0.5346
    103  NH1       23.8010   -1.5750    8.3510 N.pl3 139  ARG139      0.1354
    104  NH2       22.7860   -2.8940    9.9160 N.pl3 139  ARG139      0.1354
    105  N         16.7770  -10.1330   13.4330 N.3   181  ARG181     -0.1231
    106  CA        16.3810   -8.8370   13.0110 C.3   181  ARG181      0.1694
    107  C         17.0900   -8.4080   11.7530 C.2   181  ARG181      0.2591
    108  O         16.4850   -7.8880   10.8520 O.2   181  ARG181     -0.2718
    109  CB        16.7530   -7.8700   14.1180 C.3   181  ARG181      0.0321
    110  CG        15.6930   -6.8760   14.4990 C.3   181  ARG181      0.0489
    111  CD        16.2750   -5.5040   14.7950 C.3   181  ARG181      0.2205
    112  NE        15.2210   -4.5100   14.8910 N.pl3 181  ARG181     -0.0865
    113  CZ        14.3770   -4.4310   15.9090 C.cat 181  ARG181      0.5346
    114  NH1       14.4920   -5.2800   16.9190 N.pl3 181  ARG181      0.1354
    115  NH2       13.4190   -3.5100   15.9190 N.pl3 181  ARG181      0.1354
    116  N         18.3940   -8.6040   11.7000 N.am  182  GLU182     -0.1979
    117  CA        19.1950   -8.1540   10.5630 C.3   182  GLU182      0.1602
    118  C         19.1360   -9.0770    9.3460 C.2   182  GLU182      0.2287
    119  O         19.3370   -8.5950    8.2220 O.2   182  GLU182     -0.2864
    120  CB        20.6430   -7.9340   10.9910 C.3   182  GLU182      0.0415
    121  CG        20.7280   -6.9820   12.1940 C.3   182  GLU182      0.1163
    122  CD        20.7890   -5.5260   11.7760 C.2   182  GLU182      0.3649
    123  OE1       21.2580   -5.2700   10.6400 O.co2 182  GLU182     -0.2457
    124  OE2       20.3210   -4.6540   12.5620 O.co2 182  GLU182     -0.2457
    125  N         15.9620   -9.4240    5.5820 N.3   185  PRO185     -0.2116
    126  CA        15.9020   -9.2230    4.1210 C.3   185  PRO185      0.1372
    127  C         16.0770  -10.5080    3.3180 C.2   185  PRO185      0.2244
    128  O         15.4800  -10.6570    2.2480 O.2   185  PRO185     -0.2868
    129  CB        17.0460   -8.2330    3.8680 C.3   185  PRO185      0.0268
    130  CG        17.1400   -7.4480    5.1360 C.3   185  PRO185      0.0207
    131  CD        16.9070   -8.4640    6.2070 C.3   185  PRO185      0.0892
@<TRIPOS>BOND
     1     6     7    1
     2     6     5    1
     3     7     1    1
     4     5     2    1
     5     1     2    1
     6     2     3    1
     7     3     4    2
     8     3     8   am
     9     8     9    1
    10    17    16    1
    11    97    96    2
    12    22    21    2
    13    38    37   ar
    14    39    37   ar
    15    37    36    1
    16    16    18    1
    17    16    15    2
    18   128   127    2
    19    96    95    1
    20    13    12    1
    21    13    14    1
    22     9    12    1
    23     9    10    1
    24    36    35    1
    25    35    32    1
    26    19    10   am
    27    19    20    1
    28    21    20    1
    29    21    31   am
    30    32    31    1
    31    32    33    1
    32    14    15    1
    33   127   126    1
    34    10    11    2
    35    43    42    2
    36    20    23    1
    37    47    49   ar
    38    47    45   ar
    39    95    98    1
    40    95    94    1
    41    40    33   am
    42    40    41    1
    43   129   126    1
    44   129   130    1
    45    49    50   ar
    46    26    28   ar
    47    26    24   ar
    48    23    24    1
    49   126   125    1
    50    60    58   ar
    51    60    61   ar
    52    33    34    2
    53    98    99    1
    54    58    57   ar
    55    28    29   ar
    56    42    41    1
    57    42    52   am
    58    44    41    1
    59    44    45    1
    60    24    25   ar
    61    45    46   ar
    62   130   131    1
    63    50    51    1
    64    50    48   ar
    65    61    59   ar
    66    86    85    2
    67   125   131    1
    68    52    53    1
    69    53    56    1
    70    53    54    1
    71    57    59   ar
    72    57    56    1
    73    99   100    1
    74    29    30    1
    75    29    27   ar
    76    46    48   ar
    77    25    27   ar
    78    85    84    1
    79   100   101    1
    80    54    55    2
    81    84    87    1
    82    84    83    1
    83   101   102    2
    84    87    88    1
    85   119   118    2
    86    69    70    2
    87    69    68    1
    88    77    76    2
    89   103   102    1
    90   102   104    1
    91    83    76   am
    92    62    63    1
    93    76    75    1
    94    88    89    1
    95    89    90    1
    96   118   117    1
    97    68    71    1
    98    68    67    1
    99    71    72    1
   100    92    91    1
   101    63    64    1
   102    63    66    1
   103    75    74    1
   104    75    78    1
   105    65    64    2
   106   117   120    1
   107   117   116    1
   108    90    91    2
   109   123   122   ar
   110    67    73    1
   111    91    93    1
   112   108   107    2
   113   120   121    1
   114    72    73    1
   115    79    78    1
   116    79    80    1
   117   116   107   am
   118   107   106    1
   119   122   121    1
   120   122   124   ar
   121    80    81    1
   122   106   105    1
   123   106   109    1
   124    81    82    1
   125   109   110    1
   126   110   111    1
   127   111   112    1
   128   112   113    2
   129   113   115    1
   130   113   114    1
