@<TRIPOS>MOLECULE
tmp/5twhA00.pdb
 145 147 0 0 0
SMALL
GASTEIGER

@<TRIPOS>ATOM
      1  N          3.7180   12.5680   33.2370 N.3    74  PRO74      -0.2102
      2  CA         2.4250   11.9350   33.5400 C.3    74  PRO74       0.1504
      3  C          2.1950   11.7050   35.0230 C.2    74  PRO74       0.2576
      4  O          1.0390   11.5430   35.4340 O.2    74  PRO74      -0.2718
      5  CB         2.4950   10.6010   32.7800 C.3    74  PRO74       0.0282
      6  CG         3.6100   10.7660   31.7900 C.3    74  PRO74       0.0208
      7  CD         4.5870   11.6980   32.4310 C.3    74  PRO74       0.0893
      8  N          3.2520   11.6750   35.8360 N.am   75  ARG75      -0.1966
      9  CA         3.0960   11.3520   37.2490 C.3    75  ARG75       0.1729
     10  C          2.5850   12.5310   38.0650 C.2    75  ARG75       0.2616
     11  O          1.9170   12.3250   39.0820 O.2    75  ARG75      -0.2715
     12  CB         4.4250   10.8590   37.8270 C.3    75  ARG75       0.0348
     13  CG         4.8580    9.4840   37.3950 C.3    75  ARG75       0.0492
     14  CD         5.9630    8.9750   38.3060 C.3    75  ARG75       0.2205
     15  NE         7.0680    9.9280   38.4300 N.pl3  75  ARG75      -0.0865
     16  CZ         8.0370   10.0850   37.5280 C.cat  75  ARG75       0.5346
     17  NH1        8.0470    9.3480   36.4260 N.pl3  75  ARG75       0.1354
     18  NH2        8.9980   10.9810   37.7240 N.pl3  75  ARG75       0.1354
     19  N          2.8740   13.7600   37.6450 N.am   76  TYR76      -0.1960
     20  CA         2.5920   14.9420   38.4490 C.3    76  TYR76       0.1771
     21  C          1.5860   15.8400   37.7430 C.2    76  TYR76       0.2619
     22  O          1.7270   16.1280   36.5500 O.2    76  TYR76      -0.2715
     23  CB         3.8810   15.7040   38.7530 C.3    76  TYR76       0.0574
     24  CG         4.9080   14.8320   39.4310 C.ar   76  TYR76      -0.0198
     25  CD1        5.9220   14.2240   38.7020 C.ar   76  TYR76      -0.0009
     26  CD2        4.8480   14.5920   40.7970 C.ar   76  TYR76      -0.0009
     27  CE1        6.8560   13.4150   39.3170 C.ar   76  TYR76       0.0417
     28  CE2        5.7780   13.7840   41.4210 C.ar   76  TYR76       0.0417
     29  CZ         6.7800   13.1990   40.6770 C.ar   76  TYR76       0.1957
     30  OH         7.7090   12.3940   41.2940 O.3    76  TYR76      -0.2866
     31  N          0.5760   16.2790   38.4920 N.am   77  GLU77      -0.1963
     32  CA        -0.4970   17.1130   37.9720 C.3    77  GLU77       0.1733
     33  C         -0.8520   18.1540   39.0220 C.2    77  GLU77       0.2616
     34  O         -0.9830   17.8240   40.2040 O.2    77  GLU77      -0.2715
     35  CB        -1.7180   16.2590   37.6160 C.3    77  GLU77       0.0429
     36  CG        -3.0000   17.0300   37.3980 C.3    77  GLU77       0.1163
     37  CD        -4.0690   16.1820   36.7400 C.2    77  GLU77       0.3649
     38  OE1       -3.7380   15.0710   36.2750 O.co2  77  GLU77      -0.2457
     39  OE2       -5.2400   16.6140   36.7050 O.co2  77  GLU77      -0.2457
     40  N         -1.0060   19.4040   38.5980 N.am   78  TYR78      -0.1960
     41  CA        -1.2220   20.5150   39.5150 C.3    78  TYR78       0.1771
     42  C         -2.6170   21.0930   39.3300 C.2    78  TYR78       0.2620
     43  O         -3.0480   21.3410   38.1990 O.2    78  TYR78      -0.2715
     44  CB        -0.1630   21.6000   39.3070 C.3    78  TYR78       0.0574
     45  CG         1.2460   21.0840   39.4780 C.ar   78  TYR78      -0.0198
     46  CD1        1.7910   20.9130   40.7430 C.ar   78  TYR78      -0.0009
     47  CD2        2.0280   20.7610   38.3770 C.ar   78  TYR78      -0.0009
     48  CE1        3.0780   20.4360   40.9090 C.ar   78  TYR78       0.0417
     49  CE2        3.3170   20.2850   38.5320 C.ar   78  TYR78       0.0417
     50  CZ         3.8370   20.1250   39.7990 C.ar   78  TYR78       0.1957
     51  OH         5.1200   19.6520   39.9580 O.3    78  TYR78      -0.2866
     52  N         -3.3150   21.3050   40.4420 N.am   79  HIS79      -0.1959
     53  CA        -4.6280   21.9360   40.4550 C.3    79  HIS79       0.1787
     54  C         -4.5440   23.2000   41.2990 C.2    79  HIS79       0.2620
     55  O         -3.9450   23.1860   42.3800 O.2    79  HIS79      -0.2715
     56  CB        -5.6840   20.9760   40.9980 C.3    79  HIS79       0.0785
     57  CG        -5.7480   19.6790   40.2540 C.ar   79  HIS79       0.0821
     58  ND1       -6.1700   18.5040   40.8360 N.ar   79  HIS79      -0.2267
     59  CD2       -5.4420   19.3740   38.9700 C.ar   79  HIS79       0.1154
     60  CE1       -6.1200   17.5310   39.9440 C.ar   79  HIS79       0.1986
     61  NE2       -5.6850   18.0330   38.8030 N.ar   79  HIS79      -0.2212
     62  N         -5.1380   24.2870   40.8130 N.am   80  TRP80      -0.1960
     63  CA        -4.8190   25.6130   41.3280 C.3    80  TRP80       0.1771
     64  C         -5.7130   26.0180   42.4930 C.2    80  TRP80       0.2619
     65  O         -6.9370   25.8590   42.4360 O.2    80  TRP80      -0.2715
     66  CB        -4.9220   26.6640   40.2260 C.3    80  TRP80       0.0590
     67  CG        -4.6220   28.0230   40.7430 C.ar   80  TRP80       0.0006
     68  CD1       -5.4770   29.0840   40.8400 C.ar   80  TRP80       0.0946
     69  CD2       -3.3730   28.4620   41.2620 C.ar   80  TRP80       0.0152
     70  NE1       -4.8240   30.1660   41.3830 N.ar   80  TRP80      -0.2442
     71  CE2       -3.5310   29.8070   41.6500 C.ar   80  TRP80       0.0810
     72  CE3       -2.1350   27.8520   41.4320 C.ar   80  TRP80       0.0012
     73  CZ2       -2.4930   30.5450   42.1960 C.ar   80  TRP80       0.0191
     74  CZ3       -1.1070   28.5870   41.9740 C.ar   80  TRP80       0.0001
     75  CH2       -1.2890   29.9190   42.3510 C.ar   80  TRP80       0.0015
     76  N         -5.0850   26.5290   43.5510 N.am   81  ALA81      -0.1977
     77  CA        -5.7730   27.1620   44.6660 C.3    81  ALA81       0.1597
     78  C         -4.8260   28.1600   45.3080 C.2    81  ALA81       0.2287
     79  O         -3.6290   27.8810   45.4220 O.2    81  ALA81      -0.2864
     80  CB        -6.2230   26.1260   45.6960 C.3    81  ALA81       0.0319
     81  N         -8.4130   23.2370   45.5380 N.3    89  PRO89      -0.2116
     82  CA        -7.7150   23.2260   44.2460 C.3    89  PRO89       0.1372
     83  C         -8.6360   22.8100   43.1080 C.2    89  PRO89       0.2244
     84  O         -9.4380   21.8830   43.2390 O.2    89  PRO89      -0.2868
     85  CB        -6.5840   22.2110   44.4600 C.3    89  PRO89       0.0268
     86  CG        -6.9550   21.4530   45.7050 C.3    89  PRO89       0.0207
     87  CD        -7.7450   22.3970   46.5420 C.3    89  PRO89       0.0892
     88  N          8.3480   27.8320   45.0730 N.3   136  LYS136     -0.1231
     89  CA         7.8630   26.4750   44.8530 C.3   136  LYS136      0.1693
     90  C          6.8270   26.4310   43.7380 C.2   136  LYS136      0.2591
     91  O          6.7500   25.4440   42.9970 O.2   136  LYS136     -0.2718
     92  CB         7.2960   25.9120   46.1600 C.3   136  LYS136      0.0285
     93  CG         5.8650   25.3990   46.0900 C.3   136  LYS136      0.0035
     94  CD         5.3710   25.0090   47.4800 C.3   136  LYS136      0.0206
     95  CE         3.8640   25.1740   47.6200 C.3   136  LYS136      0.1093
     96  NZ         3.4260   25.0080   49.0370 N.3   136  LYS136     -0.1314
     97  N          6.0320   27.4930   43.5940 N.am  137  ARG137     -0.1980
     98  CA         5.0380   27.5400   42.5280 C.3   137  ARG137      0.1597
     99  C          5.6390   27.9430   41.1870 C.2   137  ARG137      0.2287
    100  O          5.1460   27.5050   40.1420 O.2   137  ARG137     -0.2864
    101  CB         3.9000   28.4840   42.9140 C.3   137  ARG137      0.0334
    102  CG         2.8680   27.8300   43.8180 C.3   137  ARG137      0.0492
    103  CD         1.8810   28.8310   44.3730 C.3   137  ARG137      0.2205
    104  NE         0.8360   28.1710   45.1500 N.pl3 137  ARG137     -0.0865
    105  CZ         0.0170   28.8010   45.9820 C.cat 137  ARG137      0.5346
    106  NH1        0.1250   30.1100   46.1500 N.pl3 137  ARG137      0.1354
    107  NH2       -0.9070   28.1240   46.6480 N.pl3 137  ARG137      0.1354
    108  N          7.2790   24.9270   39.2540 N.3   140  ARG140     -0.1245
    109  CA         6.3710   24.1250   38.4450 C.3   140  ARG140      0.1563
    110  C          6.3030   24.6030   37.0030 C.2   140  ARG140      0.2260
    111  O          5.9580   23.8140   36.1180 O.2   140  ARG140     -0.2867
    112  CB         4.9760   24.1410   39.0660 C.3   140  ARG140      0.0307
    113  CG         4.9350   23.6190   40.4890 C.3   140  ARG140      0.0489
    114  CD         3.6020   23.9200   41.1440 C.3   140  ARG140      0.2205
    115  NE         3.5150   23.3380   42.4790 N.pl3 140  ARG140     -0.0865
    116  CZ         2.5400   23.5970   43.3430 C.cat 140  ARG140      0.5346
    117  NH1        1.5650   24.4330   43.0130 N.pl3 140  ARG140      0.1354
    118  NH2        2.5400   23.0220   44.5370 N.pl3 140  ARG140      0.1354
    119  N         10.1810   17.0150   48.0950 N.3   182  ARG182     -0.1231
    120  CA         8.9650   16.4480   47.5210 C.3   182  ARG182      0.1694
    121  C          8.4450   17.2820   46.3570 C.2   182  ARG182      0.2591
    122  O          7.7860   16.7480   45.4580 O.2   182  ARG182     -0.2718
    123  CB         7.8890   16.3140   48.5990 C.3   182  ARG182      0.0321
    124  CG         6.6480   15.5530   48.1220 C.3   182  ARG182      0.0489
    125  CD         5.4260   15.8380   48.9860 C.3   182  ARG182      0.2205
    126  NE         5.1010   17.2640   48.9930 N.pl3 182  ARG182     -0.0865
    127  CZ         5.2180   18.0610   50.0540 C.cat 182  ARG182      0.5346
    128  NH1        5.6490   17.5770   51.2130 N.pl3 182  ARG182      0.1354
    129  NH2        4.9270   19.3530   49.9470 N.pl3 182  ARG182      0.1354
    130  N          8.9760   18.4450   46.5360 N.am  183  GLU183     -0.1979
    131  CA         8.4010   19.2920   45.5260 C.3   183  GLU183      0.1602
    132  C          9.1920   19.2890   44.2210 C.2   183  GLU183      0.2287
    133  O          8.6180   19.4690   43.1530 O.2   183  GLU183     -0.2864
    134  CB         8.0530   20.8780   45.7340 C.3   183  GLU183      0.0415
    135  CG         6.9290   21.1500   46.7280 C.3   183  GLU183      0.1163
    136  CD         5.5600   20.9720   46.0650 C.2   183  GLU183      0.3649
    137  OE1        5.0680   19.8510   46.0300 O.co2 183  GLU183     -0.2457
    138  OE2        5.0240   21.9720   45.5360 O.co2 183  GLU183     -0.2457
    139  N          9.5930   16.0500   40.2630 N.3   186  PRO186     -0.2116
    140  CA         9.4480   15.8850   38.8010 C.3   186  PRO186      0.1372
    141  C         10.7360   16.0660   38.0080 C.2   186  PRO186      0.2244
    142  O         10.9460   15.3490   37.0210 O.2   186  PRO186     -0.2868
    143  CB         8.4130   16.9570   38.4290 C.3   186  PRO186      0.0268
    144  CG         7.6420   17.1920   39.6760 C.3   186  PRO186      0.0207
    145  CD         8.6190   17.0250   40.7950 C.3   186  PRO186      0.0892
@<TRIPOS>BOND
     1     6     7    1
     2     6     5    1
     3     7     1    1
     4     5     2    1
     5     1     2    1
     6     2     3    1
     7     3     4    2
     8     3     8   am
     9     8     9    1
    10   111   110    2
    11    38    37   ar
    12    17    16    1
    13    22    21    2
    14    39    37   ar
    15    37    36    1
    16   110   109    1
    17   142   141    2
    18     9    12    1
    19     9    10    1
    20    13    12    1
    21    13    14    1
    22    36    35    1
    23    16    18    1
    24    16    15    2
    25    35    32    1
    26    19    10   am
    27    19    20    1
    28    21    20    1
    29    21    31   am
    30    32    31    1
    31    32    33    1
    32   141   140    1
    33    10    11    2
    34    43    42    2
    35    14    15    1
    36    47    49   ar
    37    47    45   ar
    38   143   140    1
    39   143   144    1
    40   109   112    1
    41   109   108    1
    42    20    23    1
    43    49    50   ar
    44    40    33   am
    45    40    41    1
    46    25    27   ar
    47    25    24   ar
    48    23    24    1
    49   140   139    1
    50    61    59   ar
    51    61    60   ar
    52    59    57   ar
    53    33    34    2
    54   112   113    1
    55    44    45    1
    56    44    41    1
    57    27    29   ar
    58    42    41    1
    59    42    52   am
    60    24    26   ar
    61    45    46   ar
    62   144   145    1
    63    50    51    1
    64    50    48   ar
    65    60    58   ar
    66   100    99    2
    67    66    67    1
    68    66    63    1
    69    57    58   ar
    70    57    56    1
    71   139   145    1
    72    52    53    1
    73    53    56    1
    74    53    54    1
    75   113   114    1
    76    29    30    1
    77    29    28   ar
    78    46    48   ar
    79    67    68   ar
    80    67    69   ar
    81    26    28   ar
    82    62    54   am
    83    62    63    1
    84    68    70   ar
    85   114   115    1
    86    99    98    1
    87    69    72   ar
    88    69    71   ar
    89    54    55    2
    90    63    64    1
    91    70    71   ar
    92    72    74   ar
    93    71    73   ar
    94    74    75   ar
    95    73    75   ar
    96    65    64    2
    97   115   116    2
    98    64    76   am
    99    98   101    1
   100    98    97    1
   101   101   102    1
   102    91    90    2
   103   117   116    1
   104    83    84    2
   105    83    82    1
   106   133   132    2
   107   116   118    1
   108    76    77    1
   109    97    90   am
   110    90    89    1
   111   102   103    1
   112   132   131    1
   113    82    85    1
   114    82    81    1
   115   103   104    1
   116    85    86    1
   117    77    78    1
   118    77    80    1
   119    89    88    1
   120    89    92    1
   121   104   105    2
   122    78    79    2
   123   122   121    2
   124   131   134    1
   125   131   130    1
   126   138   136   ar
   127    81    87    1
   128    86    87    1
   129   134   135    1
   130   105   106    1
   131   105   107    1
   132   137   136   ar
   133   136   135    1
   134    93    92    1
   135    93    94    1
   136   121   130   am
   137   121   120    1
   138    94    95    1
   139   120   119    1
   140   120   123    1
   141    95    96    1
   142   124   123    1
   143   124   125    1
   144   125   126    1
   145   126   127    2
   146   129   127    1
   147   127   128    1
