@<TRIPOS>MOLECULE
tmp/5twjB00.pdb
 165 165 0 0 0
SMALL
GASTEIGER

@<TRIPOS>ATOM
      1  N        -12.8980   -0.4120   36.3760 N.3    74  LEU74      -0.1231
      2  CA       -12.1350   -0.1430   37.5730 C.3    74  LEU74       0.1693
      3  C        -13.0140   -0.6160   38.7080 C.2    74  LEU74       0.2592
      4  O        -14.1260   -0.1090   38.8940 O.2    74  LEU74      -0.2718
      5  CB       -11.7970    1.3480   37.7160 C.3    74  LEU74       0.0284
      6  CG       -10.5770    1.8740   36.9290 C.3    74  LEU74       0.0019
      7  CD1       -9.2570    1.2490   37.4740 C.3    74  LEU74       0.0001
      8  CD2      -10.7110    1.6480   35.4150 C.3    74  LEU74       0.0001
      9  N        -12.5640   -1.6290   39.4350 N.am   75  ASP75      -0.1960
     10  CA       -13.3620   -2.1150   40.5540 C.3    75  ASP75       0.1840
     11  C        -12.4360   -2.6730   41.6390 C.2    75  ASP75       0.2622
     12  O        -11.4070   -3.2780   41.3400 O.2    75  ASP75      -0.2715
     13  CB       -14.3670   -3.1640   40.0740 C.3    75  ASP75       0.1450
     14  CG       -15.7120   -3.0850   40.8070 C.2    75  ASP75       0.3671
     15  OD1      -15.9220   -2.1410   41.6030 O.co2  75  ASP75      -0.2456
     16  OD2      -16.5570   -3.9940   40.5830 O.co2  75  ASP75      -0.2456
     17  N        -12.7930   -2.4440   42.8980 N.am   76  ILE76      -0.1964
     18  CA       -12.0030   -2.9450   44.0190 C.3    76  ILE76       0.1712
     19  C        -11.7690   -4.4550   43.9270 C.2    76  ILE76       0.2458
     20  O        -10.6560   -4.9130   44.1730 O.2    76  ILE76      -0.2730
     21  CB       -12.6640   -2.6030   45.3720 C.3    76  ILE76       0.0289
     22  CG1      -12.7820   -1.0880   45.5630 C.3    76  ILE76       0.0022
     23  CG2      -11.8680   -3.1860   46.5410 C.3    76  ILE76       0.0023
     24  CD1      -13.4310   -0.7180   46.9130 C.3    76  ILE76       0.0001
     25  N        -12.7930   -5.2370   43.5340 N.am   77  PRO77      -0.2727
     26  CA       -12.4420   -6.6590   43.4900 C.3    77  PRO77       0.1402
     27  C        -11.8420   -7.1390   42.1630 C.2    77  PRO77       0.2269
     28  O        -11.7660   -8.3510   41.9510 O.2    77  PRO77      -0.2865
     29  CB       -13.7890   -7.3470   43.7610 C.3    77  PRO77       0.0296
     30  CG       -14.7930   -6.4160   43.1970 C.3    77  PRO77       0.0237
     31  CD       -14.2550   -5.0290   43.4300 C.3    77  PRO77       0.0939
     32  N        -15.4290    3.9240   35.3570 N.3   104  ILE104     -0.1231
     33  CA       -15.3990    4.2840   36.7710 C.3   104  ILE104      0.1692
     34  C        -16.7710    4.6360   37.2860 C.2   104  ILE104      0.2593
     35  O        -17.4170    5.5480   36.7680 O.2   104  ILE104     -0.2718
     36  CB       -14.4880    5.4650   37.0390 C.3   104  ILE104      0.0266
     37  CG1      -13.0950    5.2000   36.4680 C.3   104  ILE104      0.0019
     38  CG2      -14.4370    5.7650   38.5560 C.3   104  ILE104      0.0020
     39  CD1      -12.2000    6.4280   36.5770 C.3   104  ILE104      0.0001
     40  N        -17.2130    3.9140   38.3100 N.am  105  GLY105     -0.1942
     41  CA       -18.5610    4.0700   38.8050 C.3   105  GLY105      0.2014
     42  C        -18.7740    5.3460   39.5920 C.2   105  GLY105      0.2639
     43  O        -17.8200    6.0310   39.9940 O.2   105  GLY105     -0.2714
     44  N        -20.0470    5.6480   39.8150 N.am  106  GLY106     -0.1940
     45  CA       -20.4540    6.7860   40.6040 C.3   106  GLY106      0.1999
     46  C        -20.4760    6.4670   42.0900 C.2   106  GLY106      0.2481
     47  O        -19.8940    5.4680   42.5440 O.2   106  GLY106     -0.2729
     48  N        -21.1710    7.3140   42.8610 N.am  107  PRO107     -0.2715
     49  CA       -21.1740    7.2550   44.3270 C.3   107  PRO107      0.1536
     50  C        -21.6140    5.8880   44.8400 C.2   107  PRO107      0.2598
     51  O        -21.1220    5.4240   45.8750 O.2   107  PRO107     -0.2715
     52  CB       -22.1720    8.3510   44.7150 C.3   107  PRO107      0.0310
     53  CG       -22.1990    9.2730   43.5480 C.3   107  PRO107      0.0237
     54  CD       -22.0150    8.4040   42.3440 C.3   107  PRO107      0.0939
     55  N        -22.5040    5.2420   44.0940 N.am  108  GLU108     -0.1964
     56  CA       -22.9830    3.9110   44.4260 C.3   108  GLU108      0.1733
     57  C        -22.2330    2.7990   43.6660 C.2   108  GLU108      0.2617
     58  O        -22.6750    1.6480   43.6410 O.2   108  GLU108     -0.2715
     59  CB       -24.4860    3.8300   44.1540 C.3   108  GLU108      0.0429
     60  CG       -25.2800    4.9330   44.8460 C.3   108  GLU108      0.1163
     61  CD       -25.2750    4.7830   46.3500 C.2   108  GLU108      0.3649
     62  OE1      -24.3120    5.2210   47.0090 O.co2 108  GLU108     -0.2457
     63  OE2      -26.2340    4.2080   46.8920 O.co2 108  GLU108     -0.2457
     64  N        -21.1340    3.1490   43.0060 N.am  109  GLY109     -0.1940
     65  CA       -20.3550    2.1500   42.2930 C.3   109  GLY109      0.2014
     66  C        -20.8960    1.8430   40.9110 C.2   109  GLY109      0.2638
     67  O        -21.8090    2.5010   40.4520 O.2   109  GLY109     -0.2714
     68  N        -20.3710    0.8010   40.2840 N.am  110  LEU110     -0.1977
     69  CA       -20.8120    0.3830   38.9460 C.3   110  LEU110      0.1596
     70  C        -22.1670   -0.3300   38.9210 C.2   110  LEU110      0.2287
     71  O        -22.5130   -1.0560   39.8540 O.2   110  LEU110     -0.2864
     72  CB       -19.7520   -0.5400   38.3150 C.3   110  LEU110      0.0297
     73  CG       -18.3740    0.0140   37.9400 C.3   110  LEU110      0.0022
     74  CD1      -17.3900   -1.1440   37.8420 C.3   110  LEU110      0.0001
     75  CD2      -18.4110    0.7830   36.6080 C.3   110  LEU110      0.0001
     76  N        -20.7710   -4.2420   35.2100 N.3   115  LYS115     -0.1245
     77  CA       -19.9850   -5.3260   35.7590 C.3   115  LYS115      0.1561
     78  C        -20.1450   -6.5550   34.9050 C.2   115  LYS115      0.2260
     79  O        -19.1790   -7.2720   34.6710 O.2   115  LYS115     -0.2867
     80  CB       -20.3940   -5.6130   37.2050 C.3   115  LYS115      0.0271
     81  CG       -20.0380   -4.4900   38.1670 C.3   115  LYS115      0.0035
     82  CD       -20.3010   -4.8820   39.6180 C.3   115  LYS115      0.0206
     83  CE       -20.2680   -3.6490   40.5020 C.3   115  LYS115      0.1093
     84  NZ       -20.3530   -4.0480   41.9170 N.3   115  LYS115     -0.1314
     85  N        -10.1730   -4.2510   36.7660 N.3   122  TRP122     -0.1227
     86  CA        -8.8580   -3.8150   37.2110 C.3   122  TRP122      0.1737
     87  C         -8.9740   -3.1620   38.5900 C.2   122  TRP122      0.2596
     88  O         -9.7220   -2.1950   38.7800 O.2   122  TRP122     -0.2718
     89  CB        -8.2770   -2.8430   36.1790 C.3   122  TRP122      0.0564
     90  CG        -7.0220   -2.1300   36.5580 C.ar  122  TRP122      0.0003
     91  CD1       -6.1170   -2.4790   37.5380 C.ar  122  TRP122      0.0946
     92  CD2       -6.5190   -0.9500   35.9540 C.ar  122  TRP122      0.0152
     93  NE1       -5.0930   -1.5620   37.5810 N.ar  122  TRP122     -0.2442
     94  CE2       -5.3100   -0.6080   36.5900 C.ar  122  TRP122      0.0810
     95  CE3       -6.9630   -0.1250   34.9100 C.ar  122  TRP122      0.0012
     96  CZ2       -4.5440    0.5070   36.2400 C.ar  122  TRP122      0.0191
     97  CZ3       -6.2040    0.9960   34.5580 C.ar  122  TRP122      0.0001
     98  CH2       -5.0190    1.2990   35.2270 C.ar  122  TRP122      0.0015
     99  N         -8.2840   -3.7310   39.5620 N.am  123  SER123     -0.1938
    100  CA        -8.2860   -3.1720   40.9290 C.3   123  SER123      0.2055
    101  C         -7.0360   -2.3340   41.2010 C.2   123  SER123      0.2643
    102  O         -5.9200   -2.8040   41.0400 O.2   123  SER123     -0.2714
    103  CB        -8.3960   -4.2760   41.9770 C.3   123  SER123      0.2130
    104  OG        -8.3720   -3.6930   43.2850 O.3   123  SER123     -0.2179
    105  N         -7.2210   -1.0930   41.6170 N.am  124  LEU124     -0.1963
    106  CA        -6.0710   -0.2180   41.9000 C.3   124  LEU124      0.1728
    107  C         -5.4870   -0.4290   43.2910 C.2   124  LEU124      0.2616
    108  O         -4.3280   -0.0870   43.5410 O.2   124  LEU124     -0.2715
    109  CB        -6.4770    1.2460   41.7690 C.3   124  LEU124      0.0311
    110  CG        -6.9610    1.6970   40.4000 C.3   124  LEU124      0.0022
    111  CD1       -7.6480    3.0270   40.5970 C.3   124  LEU124      0.0001
    112  CD2       -5.7910    1.8320   39.4170 C.3   124  LEU124      0.0001
    113  N         -6.2850   -0.9840   44.1950 N.am  125  SER125     -0.1950
    114  CA        -5.9400   -0.9680   45.6220 C.3   125  SER125      0.1924
    115  C         -6.9530   -1.8130   46.3340 C.2   125  SER125      0.2314
    116  O         -8.0300   -2.0320   45.8090 O.2   125  SER125     -0.2863
    117  CB        -5.9530    0.4660   46.1890 C.3   125  SER125      0.2116
    118  OG        -5.7110    0.5060   47.5930 O.3   125  SER125     -0.2180
    119  N         -7.9450   -0.5480   48.9980 N.3   127  LEU127     -0.1231
    120  CA        -8.6210    0.6040   49.6160 C.3   127  LEU127      0.1693
    121  C         -9.8380    1.0620   48.8020 C.2   127  LEU127      0.2593
    122  O         -9.8860    0.8910   47.5670 O.2   127  LEU127     -0.2718
    123  CB        -7.6510    1.7850   49.7950 C.3   127  LEU127      0.0284
    124  CG        -6.4260    1.6290   50.6990 C.3   127  LEU127      0.0019
    125  CD1       -5.4280    2.7440   50.4080 C.3   127  LEU127      0.0001
    126  CD2       -6.7650    1.6130   52.2170 C.3   127  LEU127      0.0001
    127  N        -10.8130    1.6400   49.5160 N.am  128  THR128     -0.1939
    128  CA       -11.9560    2.2950   48.9010 C.3   128  THR128      0.2028
    129  C        -11.4950    3.6970   48.5120 C.2   128  THR128      0.2642
    130  O        -11.2310    4.5400   49.3750 O.2   128  THR128     -0.2714
    131  CB       -13.1630    2.3440   49.8440 C.3   128  THR128      0.1808
    132  OG1      -13.4230    1.0260   50.3510 O.3   128  THR128     -0.2208
    133  CG2      -14.4100    2.8820   49.1200 C.3   128  THR128      0.0379
    134  N        -11.3150    3.9190   47.2100 N.am  129  LEU129     -0.1963
    135  CA       -10.7730    5.1850   46.7560 C.3   129  LEU129      0.1713
    136  C        -11.8650    6.1510   46.3170 C.2   129  LEU129      0.2458
    137  O        -12.9050    5.7450   45.8090 O.2   129  LEU129     -0.2730
    138  CB        -9.7610    4.9520   45.6290 C.3   129  LEU129      0.0310
    139  CG        -8.5540    4.0690   45.9790 C.3   129  LEU129      0.0022
    140  CD1       -7.7870    3.7220   44.7050 C.3   129  LEU129      0.0001
    141  CD2       -7.6270    4.6870   47.1020 C.3   129  LEU129      0.0001
    142  N        -11.6410    7.4540   46.5340 N.am  130  PRO130     -0.2716
    143  CA       -12.6230    8.4540   46.1270 C.3   130  PRO130      0.1536
    144  C        -12.5510    8.6160   44.6100 C.2   130  PRO130      0.2598
    145  O        -11.4760    8.4370   44.0130 O.2   130  PRO130     -0.2715
    146  CB       -12.1700    9.7200   46.8570 C.3   130  PRO130      0.0310
    147  CG       -10.7170    9.5600   46.9760 C.3   130  PRO130      0.0237
    148  CD       -10.4470    8.0730   47.1270 C.3   130  PRO130      0.0939
    149  N        -13.6800    8.9230   43.9980 N.am  131  HIS131     -0.1974
    150  CA       -13.7750    8.9140   42.5540 C.3   131  HIS131      0.1656
    151  C        -12.7220    9.8170   41.8700 C.2   131  HIS131      0.2291
    152  O        -12.1380    9.4260   40.8740 O.2   131  HIS131     -0.2864
    153  CB       -15.2050    9.3440   42.1280 C.3   131  HIS131      0.0771
    154  CG       -15.4420    9.2590   40.6460 C.ar  131  HIS131      0.0820
    155  ND1      -16.3550    8.3860   40.0870 N.ar  131  HIS131     -0.2267
    156  CD2      -14.8500    9.9000   39.6080 C.ar  131  HIS131      0.1154
    157  CE1      -16.3220    8.5010   38.7710 C.ar  131  HIS131      0.1986
    158  NE2      -15.4250    9.4210   38.4520 N.ar  131  HIS131     -0.2212
    159  N         -9.3280    8.0310   41.8350 N.3   134  VAL134     -0.1245
    160  CA        -9.3210    6.9370   40.8660 C.3   134  VAL134      0.1561
    161  C         -8.9410    7.4690   39.4670 C.2   134  VAL134      0.2260
    162  O         -8.0980    6.8980   38.7820 O.2   134  VAL134     -0.2867
    163  CB       -10.7000    6.2240   40.7990 C.3   134  VAL134      0.0252
    164  CG1      -10.6880    5.1600   39.6970 C.3   134  VAL134      0.0019
    165  CG2      -11.0390    5.5900   42.1490 C.3   134  VAL134      0.0019
@<TRIPOS>BOND
     1    97    95   ar
     2    97    98   ar
     3    79    78    2
     4    78    77    1
     5    95    92   ar
     6    76    77    1
     7    98    96   ar
     8    32    33    1
     9     8     6    1
    10    77    80    1
    11    92    90   ar
    12    92    94   ar
    13    89    90    1
    14    89    86    1
    15    96    94   ar
    16     1     2    1
    17    37    39    1
    18    37    36    1
    19    90    91   ar
    20    94    93   ar
    21    75    73    1
    22    85    86    1
    23    35    34    2
    24    33    36    1
    25    33    34    1
    26     6     7    1
    27     6     5    1
    28    36    38    1
    29    80    81    1
    30    86    87    1
    31    34    40   am
    32    91    93   ar
    33     2     5    1
    34     2     3    1
    35    74    73    1
    36    73    72    1
    37    81    82    1
    38    40    41    1
    39    72    69    1
    40   158   157   ar
    41   158   156   ar
    42    87    88    2
    43    87    99   am
    44     3     4    2
    45     3     9   am
    46   157   155   ar
    47   162   161    2
    48    41    42    1
    49    70    69    1
    50    70    71    2
    51    69    68    1
    52   112   110    1
    53     9    10    1
    54   161   160    1
    55    99   100    1
    56    42    44   am
    57    42    43    2
    58   156   154   ar
    59    82    83    1
    60   164   163    1
    61    44    45    1
    62    13    10    1
    63    13    14    1
    64   155   154   ar
    65    68    66   am
    66   110   111    1
    67   110   109    1
    68    67    66    2
    69    83    84    1
    70    10    11    1
    71    16    14   ar
    72    45    46    1
    73   154   153    1
    74   163   160    1
    75   163   165    1
    76    14    15   ar
    77   160   159    1
    78   152   151    2
    79    66    65    1
    80   100   101    1
    81   100   103    1
    82   102   101    2
    83   101   105   am
    84    12    11    2
    85   105   106    1
    86    11    17   am
    87   109   106    1
    88   151   150    1
    89   106   107    1
    90    28    27    2
    91   103   104    1
    92    46    47    2
    93    46    48   am
    94   153   150    1
    95    27    26    1
    96    65    64    1
    97    54    48    1
    98    54    53    1
    99   150   149    1
   100    48    49    1
   101    17    18    1
   102    64    57   am
   103    30    31    1
   104    30    29    1
   105   107   108    2
   106   107   113   am
   107    31    25    1
   108    26    25    1
   109    26    29    1
   110    25    19   am
   111    53    52    1
   112    58    57    2
   113    57    56    1
   114    19    18    1
   115    19    20    2
   116   149   144   am
   117   145   144    2
   118    18    21    1
   119    55    56    1
   120    55    50   am
   121    59    56    1
   122    59    60    1
   123   113   114    1
   124    49    52    1
   125    49    50    1
   126   144   143    1
   127   140   139    1
   128    50    51    2
   129    60    61    1
   130    21    22    1
   131    21    23    1
   132    22    24    1
   133   114   117    1
   134   114   115    1
   135   138   139    1
   136   138   135    1
   137   116   115    2
   138   137   136    2
   139   139   141    1
   140   143   142    1
   141   143   146    1
   142   117   118    1
   143   136   142   am
   144   136   135    1
   145    61    63   ar
   146    61    62   ar
   147   142   148    1
   148   135   134    1
   149   146   147    1
   150   147   148    1
   151   134   129   am
   152   122   121    2
   153   129   128    1
   154   129   130    2
   155   121   127   am
   156   121   120    1
   157   128   127    1
   158   128   131    1
   159   119   120    1
   160   133   131    1
   161   120   123    1
   162   123   124    1
   163   131   132    1
   164   125   124    1
   165   124   126    1
