@<TRIPOS>MOLECULE
tmp/5twkC00.pdb
 143 142 0 0 0
SMALL
GASTEIGER

@<TRIPOS>ATOM
      1  N         26.9560   -0.9560  -25.3230 N.3    74  LEU74      -0.1231
      2  CA        26.4580   -1.0200  -23.9540 C.3    74  LEU74       0.1693
      3  C         27.5130   -0.3780  -23.0820 C.2    74  LEU74       0.2592
      4  O         28.6870   -0.7920  -23.0700 O.2    74  LEU74      -0.2718
      5  CB        26.1910   -2.4570  -23.5020 C.3    74  LEU74       0.0284
      6  CG        24.9050   -3.1220  -23.9940 C.3    74  LEU74       0.0019
      7  CD1       23.7170   -2.3810  -23.3810 C.3    74  LEU74       0.0001
      8  CD2       24.8160   -3.1520  -25.5000 C.3    74  LEU74       0.0001
      9  N         27.1060    0.6380  -22.3490 N.am   75  ASP75      -0.1960
     10  CA        28.0670    1.4150  -21.5900 C.3    75  ASP75       0.1840
     11  C         27.3270    2.2010  -20.5180 C.2    75  ASP75       0.2621
     12  O         26.3350    2.8720  -20.8140 O.2    75  ASP75      -0.2715
     13  CB        28.8440    2.3450  -22.5250 C.3    75  ASP75       0.1450
     14  CG        30.3240    2.4250  -22.1790 C.2    75  ASP75       0.3671
     15  OD1       30.6800    2.2430  -20.9970 O.co2  75  ASP75      -0.2456
     16  OD2       31.1370    2.6620  -23.0950 O.co2  75  ASP75      -0.2456
     17  N         27.8140    2.1070  -19.2800 N.am   76  ILE76      -0.1977
     18  CA        27.2480    2.8320  -18.1390 C.3    76  ILE76       0.1596
     19  C         26.9140    4.3100  -18.4230 C.2    76  ILE76       0.2287
     20  O         25.8410    4.7780  -18.0300 O.2    76  ILE76      -0.2864
     21  CB        28.2000    2.7550  -16.9090 C.3    76  ILE76       0.0276
     22  CG1       28.3980    1.3040  -16.4660 C.3    76  ILE76       0.0022
     23  CG2       27.6640    3.5470  -15.7580 C.3    76  ILE76       0.0022
     24  CD1       29.1360    1.1970  -15.1540 C.3    76  ILE76       0.0001
     25  N         29.4930   -5.4950  -26.1690 N.3   104  ILE104     -0.1231
     26  CA        29.7040   -5.6200  -24.7310 C.3   104  ILE104      0.1692
     27  C         31.1760   -5.8770  -24.4540 C.2   104  ILE104      0.2593
     28  O         31.7670   -6.8290  -24.9950 O.2   104  ILE104     -0.2718
     29  CB        28.8950   -6.7610  -24.0920 C.3   104  ILE104      0.0266
     30  CG1       27.3880   -6.5850  -24.3320 C.3   104  ILE104      0.0019
     31  CG2       29.1950   -6.8240  -22.5920 C.3   104  ILE104      0.0020
     32  CD1       26.5790   -7.8290  -23.8990 C.3   104  ILE104      0.0001
     33  N         31.7600   -5.0240  -23.6200 N.am  105  GLY105     -0.1942
     34  CA        33.1740   -5.1090  -23.2980 C.3   105  GLY105      0.2014
     35  C         33.5130   -6.2430  -22.3470 C.2   105  GLY105      0.2639
     36  O         32.6260   -6.8530  -21.7150 O.2   105  GLY105     -0.2714
     37  N         34.8060   -6.5360  -22.2600 N.am  106  GLY106     -0.1940
     38  CA        35.3110   -7.4250  -21.2320 C.3   106  GLY106      0.1999
     39  C         35.4720   -6.7080  -19.8960 C.2   106  GLY106      0.2481
     40  O         35.0550   -5.5540  -19.7450 O.2   106  GLY106     -0.2729
     41  N         36.1060   -7.3790  -18.9210 N.am  107  PRO107     -0.2715
     42  CA        36.2130   -6.8950  -17.5370 C.3   107  PRO107      0.1536
     43  C         36.8550   -5.5190  -17.4470 C.2   107  PRO107      0.2598
     44  O         36.5930   -4.7650  -16.5090 O.2   107  PRO107     -0.2715
     45  CB        37.0940   -7.9510  -16.8630 C.3   107  PRO107      0.0310
     46  CG        37.8580   -8.5750  -17.9820 C.3   107  PRO107      0.0237
     47  CD        36.9110   -8.5910  -19.1400 C.3   107  PRO107      0.0939
     48  N         37.6830   -5.2020  -18.4350 N.am  108  GLU108     -0.1964
     49  CA        38.3310   -3.9040  -18.5250 C.3   108  GLU108      0.1733
     50  C         37.4730   -2.8480  -19.2360 C.2   108  GLU108      0.2617
     51  O         37.9040   -1.7080  -19.4010 O.2   108  GLU108     -0.2715
     52  CB        39.6710   -4.0490  -19.2470 C.3   108  GLU108      0.0429
     53  CG        40.4530   -5.2770  -18.8260 C.3   108  GLU108      0.1163
     54  CD        40.6810   -5.3220  -17.3330 C.2   108  GLU108      0.3649
     55  OE1       41.2230   -4.3380  -16.7890 O.co2 108  GLU108     -0.2457
     56  OE2       40.3080   -6.3350  -16.7000 O.co2 108  GLU108     -0.2457
     57  N         36.2660   -3.2190  -19.6570 N.am  109  GLY109     -0.1940
     58  CA        35.4150   -2.2940  -20.3850 C.3   109  GLY109      0.2014
     59  C         35.7110   -2.2670  -21.8750 C.2   109  GLY109      0.2638
     60  O         36.4290   -3.1280  -22.3810 O.2   109  GLY109     -0.2714
     61  N         35.1520   -1.2850  -22.5820 N.am  110  LEU110     -0.1977
     62  CA        35.3390   -1.1630  -24.0310 C.3   110  LEU110      0.1596
     63  C         36.6000   -0.3920  -24.4110 C.2   110  LEU110      0.2287
     64  O         37.0250    0.5150  -23.6990 O.2   110  LEU110     -0.2864
     65  CB        34.1320   -0.4760  -24.6770 C.3   110  LEU110      0.0297
     66  CG        32.7790   -1.1990  -24.6070 C.3   110  LEU110      0.0022
     67  CD1       31.6610   -0.1990  -24.8180 C.3   110  LEU110      0.0001
     68  CD2       32.7270   -2.2960  -25.6580 C.3   110  LEU110      0.0001
     69  N         24.1600    2.8930  -24.9880 N.3   122  TRP122     -0.1241
     70  CA        23.0010    2.4450  -24.2270 C.3   122  TRP122      0.1605
     71  C         23.4220    2.0260  -22.8220 C.2   122  TRP122      0.2264
     72  O         24.2260    1.1040  -22.6530 O.2   122  TRP122     -0.2867
     73  CB        22.3320    1.2720  -24.9670 C.3   122  TRP122      0.0550
     74  CG        21.2000    0.6040  -24.2620 C.ar  122  TRP122      0.0003
     75  CD1       20.4810    1.0810  -23.1930 C.ar  122  TRP122      0.0946
     76  CD2       20.6410   -0.6720  -24.5800 C.ar  122  TRP122      0.0152
     77  NE1       19.5200    0.1810  -22.8370 N.ar  122  TRP122     -0.2442
     78  CE2       19.5990   -0.9100  -23.6610 C.ar  122  TRP122      0.0810
     79  CE3       20.9360   -1.6490  -25.5420 C.ar  122  TRP122      0.0012
     80  CZ2       18.8350   -2.0770  -23.6820 C.ar  122  TRP122      0.0191
     81  CZ3       20.1860   -2.8170  -25.5540 C.ar  122  TRP122      0.0001
     82  CH2       19.1440   -3.0160  -24.6360 C.ar  122  TRP122      0.0015
     83  N         22.3180    0.3210  -19.3630 N.3   124  LEU124     -0.1231
     84  CA        21.3350   -0.5470  -18.7030 C.3   124  LEU124      0.1693
     85  C         21.0280   -0.1370  -17.2650 C.2   124  LEU124      0.2592
     86  O         19.9540   -0.4420  -16.7470 O.2   124  LEU124     -0.2718
     87  CB        21.8320   -1.9940  -18.6920 C.3   124  LEU124      0.0284
     88  CG        22.0030   -2.7130  -20.0280 C.3   124  LEU124      0.0019
     89  CD1       22.6860   -4.0760  -19.7880 C.3   124  LEU124      0.0001
     90  CD2       20.6680   -2.8920  -20.7400 C.3   124  LEU124      0.0001
     91  N         21.9660    0.5580  -16.6240 N.am  125  SER125     -0.1952
     92  CA        21.9650    0.7000  -15.1560 C.3   125  SER125      0.1924
     93  C         23.0400    1.6570  -14.7280 C.2   125  SER125      0.2314
     94  O         23.9910    1.8750  -15.4580 O.2   125  SER125     -0.2863
     95  CB        22.2300   -0.6400  -14.4490 C.3   125  SER125      0.2116
     96  OG        22.1900   -0.4810  -13.0220 O.3   125  SER125     -0.2180
     97  N         24.5990    0.8530  -12.1550 N.3   127  LEU127     -0.1231
     98  CA        25.4490   -0.1290  -11.4790 C.3   127  LEU127      0.1693
     99  C         26.5100   -0.6370  -12.4270 C.2   127  LEU127      0.2593
    100  O         26.3260   -0.5990  -13.6520 O.2   127  LEU127     -0.2718
    101  CB        24.6260   -1.3060  -10.9580 C.3   127  LEU127      0.0284
    102  CG        23.5750   -0.9960   -9.8950 C.3   127  LEU127      0.0019
    103  CD1       22.4830   -2.0740   -9.8660 C.3   127  LEU127      0.0001
    104  CD2       24.2420   -0.8610   -8.5340 C.3   127  LEU127      0.0001
    105  N         27.6060   -1.1180  -11.8510 N.am  128  THR128     -0.1939
    106  CA        28.6430   -1.8040  -12.5980 C.3   128  THR128      0.2028
    107  C         28.3170   -3.2950  -12.6730 C.2   128  THR128      0.2642
    108  O         28.4460   -4.0210  -11.6860 O.2   128  THR128     -0.2714
    109  CB        30.0150   -1.5720  -11.9510 C.3   128  THR128      0.1808
    110  OG1       30.2670   -0.1560  -11.8620 O.3   128  THR128     -0.2208
    111  CG2       31.1150   -2.2640  -12.7470 C.3   128  THR128      0.0379
    112  N         27.8820   -3.7430  -13.8440 N.am  129  LEU129     -0.1963
    113  CA        27.3450   -5.0960  -14.0140 C.3   129  LEU129      0.1713
    114  C         28.3950   -6.0390  -14.5890 C.2   129  LEU129      0.2458
    115  O         29.1820   -5.6290  -15.4450 O.2   129  LEU129     -0.2730
    116  CB        26.1210   -5.0600  -14.9340 C.3   129  LEU129      0.0310
    117  CG        24.9520   -4.1700  -14.5050 C.3   129  LEU129      0.0022
    118  CD1       24.0440   -3.9340  -15.6930 C.3   129  LEU129      0.0001
    119  CD2       24.2010   -4.8340  -13.3670 C.3   129  LEU129      0.0001
    120  N         28.4080   -7.3030  -14.1310 N.am  130  PRO130     -0.2716
    121  CA        29.3320   -8.2980  -14.6910 C.3   130  PRO130      0.1536
    122  C         28.9090   -8.5990  -16.1190 C.2   130  PRO130      0.2598
    123  O         27.7080   -8.6450  -16.3930 O.2   130  PRO130     -0.2715
    124  CB        29.1480   -9.5130  -13.7780 C.3   130  PRO130      0.0310
    125  CG        27.7450   -9.3830  -13.2890 C.3   130  PRO130      0.0237
    126  CD        27.4640   -7.9000  -13.1730 C.3   130  PRO130      0.0939
    127  N         29.8480   -8.7700  -17.0370 N.am  131  HIS131     -0.1974
    128  CA        29.4360   -8.8510  -18.4400 C.3   131  HIS131      0.1656
    129  C         28.5580  -10.0810  -18.7790 C.2   131  HIS131      0.2291
    130  O         27.7190   -9.9830  -19.6560 O.2   131  HIS131     -0.2864
    131  CB        30.6610   -8.7640  -19.3800 C.3   131  HIS131      0.0771
    132  CG        31.7090   -9.8060  -19.1480 C.ar  131  HIS131      0.0820
    133  ND1       31.7190  -11.0090  -19.8180 N.ar  131  HIS131     -0.2267
    134  CD2       32.8050   -9.8060  -18.3520 C.ar  131  HIS131      0.1154
    135  CE1       32.7670  -11.7170  -19.4280 C.ar  131  HIS131      0.1986
    136  NE2       33.4410  -11.0090  -18.5400 N.ar  131  HIS131     -0.2212
    137  N         25.1610   -8.8420  -18.3330 N.3   134  VAL134     -0.1245
    138  CA        24.8010   -7.8530  -19.3310 C.3   134  VAL134      0.1561
    139  C         24.1940   -8.5640  -20.5400 C.2   134  VAL134      0.2260
    140  O         23.2140   -8.0840  -21.1210 O.2   134  VAL134     -0.2867
    141  CB        26.0070   -6.9830  -19.7240 C.3   134  VAL134      0.0252
    142  CG1       25.6280   -5.9730  -20.8010 C.3   134  VAL134      0.0019
    143  CG2       26.5270   -6.2330  -18.5000 C.3   134  VAL134      0.0019
@<TRIPOS>BOND
     1    25    26    1
     2    68    66    1
     3    81    79   ar
     4    81    82   ar
     5    79    76   ar
     6     8     6    1
     7     1     2    1
     8    28    27    2
     9    69    70    1
    10    73    74    1
    11    73    70    1
    12    67    66    1
    13    26    27    1
    14    26    29    1
    15    65    66    1
    16    65    62    1
    17    82    80   ar
    18    76    74   ar
    19    76    78   ar
    20    27    33   am
    21    63    62    1
    22    63    64    2
    23    30    29    1
    24    30    32    1
    25    74    75   ar
    26    70    71    1
    27    29    31    1
    28    62    61    1
    29     6     5    1
    30     6     7    1
    31     2     5    1
    32     2     3    1
    33    80    78   ar
    34    78    77   ar
    35    33    34    1
    36    34    35    1
    37    75    77   ar
    38    16    14   ar
    39     3     4    2
    40     3     9   am
    41    71    72    2
    42    61    59   am
    43    13    14    1
    44    13    10    1
    45    60    59    2
    46     9    10    1
    47    35    37   am
    48    35    36    2
    49    37    38    1
    50    14    15   ar
    51    59    58    1
    52    10    11    1
    53    38    39    1
    54   140   139    2
    55    12    11    2
    56   142   141    1
    57    90    88    1
    58   139   138    1
    59    11    17   am
    60    58    57    1
    61    88    89    1
    62    88    87    1
    63    39    40    2
    64    39    41   am
    65   133   135   ar
    66   133   132   ar
    67   141   138    1
    68   141   143    1
    69    57    50   am
    70   130   129    2
    71   135   136   ar
    72    51    50    2
    73   131   132    1
    74   131   128    1
    75    83    84    1
    76   138   137    1
    77    17    18    1
    78    52    53    1
    79    52    49    1
    80    50    49    1
    81   132   134   ar
    82    47    41    1
    83    47    46    1
    84    41    42    1
    85    53    54    1
    86   129   128    1
    87    84    87    1
    88    84    85    1
    89   136   134   ar
    90    49    48    1
    91   128   127    1
    92    48    43   am
    93    19    18    1
    94    19    20    2
    95    18    21    1
    96    46    45    1
    97    42    43    1
    98    42    45    1
    99    43    44    2
   100    54    55   ar
   101    54    56   ar
   102    85    86    2
   103    85    91   am
   104   127   122   am
   105    21    22    1
   106    21    23    1
   107    91    92    1
   108    22    24    1
   109   123   122    2
   110   122   121    1
   111   118   117    1
   112    94    93    2
   113   115   114    2
   114    92    93    1
   115    92    95    1
   116   116   117    1
   117   116   113    1
   118   121   120    1
   119   121   124    1
   120   114   120   am
   121   114   113    1
   122   117   119    1
   123    95    96    1
   124   120   126    1
   125   113   112    1
   126   112   107   am
   127   124   125    1
   128   100    99    2
   129   125   126    1
   130   111   109    1
   131   107   106    1
   132   107   108    2
   133   106   109    1
   134   106   105    1
   135    99   105   am
   136    99    98    1
   137    97    98    1
   138   109   110    1
   139    98   101    1
   140   101   102    1
   141   102   103    1
   142   102   104    1
