@<TRIPOS>MOLECULE
tmp/5twlA00.pdb
 182 168 0 0 0
SMALL
GASTEIGER

@<TRIPOS>ATOM
      1  N         -5.8390   15.3730    2.9990 N.3    18  ILE18      -0.1231
      2  CA        -4.4900   15.0860    2.5250 C.3    18  ILE18       0.1696
      3  C         -4.2790   15.4910    1.0780 C.2    18  ILE18       0.2631
      4  O         -3.1610   15.3410    0.5620 O.2    18  ILE18      -0.2714
      5  CB        -4.1300   13.6020    2.7250 C.3    18  ILE18       0.0266
      6  CG1       -5.1280   12.7040    1.9920 C.3    18  ILE18       0.0019
      7  CG2       -4.0840   13.2630    4.2080 C.3    18  ILE18       0.0020
      8  CD1       -4.8430   11.2260    2.1460 C.3    18  ILE18       0.0001
      9  N         -5.3030   16.0090    0.4040 N.am   19  GLY19      -0.1732
     10  CA        -5.1200   16.4570   -0.9610 C.2    19  GLY19       0.1340
     11  C         -6.3760   16.9440   -1.6510 C.2    19  GLY19       0.2521
     12  O         -7.4520   16.3570   -1.4980 O.2    19  GLY19      -0.2816
     13  N         -6.4700   17.4610   -5.0820 N.3    21  GLY21      -0.1210
     14  CA        -6.1980   17.2600   -6.4930 C.3    21  GLY21       0.1956
     15  C         -7.4640   17.1870   -7.3240 C.2    21  GLY21       0.2612
     16  O         -8.4660   16.6120   -6.8990 O.2    21  GLY21      -0.2717
     17  N         -7.4170   17.7720   -8.5170 N.am   22  GLY22      -0.1956
     18  CA        -8.5600   17.7740   -9.4110 C.3    22  GLY22       0.1869
     19  C         -9.7260   18.5690   -8.8580 C.2    22  GLY22       0.2309
     20  O         -9.5400   19.6260   -8.2550 O.2    22  GLY22      -0.2863
     21  N        -11.9550   17.0470   -6.8430 N.3    24  ALA24      -0.1245
     22  CA       -12.3660   16.3110   -5.6590 C.3    24  ALA24       0.1562
     23  C        -11.3840   16.5350   -4.5180 C.2    24  ALA24       0.2260
     24  O        -10.2180   16.8810   -4.7260 O.2    24  ALA24      -0.2867
     25  CB       -12.4680   14.8130   -5.9580 C.3    24  ALA24       0.0290
     26  N         -9.6290   14.6310   -1.0980 N.3    26  VAL26      -0.1245
     27  CA        -9.2610   13.3290   -0.5580 C.3    26  VAL26       0.1561
     28  C         -8.9010   13.5160    0.9090 C.2    26  VAL26       0.2260
     29  O         -8.0410   14.3400    1.2430 O.2    26  VAL26      -0.2867
     30  CB        -8.0980   12.6900   -1.3390 C.3    26  VAL26       0.0252
     31  CG1       -7.6070   11.4370   -0.6250 C.3    26  VAL26       0.0019
     32  CG2       -8.5320   12.3620   -2.7590 C.3    26  VAL26       0.0019
     33  N         -8.0560    6.1050    2.3030 N.3    39  ALA39      -0.1245
     34  CA        -8.2310    7.4010    1.6640 C.3    39  ALA39       0.1562
     35  C         -9.6440    7.4760    1.1070 C.2    39  ALA39       0.2260
     36  O        -10.1120    6.5290    0.4650 O.2    39  ALA39      -0.2867
     37  CB        -7.2050    7.6150    0.5500 C.3    39  ALA39       0.0290
     38  N        -12.0850    9.6220   -1.2980 N.3    41  LYS41      -0.1245
     39  CA       -12.2860   10.6420   -2.3180 C.3    41  LYS41       0.1561
     40  C        -13.7080   11.1750   -2.2080 C.2    41  LYS41       0.2260
     41  O        -14.6730   10.4140   -2.3400 O.2    41  LYS41      -0.2867
     42  CB       -12.0240   10.0570   -3.7040 C.3    41  LYS41       0.0271
     43  CG       -11.9120   11.0760   -4.8260 C.3    41  LYS41       0.0035
     44  CD       -11.3930   10.4110   -6.0930 C.3    41  LYS41       0.0206
     45  CE       -11.6040   11.2870   -7.3160 C.3    41  LYS41       0.1093
     46  NZ       -11.2620   10.5630   -8.5730 N.3    41  LYS41      -0.1314
     47  N        -14.3870    5.9550  -13.8240 N.3    58  GLU58      -0.1245
     48  CA       -13.3260    5.4830  -12.9410 C.3    58  GLU58       0.1567
     49  C        -13.8420    4.4390  -11.9590 C.2    58  GLU58       0.2260
     50  O        -13.1230    3.4920  -11.6200 O.2    58  GLU58      -0.2867
     51  CB       -12.7010    6.6610  -12.1940 C.3    58  GLU58       0.0388
     52  CG       -11.4240    6.3060  -11.4530 C.3    58  GLU58       0.1160
     53  CD       -11.0980    7.2850  -10.3460 C.2    58  GLU58       0.3649
     54  OE1       -9.9260    7.3270   -9.9180 O.co2  58  GLU58      -0.2457
     55  OE2      -12.0130    8.0120   -9.9030 O.co2  58  GLU58      -0.2457
     56  N        -12.5070    0.7360  -11.6970 N.3    62  LEU62      -0.1245
     57  CA       -11.9090    0.2620  -10.4530 C.3    62  LEU62       0.1561
     58  C        -12.6120   -0.9820   -9.9250 C.2    62  LEU62       0.2260
     59  O        -11.9680   -1.8420   -9.3130 O.2    62  LEU62      -0.2867
     60  CB       -11.9290    1.3740   -9.4040 C.3    62  LEU62       0.0270
     61  CG       -10.8130    2.4160   -9.5140 C.3    62  LEU62       0.0019
     62  CD1      -10.7370    3.2560   -8.2510 C.3    62  LEU62       0.0001
     63  CD2       -9.4770    1.7460   -9.7940 C.3    62  LEU62       0.0001
     64  N         -4.3780    1.0260   -7.2380 N.3    71  CYS71      -0.1235
     65  CA        -5.0010    1.4860   -6.0030 C.3    71  CYS71       0.1677
     66  C         -6.3690    0.8430   -5.8300 C.2    71  CYS71       0.2270
     67  O         -7.2550    1.0060   -6.6750 O.2    71  CYS71      -0.2867
     68  CB        -5.1210    3.0070   -6.0130 C.3    71  CYS71       0.0956
     69  SG        -5.7400    3.7060   -4.4730 S.3    71  CYS71      -0.0801
     70  N        -15.6530    7.6710   -2.5160 N.3    85  MET85      -0.1245
     71  CA       -14.8360    6.5390   -2.9370 C.3    85  MET85       0.1570
     72  C        -13.7890    6.2800   -1.8660 C.2    85  MET85       0.2261
     73  O        -12.9220    7.1270   -1.6250 O.2    85  MET85      -0.2867
     74  CB       -14.1670    6.8030   -4.2880 C.3    85  MET85       0.0387
     75  CG       -15.1270    6.8700   -5.4620 C.3    85  MET85       0.0595
     76  SD       -14.2940    7.3350   -6.9910 S.3    85  MET85      -0.1393
     77  CE       -13.0700    6.0320   -7.1210 C.3    85  MET85       0.0692
     78  N        -10.5970    4.3300   -0.7590 N.3    87  LEU87      -0.1231
     79  CA        -9.5140    3.7900   -1.5650 C.3    87  LEU87       0.1693
     80  C         -8.3390    3.3710   -0.6910 C.2    87  LEU87       0.2592
     81  O         -8.2400    3.7380    0.4830 O.2    87  LEU87      -0.2718
     82  CB        -9.0430    4.8120   -2.6080 C.3    87  LEU87       0.0284
     83  CG       -10.1150    5.2610   -3.6000 C.3    87  LEU87       0.0019
     84  CD1       -9.9000    6.7090   -4.0060 C.3    87  LEU87       0.0001
     85  CD2      -10.1200    4.3570   -4.8160 C.3    87  LEU87       0.0001
     86  N         -7.4430    2.5960   -1.3010 N.am   88  GLU88      -0.1966
     87  CA        -6.2300    2.1460   -0.6310 C.3    88  GLU88       0.1733
     88  C         -5.3470    3.3330   -0.2690 C.2    88  GLU88       0.2616
     89  O         -5.0400    4.1750   -1.1170 O.2    88  GLU88      -0.2715
     90  CB        -5.4730    1.1740   -1.5380 C.3    88  GLU88       0.0429
     91  CG        -4.2350    0.5510   -0.9190 C.3    88  GLU88       0.1163
     92  CD        -3.6080   -0.4980   -1.8180 C.2    88  GLU88       0.3649
     93  OE1       -4.0310   -0.6060   -2.9890 O.co2  88  GLU88      -0.2457
     94  OE2       -2.6910   -1.2100   -1.3580 O.co2  88  GLU88      -0.2457
     95  N         -4.9340    3.3930    0.9940 N.am   89  TYR89      -0.1960
     96  CA        -4.1230    4.5000    1.4820 C.3    89  TYR89       0.1771
     97  C         -2.6690    4.3170    1.0600 C.2    89  TYR89       0.2620
     98  O         -2.0870    3.2450    1.2520 O.2    89  TYR89      -0.2715
     99  CB        -4.2320    4.5990    3.0040 C.3    89  TYR89       0.0574
    100  CG        -3.4300    5.7220    3.6200 C.ar   89  TYR89      -0.0198
    101  CD1       -2.6030    5.4890    4.7100 C.ar   89  TYR89      -0.0009
    102  CD2       -3.5040    7.0140    3.1170 C.ar   89  TYR89      -0.0009
    103  CE1       -1.8700    6.5100    5.2820 C.ar   89  TYR89       0.0417
    104  CE2       -2.7720    8.0420    3.6810 C.ar   89  TYR89       0.0417
    105  CZ        -1.9570    7.7840    4.7630 C.ar   89  TYR89       0.1957
    106  OH        -1.2270    8.8030    5.3290 O.3    89  TYR89      -0.2866
    107  N         -2.0820    5.3710    0.4840 N.am   90  CYS90      -0.1954
    108  CA        -0.7080    5.3560   -0.0170 C.3    90  CYS90       0.1828
    109  C          0.0740    6.4770    0.6580 C.2    90  CYS90       0.2467
    110  O          0.2220    7.5730    0.0960 O.2    90  CYS90      -0.2730
    111  CB        -0.6730    5.5020   -1.5380 C.3    90  CYS90       0.0996
    112  SG        -1.6150    4.2450   -2.4380 S.3    90  CYS90      -0.0797
    113  N          0.5970    6.2390    1.8650 N.am   91  PRO91      -0.2726
    114  CA         1.3530    7.2820    2.5690 C.3    91  PRO91       0.1402
    115  C          2.7620    7.5030    2.0430 C.2    91  PRO91       0.2269
    116  O          3.4540    8.3970    2.5440 O.2    91  PRO91      -0.2865
    117  CB         1.3880    6.7580    4.0120 C.3    91  PRO91       0.0296
    118  CG         1.3230    5.2790    3.8670 C.3    91  PRO91       0.0237
    119  CD         0.4470    5.0160    2.6720 C.3    91  PRO91       0.0939
    120  N          3.7360    8.7340   -0.7880 N.3    93  GLY93      -0.1210
    121  CA         3.8800    9.8470   -1.7020 C.3    93  GLY93       0.1956
    122  C          3.8750    9.4160   -3.1560 C.2    93  GLY93       0.2611
    123  O          3.7880    8.2360   -3.5000 O.2    93  GLY93      -0.2717
    124  N          3.9750   10.4130   -4.0300 N.am   94  GLU94      -0.1979
    125  CA         3.9570   10.1700   -5.4630 C.3    94  GLU94       0.1602
    126  C          5.3430    9.7870   -5.9660 C.2    94  GLU94       0.2287
    127  O          6.3650   10.1300   -5.3640 O.2    94  GLU94      -0.2864
    128  CB         3.4660   11.4090   -6.2140 C.3    94  GLU94       0.0415
    129  CG         2.1320   11.9490   -5.7330 C.3    94  GLU94       0.1163
    130  CD         1.8610   13.3550   -6.2280 C.2    94  GLU94       0.3649
    131  OE1        2.3730   13.7150   -7.3090 O.co2  94  GLU94      -0.2457
    132  OE2        1.1330   14.1000   -5.5410 O.co2  94  GLU94      -0.2457
    133  N          1.5120    9.1400  -15.6030 N.3   135  LYS135     -0.1245
    134  CA         2.4110   10.2150  -15.2130 C.3   135  LYS135      0.1561
    135  C          2.8730    9.9500  -13.7880 C.2   135  LYS135      0.2260
    136  O          2.1800    9.2590  -13.0290 O.2   135  LYS135     -0.2867
    137  CB         1.7160   11.5840  -15.3170 C.3   135  LYS135      0.0271
    138  CG         0.3340   11.6140  -14.6870 C.3   135  LYS135      0.0035
    139  CD        -0.5820   12.6170  -15.3690 C.3   135  LYS135      0.0206
    140  CE        -0.5660   13.9590  -14.6610 C.3   135  LYS135      0.1093
    141  NZ        -1.8880   14.6430  -14.7570 N.3   135  LYS135     -0.1314
    142  N          2.7140   11.6510  -11.2290 N.3   137  GLU137     -0.1231
    143  CA         1.7470   12.1120  -10.2420 C.3   137  GLU137      0.1699
    144  C          0.6280   11.1050  -10.0160 C.2   137  GLU137      0.2592
    145  O         -0.0750   11.1960   -9.0040 O.2   137  GLU137     -0.2718
    146  CB         1.1580   13.4560  -10.6730 C.3   137  GLU137      0.0402
    147  CG         2.1880   14.5610  -10.8640 C.3   137  GLU137      0.1161
    148  CD         2.8140   14.5600  -12.2480 C.2   137  GLU137      0.3649
    149  OE1        2.5310   13.6300  -13.0310 O.co2 137  GLU137     -0.2457
    150  OE2        3.5900   15.4900  -12.5520 O.co2 137  GLU137     -0.2457
    151  N          0.4430   10.1550  -10.9320 N.am  138  ASN138     -0.1974
    152  CA        -0.6010    9.1470  -10.8140 C.3   138  ASN138      0.1688
    153  C         -0.0650    7.8000  -10.3480 C.2   138  ASN138      0.2292
    154  O         -0.7720    6.7920  -10.4480 O.2   138  ASN138     -0.2864
    155  CB        -1.3360    8.9920  -12.1460 C.3   138  ASN138      0.1181
    156  CG        -2.3520   10.0920  -12.3760 C.2   138  ASN138      0.2629
    157  OD1       -2.8280   10.7190  -11.4280 O.2   138  ASN138     -0.2716
    158  ND2       -2.6860   10.3360  -13.6390 N.am  138  ASN138     -0.0877
    159  N          1.5970    6.2090   -6.8610 N.3   140  LEU140     -0.1245
    160  CA         1.8550    6.4730   -5.4550 C.3   140  LEU140      0.1561
    161  C          2.4880    5.2540   -4.7970 C.2   140  LEU140      0.2260
    162  O          2.2740    4.1150   -5.2230 O.2   140  LEU140     -0.2867
    163  CB         0.5680    6.8440   -4.7060 C.3   140  LEU140      0.0270
    164  CG        -0.4860    7.6960   -5.4160 C.3   140  LEU140      0.0019
    165  CD1       -1.6510    7.9730   -4.4790 C.3   140  LEU140      0.0001
    166  CD2        0.1070    8.9970   -5.9240 C.3   140  LEU140      0.0001
    167  N         -3.1840    5.1470   -9.8910 N.3   150  ILE150     -0.1231
    168  CA        -4.4240    5.7930   -9.4860 C.3   150  ILE150      0.1692
    169  C         -5.0210    6.5310  -10.6810 C.2   150  ILE150      0.2592
    170  O         -4.4500    6.5610  -11.7710 O.2   150  ILE150     -0.2718
    171  CB        -4.2230    6.7640   -8.3020 C.3   150  ILE150      0.0266
    172  CG1       -3.3700    7.9580   -8.7370 C.3   150  ILE150      0.0019
    173  CG2       -3.5860    6.0550   -7.1180 C.3   150  ILE150      0.0020
    174  CD1       -3.5480    9.1840   -7.8690 C.3   150  ILE150      0.0001
    175  N         -6.1930    7.1270  -10.4510 N.am  151  ASP151     -0.1974
    176  CA        -6.8530    8.0290  -11.3900 C.3   151  ASP151      0.1709
    177  C         -7.2310    7.4470  -12.7470 C.2   151  ASP151      0.2293
    178  O         -6.6210    7.7840  -13.7670 O.2   151  ASP151     -0.2864
    179  CB        -5.9930    9.2730  -11.6260 C.3   151  ASP151      0.1436
    180  CG        -6.8120   10.4720  -12.0700 C.2   151  ASP151      0.3671
    181  OD1       -8.0040   10.2930  -12.3990 O.co2 151  ASP151     -0.2456
    182  OD2       -6.2640   11.5950  -12.0860 O.co2 151  ASP151     -0.2456
@<TRIPOS>BOND
     1   133   134    1
     2   139   138    1
     3   139   140    1
     4   137   134    1
     5   137   138    1
     6   134   135    1
     7   141   140    1
     8    47    48    1
     9   135   136    2
    10   178   177    2
    11   158   156   am
    12   149   148   ar
    13    48    51    1
    14    48    49    1
    15   177   176    1
    16   150   148   ar
    17   181   180   ar
    18   156   155    1
    19   156   157    2
    20   148   147    1
    21    51    52    1
    22   155   152    1
    23   182   180   ar
    24   180   179    1
    25    49    50    2
    26   170   169    2
    27    56    57    1
    28   179   176    1
    29    52    53    1
    30   176   175    1
    31   142   143    1
    32   151   152    1
    33   151   144   am
    34   147   146    1
    35   152   153    1
    36   169   175   am
    37   169   168    1
    38   146   143    1
    39    57    58    1
    40    57    60    1
    41   154   153    2
    42    53    54   ar
    43    53    55   ar
    44   143   144    1
    45   144   145    2
    46    58    59    2
    47   167   168    1
    48    63    61    1
    49    61    60    1
    50    61    62    1
    51   168   171    1
    52    18    19    1
    53    18    17    1
    54    19    20    2
    55   172   171    1
    56   172   174    1
    57    46    45    1
    58    17    15   am
    59   171   173    1
    60    15    16    2
    61    15    14    1
    62    45    44    1
    63   131   130   ar
    64    64    65    1
    65    77    76    1
    66    76    75    1
    67   159   160    1
    68    21    22    1
    69    67    66    2
    70    14    13    1
    71   130   129    1
    72   130   132   ar
    73   128   129    1
    74   128   125    1
    75    44    43    1
    76    68    65    1
    77    68    69    1
    78    65    66    1
    79   126   125    1
    80   126   127    2
    81    25    22    1
    82   166   164    1
    83    22    23    1
    84   125   124    1
    85    75    74    1
    86   160   161    1
    87   160   163    1
    88   164   163    1
    89   164   165    1
    90   162   161    2
    91    43    42    1
    92    85    83    1
    93    24    23    2
    94    74    71    1
    95   124   122   am
    96    84    83    1
    97    42    39    1
    98    83    82    1
    99   123   122    2
   100   122   121    1
   101    93    92   ar
   102    71    70    1
   103    71    72    1
   104    32    30    1
   105    82    79    1
   106   112   111    1
   107    41    40    2
   108    39    40    1
   109    39    38    1
   110    72    73    2
   111    92    94   ar
   112    92    91    1
   113   121   120    1
   114    11    12    2
   115    11    10    1
   116    79    78    1
   117    79    80    1
   118    90    91    1
   119    90    87    1
   120   111   108    1
   121    30    31    1
   122    30    27    1
   123    86    80   am
   124    86    87    1
   125    89    88    2
   126    26    27    1
   127    10     9    2
   128    80    81    2
   129    87    88    1
   130    27    28    1
   131    88    95   am
   132   108   107    1
   133   108   109    1
   134   110   109    2
   135     9     3    1
   136    36    35    2
   137   107    97   am
   138    37    34    1
   139     4     3    2
   140   109   113   am
   141    28    29    2
   142    95    96    1
   143    97    98    2
   144    97    96    1
   145     3     2    1
   146    35    34    1
   147    96    99    1
   148    34    33    1
   149   113   114    1
   150   113   119    1
   151     6     8    1
   152     6     5    1
   153   115   116    2
   154   115   114    1
   155     2     5    1
   156     2     1    1
   157   114   117    1
   158   119   118    1
   159     5     7    1
   160    99   100    1
   161   102   100   ar
   162   102   104   ar
   163   100   101   ar
   164   104   105   ar
   165   118   117    1
   166   101   103   ar
   167   105   103   ar
   168   105   106    1
