@<TRIPOS>MOLECULE
tmp/5twmA00.pdb
 237 228 0 0 0
SMALL
GASTEIGER

@<TRIPOS>ATOM
      1  N         17.0720  -25.8040   30.7180 N.3   189  PHE189     -0.1241
      2  CA        18.1380  -25.9810   29.7170 C.3   189  PHE189      0.1605
      3  C         18.3810  -27.4220   29.2590 C.2   189  PHE189      0.2264
      4  O         19.2330  -27.6230   28.4080 O.2   189  PHE189     -0.2867
      5  CB        19.4520  -25.3420   30.2110 C.3   189  PHE189      0.0534
      6  CG        19.3620  -23.8320   30.3260 C.ar  189  PHE189     -0.0203
      7  CD1       19.6030  -23.0170   29.2220 C.ar  189  PHE189     -0.0042
      8  CD2       19.0490  -23.2270   31.5390 C.ar  189  PHE189     -0.0042
      9  CE1       19.5520  -21.6200   29.3390 C.ar  189  PHE189     -0.0003
     10  CE2       18.9800  -21.8330   31.6510 C.ar  189  PHE189     -0.0003
     11  CZ        19.2130  -21.0410   30.5410 C.ar  189  PHE189     -0.0000
     12  N         16.2220  -29.3040   27.5800 N.3   191  TYR191     -0.1241
     13  CA        15.3450  -29.6290   26.4880 C.3   191  TYR191      0.1605
     14  C         15.7140  -29.0950   25.1210 C.2   191  TYR191      0.2264
     15  O         16.0860  -27.9310   24.9570 O.2   191  TYR191     -0.2867
     16  CB        13.9240  -29.1390   26.8150 C.3   191  TYR191      0.0534
     17  CG        13.3160  -29.7030   28.0750 C.ar  191  TYR191     -0.0201
     18  CD1       12.9810  -31.0540   28.1680 C.ar  191  TYR191     -0.0009
     19  CD2       13.0160  -28.8790   29.1570 C.ar  191  TYR191     -0.0009
     20  CE1       12.3820  -31.5720   29.3170 C.ar  191  TYR191      0.0417
     21  CE2       12.4410  -29.3890   30.3180 C.ar  191  TYR191      0.0417
     22  CZ        12.1120  -30.7360   30.3880 C.ar  191  TYR191      0.1957
     23  OH        11.5000  -31.2310   31.5130 O.3   191  TYR191     -0.2866
     24  N         13.9520  -27.9120   21.5360 N.3   193  PRO193     -0.2116
     25  CA        12.6320  -27.2330   21.4110 C.3   193  PRO193      0.1372
     26  C         11.4350  -28.1800   21.3270 C.2   193  PRO193      0.2244
     27  O         10.4020  -27.8990   21.9420 O.2   193  PRO193     -0.2868
     28  CB        12.7920  -26.3780   20.1540 C.3   193  PRO193      0.0268
     29  CG        14.3050  -26.1110   20.0920 C.3   193  PRO193      0.0207
     30  CD        14.8900  -27.4430   20.4920 C.3   193  PRO193      0.0892
     31  N         10.7860  -29.4150   24.7870 N.3   196  ARG196     -0.1245
     32  CA        10.2190  -28.3520   25.6210 C.3   196  ARG196      0.1563
     33  C          8.7110  -28.2460   25.3530 C.2   196  ARG196      0.2260
     34  O          7.9320  -28.1410   26.3050 O.2   196  ARG196     -0.2867
     35  CB        10.9030  -27.0000   25.3040 C.3   196  ARG196      0.0307
     36  CG        10.5510  -25.9120   26.3130 C.3   196  ARG196      0.0489
     37  CD        11.2960  -24.6160   26.0090 C.3   196  ARG196      0.2205
     38  NE        12.7370  -24.8470   25.8450 N.pl3 196  ARG196     -0.0865
     39  CZ        13.6110  -24.8140   26.8420 C.cat 196  ARG196      0.5346
     40  NH1       14.8900  -25.0630   26.6150 N.pl3 196  ARG196      0.1354
     41  NH2       13.2080  -24.5520   28.0790 N.pl3 196  ARG196      0.1354
     42  N          5.5180  -28.8930   27.9440 N.3   200  LEU200     -0.1245
     43  CA         4.4360  -27.9190   28.1740 C.3   200  LEU200      0.1561
     44  C          3.0710  -28.4980   27.8510 C.2   200  LEU200      0.2260
     45  O          2.1270  -28.2960   28.6180 O.2   200  LEU200     -0.2867
     46  CB         4.6650  -26.6350   27.3540 C.3   200  LEU200      0.0270
     47  CG         5.9140  -25.8360   27.7110 C.3   200  LEU200      0.0019
     48  CD1        6.2380  -24.8000   26.6080 C.3   200  LEU200      0.0001
     49  CD2        5.7660  -25.1760   29.0770 C.3   200  LEU200      0.0001
     50  N          8.5310  -24.3850   34.8040 N.3   310  LEU310     -0.1245
     51  CA         9.5770  -24.4380   33.7890 C.3   310  LEU310      0.1561
     52  C         10.4170  -23.1700   34.0280 C.2   310  LEU310      0.2260
     53  O          9.8670  -22.0630   34.0700 O.2   310  LEU310     -0.2867
     54  CB         9.0070  -24.5330   32.3610 C.3   310  LEU310      0.0270
     55  CG        10.0560  -24.7040   31.2230 C.3   310  LEU310      0.0019
     56  CD1       11.0110  -25.9340   31.4510 C.3   310  LEU310      0.0001
     57  CD2        9.3690  -24.8400   29.9080 C.3   310  LEU310      0.0001
     58  N         14.0870  -20.9920   33.1500 N.3   312  CYS312     -0.1235
     59  CA        15.2130  -20.7540   32.2600 C.3   312  CYS312      0.1677
     60  C         15.8370  -19.4880   32.7030 C.2   312  CYS312      0.2270
     61  O         15.3590  -18.4390   32.2870 O.2   312  CYS312     -0.2867
     62  CB        14.6930  -20.6050   30.8370 C.3   312  CYS312      0.0956
     63  SG        15.2960  -21.8550   29.7140 S.3   312  CYS312     -0.0801
     64  N         13.5810  -16.5160   33.5480 N.3   315  ASP315     -0.1225
     65  CA        12.2700  -16.7160   32.8950 C.3   315  ASP315      0.1805
     66  C         11.5770  -17.8820   33.5570 C.2   315  ASP315      0.2598
     67  O         12.1510  -18.9560   33.6710 O.2   315  ASP315     -0.2718
     68  CB        12.4070  -16.9860   31.3920 C.3   315  ASP315      0.1424
     69  CG        12.7860  -15.7420   30.6010 C.2   315  ASP315      0.3668
     70  OD1       11.8540  -14.9880   30.1830 O.co2 315  ASP315     -0.2456
     71  OD2       14.0010  -15.5090   30.4190 O.co2 315  ASP315     -0.2456
     72  N         10.3360  -17.6660   33.9760 N.am  316  LEU316     -0.1966
     73  CA         9.5760  -18.6260   34.7350 C.3   316  LEU316      0.1728
     74  C          8.1750  -18.7360   34.2190 C.2   316  LEU316      0.2616
     75  O          7.5220  -17.7260   33.9700 O.2   316  LEU316     -0.2715
     76  CB         9.5370  -18.1190   36.1770 C.3   316  LEU316      0.0311
     77  CG         8.4880  -18.6520   37.1480 C.3   316  LEU316      0.0022
     78  CD1        8.7950  -20.0960   37.5350 C.3   316  LEU316      0.0001
     79  CD2        8.4450  -17.7780   38.3760 C.3   316  LEU316      0.0001
     80  N          7.7090  -19.9790   34.0860 N.am  317  VAL317     -0.1977
     81  CA         6.3410  -20.3010   33.7190 C.3   317  VAL317      0.1596
     82  C          5.8230  -21.3040   34.7590 C.2   317  VAL317      0.2287
     83  O          6.5440  -22.2240   35.1310 O.2   317  VAL317     -0.2864
     84  CB         6.1490  -20.7700   32.2520 C.3   317  VAL317      0.0276
     85  CG1        4.7280  -21.2950   32.0390 C.3   317  VAL317      0.0022
     86  CG2        6.4100  -19.6110   31.2910 C.3   317  VAL317      0.0022
     87  N         -2.7610  -22.1760   26.5520 N.3   356  LEU356     -0.1245
     88  CA        -1.2870  -22.3020   26.5560 C.3   356  LEU356      0.1561
     89  C         -0.5940  -21.3610   25.5550 C.2   356  LEU356      0.2260
     90  O          0.4850  -20.8610   25.8490 O.2   356  LEU356     -0.2867
     91  CB        -0.8700  -23.7800   26.2820 C.3   356  LEU356      0.0270
     92  CG         0.6400  -24.0630   26.1380 C.3   356  LEU356      0.0019
     93  CD1        1.4160  -23.7500   27.4510 C.3   356  LEU356      0.0001
     94  CD2        0.8900  -25.5060   25.6460 C.3   356  LEU356      0.0001
     95  N          0.6070  -17.6510   26.5980 N.3   359  ILE359     -0.1245
     96  CA         1.7240  -17.4180   27.5230 C.3   359  ILE359      0.1561
     97  C          2.9640  -17.1000   26.7090 C.2   359  ILE359      0.2260
     98  O          3.3100  -17.8600   25.8130 O.2   359  ILE359     -0.2867
     99  CB         1.9820  -18.6140   28.5010 C.3   359  ILE359      0.0252
    100  CG1        0.6890  -18.9650   29.3150 C.3   359  ILE359      0.0019
    101  CG2        3.1910  -18.2840   29.4660 C.3   359  ILE359      0.0019
    102  CD1        0.6070  -20.4290   29.8680 C.3   359  ILE359      0.0001
    103  N          7.1340  -16.4440   27.1080 N.3   361  SER361     -0.1202
    104  CA         8.2800  -16.6520   27.9930 C.3   361  SER361      0.2020
    105  C          9.4930  -16.8520   27.1060 C.2   361  SER361      0.2619
    106  O          9.3720  -17.4890   26.0540 O.2   361  SER361     -0.2717
    107  CB         8.0460  -17.8690   28.8770 C.3   361  SER361      0.2103
    108  OG         9.0850  -18.0420   29.8330 O.3   361  SER361     -0.2182
    109  N         10.6480  -16.2720   27.4960 N.am  362  CYS362     -0.1969
    110  CA        11.8910  -16.3070   26.7110 C.3   362  CYS362      0.1712
    111  C         11.5090  -15.7530   25.3210 C.2   362  CYS362      0.2296
    112  O         11.9370  -16.2800   24.3110 O.2   362  CYS362     -0.2864
    113  CB        12.4630  -17.7310   26.6260 C.3   362  CYS362      0.0983
    114  SG        13.0920  -18.3920   28.2000 S.3   362  CYS362     -0.0798
    115  N          9.0800  -16.2700   23.5690 N.3   364  SER364     -0.1202
    116  CA         8.3920  -17.2460   22.7470 C.3   364  SER364      0.2020
    117  C          6.9980  -17.5920   23.2190 C.2   364  SER364      0.2619
    118  O          6.6780  -17.4020   24.3820 O.2   364  SER364     -0.2717
    119  CB         9.2130  -18.5340   22.6820 C.3   364  SER364      0.2103
    120  OG        10.5790  -18.2460   22.4350 O.3   364  SER364     -0.2182
    121  N          6.1940  -18.1630   22.3060 N.am  365  ASN365     -0.1960
    122  CA         4.8640  -18.6790   22.5790 C.3   365  ASN365      0.1819
    123  C          4.6890  -19.9570   21.7430 C.2   365  ASN365      0.2621
    124  O          5.3500  -20.1520   20.7120 O.2   365  ASN365     -0.2715
    125  CB         3.7790  -17.6430   22.2490 C.3   365  ASN365      0.1195
    126  CG         3.6720  -17.2790   20.7990 C.2   365  ASN365      0.2630
    127  OD1        4.4390  -16.4670   20.2790 O.2   365  ASN365     -0.2716
    128  ND2        2.7260  -17.8880   20.1040 N.am  365  ASN365     -0.0877
    129  N          3.8040  -20.8140   22.1940 N.am  366  VAL366     -0.1977
    130  CA         3.5000  -22.0540   21.5130 C.3   366  VAL366      0.1596
    131  C          2.4770  -21.6930   20.4260 C.2   366  VAL366      0.2287
    132  O          1.5440  -20.9500   20.6810 O.2   366  VAL366     -0.2864
    133  CB         2.9440  -23.1280   22.5050 C.3   366  VAL366      0.0276
    134  CG1        2.4260  -24.3700   21.7600 C.3   366  VAL366      0.0022
    135  CG2        4.0000  -23.5200   23.5460 C.3   366  VAL366      0.0022
    136  N          7.3800  -23.7950   19.0310 N.3   380  LEU380     -0.1245
    137  CA         7.6780  -22.5180   19.6570 C.3   380  LEU380      0.1561
    138  C          8.0110  -21.4880   18.5940 C.2   380  LEU380      0.2260
    139  O          8.7510  -21.7790   17.6620 O.2   380  LEU380     -0.2867
    140  CB         8.8280  -22.6600   20.6700 C.3   380  LEU380      0.0270
    141  CG         8.4120  -23.2770   22.0170 C.3   380  LEU380      0.0019
    142  CD1        9.6210  -23.8440   22.7340 C.3   380  LEU380      0.0001
    143  CD2        7.6740  -22.2550   22.9110 C.3   380  LEU380      0.0001
    144  N         18.2580  -22.3710   13.9680 N.3   409  ILE409     -0.1231
    145  CA        18.2980  -23.6080   14.7540 C.3   409  ILE409      0.1692
    146  C         17.1500  -23.7210   15.7800 C.2   409  ILE409      0.2592
    147  O         16.4640  -24.7520   15.8130 O.2   409  ILE409     -0.2718
    148  CB        19.6940  -23.7250   15.3970 C.3   409  ILE409      0.0266
    149  CG1       20.7230  -24.1170   14.3180 C.3   409  ILE409      0.0019
    150  CG2       19.7250  -24.6860   16.5980 C.3   409  ILE409      0.0020
    151  CD1       22.1020  -24.1190   14.7700 C.3   409  ILE409      0.0001
    152  N         16.9420  -22.6700   16.6100 N.am  410  GLN410     -0.1966
    153  CA        15.8980  -22.6540   17.6470 C.3   410  GLN410      0.1733
    154  C         14.4840  -22.6120   17.0920 C.2   410  GLN410      0.2616
    155  O         13.5600  -23.1870   17.6890 O.2   410  GLN410     -0.2715
    156  CB        16.0390  -21.3820   18.5000 C.3   410  GLN410      0.0408
    157  CG        17.1150  -21.3540   19.5190 C.3   410  GLN410      0.0908
    158  CD        16.8630  -20.1290   20.3490 C.2   410  GLN410      0.2608
    159  OE1       16.2950  -20.2320   21.4070 O.2   410  GLN410     -0.2717
    160  NE2       17.0830  -18.9310   19.7980 N.am  410  GLN410     -0.0878
    161  N         14.2910  -21.8200   16.0200 N.am  411  TYR411     -0.1974
    162  CA        12.9970  -21.5610   15.4010 C.3   411  TYR411      0.1639
    163  C         12.8430  -22.1720   13.9910 C.2   411  TYR411      0.2290
    164  O         12.0290  -21.7010   13.1910 O.2   411  TYR411     -0.2864
    165  CB        12.7190  -20.0270   15.3960 C.3   411  TYR411      0.0560
    166  CG        12.6460  -19.4090   16.7840 C.ar  411  TYR411     -0.0198
    167  CD1       11.5340  -19.6080   17.5970 C.ar  411  TYR411     -0.0009
    168  CD2       13.6330  -18.5330   17.2330 C.ar  411  TYR411     -0.0009
    169  CE1       11.4340  -19.0070   18.8450 C.ar  411  TYR411      0.0417
    170  CE2       13.5500  -17.9330   18.4900 C.ar  411  TYR411      0.0417
    171  CZ        12.4410  -18.1720   19.2880 C.ar  411  TYR411      0.1957
    172  OH        12.3010  -17.5670   20.5040 O.3   411  TYR411     -0.2866
    173  N         24.6570  -18.1080   22.2410 N.3   443  MET443     -0.1230
    174  CA        23.3110  -18.2050   22.7960 C.3   443  MET443      0.1702
    175  C         23.3930  -18.6520   24.2490 C.2   443  MET443      0.2592
    176  O         24.0170  -19.6780   24.5320 O.2   443  MET443     -0.2718
    177  CB        22.5880  -19.3180   22.0000 C.3   443  MET443      0.0401
    178  CG        21.1260  -19.1520   21.8620 C.3   443  MET443      0.0596
    179  SD        20.3960  -20.7950   21.6010 S.3   443  MET443     -0.1393
    180  CE        20.8430  -21.1010   19.9670 C.3   443  MET443      0.0692
    181  N         22.7320  -17.9140   25.1590 N.am  444  TYR444     -0.1976
    182  CA        22.6130  -18.2780   26.5810 C.3   444  TYR444      0.1639
    183  C         23.9520  -18.6710   27.2610 C.2   444  TYR444      0.2290
    184  O         24.0610  -19.7470   27.8760 O.2   444  TYR444     -0.2864
    185  CB        21.5540  -19.4020   26.7330 C.3   444  TYR444      0.0560
    186  CG        20.1600  -18.9520   26.3510 C.ar  444  TYR444     -0.0198
    187  CD1       19.3520  -18.2760   27.2590 C.ar  444  TYR444     -0.0009
    188  CD2       19.6500  -19.1980   25.0800 C.ar  444  TYR444     -0.0009
    189  CE1       18.0810  -17.8320   26.9070 C.ar  444  TYR444      0.0417
    190  CE2       18.3770  -18.7540   24.7120 C.ar  444  TYR444      0.0417
    191  CZ        17.5930  -18.0810   25.6370 C.ar  444  TYR444      0.1957
    192  OH        16.3380  -17.6370   25.3180 O.3   444  TYR444     -0.2866
    193  N         28.5390  -22.2230   20.1890 N.3   448  TYR448     -0.1241
    194  CA        28.4270  -23.5340   19.5280 C.3   448  TYR448      0.1605
    195  C         29.0550  -23.4710   18.1360 C.2   448  TYR448      0.2264
    196  O         28.8870  -22.4750   17.4440 O.2   448  TYR448     -0.2867
    197  CB        26.9590  -23.9590   19.3980 C.3   448  TYR448      0.0534
    198  CG        26.1900  -23.9930   20.6950 C.ar  448  TYR448     -0.0201
    199  CD1       26.1630  -25.1390   21.4830 C.ar  448  TYR448     -0.0009
    200  CD2       25.4400  -22.8980   21.1110 C.ar  448  TYR448     -0.0009
    201  CE1       25.4400  -25.1820   22.6730 C.ar  448  TYR448      0.0417
    202  CE2       24.6980  -22.9370   22.2880 C.ar  448  TYR448      0.0417
    203  CZ        24.6980  -24.0820   23.0630 C.ar  448  TYR448      0.1957
    204  OH        23.9640  -24.1180   24.2200 O.3   448  TYR448     -0.2866
    205  N         16.6310  -31.6560   16.7530 N.3   462  LEU462     -0.1245
    206  CA        16.0260  -30.7220   17.7280 C.3   462  LEU462      0.1561
    207  C         14.5210  -30.5670   17.6620 C.2   462  LEU462      0.2260
    208  O         13.9040  -30.1760   18.6620 O.2   462  LEU462     -0.2867
    209  CB        16.6920  -29.3370   17.6300 C.3   462  LEU462      0.0270
    210  CG        18.1970  -29.2790   17.9960 C.3   462  LEU462      0.0019
    211  CD1       18.7280  -27.8700   17.8800 C.3   462  LEU462      0.0001
    212  CD2       18.4510  -29.7710   19.3930 C.3   462  LEU462      0.0001
    213  N         24.8100  -29.5610   24.1830 N.3   546  TRP546     -0.1227
    214  CA        23.9330  -28.4390   23.8590 C.3   546  TRP546      0.1737
    215  C         22.8160  -28.2310   24.8950 C.2   546  TRP546      0.2595
    216  O         22.1030  -27.2260   24.8140 O.2   546  TRP546     -0.2718
    217  CB        23.3020  -28.6360   22.4600 C.3   546  TRP546      0.0564
    218  CG        24.2080  -28.3650   21.2940 C.ar  546  TRP546      0.0003
    219  CD1       25.5620  -28.5420   21.2370 C.ar  546  TRP546      0.0946
    220  CD2       23.7980  -27.9770   19.9800 C.ar  546  TRP546      0.0152
    221  NE1       26.0240  -28.2230   19.9840 N.ar  546  TRP546     -0.2442
    222  CE2       24.9640  -27.8560   19.1960 C.ar  546  TRP546      0.0810
    223  CE3       22.5560  -27.6540   19.4020 C.ar  546  TRP546      0.0012
    224  CZ2       24.9250  -27.4650   17.8500 C.ar  546  TRP546      0.0191
    225  CZ3       22.5180  -27.2510   18.0720 C.ar  546  TRP546      0.0001
    226  CH2       23.6880  -27.1830   17.3050 C.ar  546  TRP546      0.0015
    227  N         22.6360  -29.1870   25.8300 N.am  547  PHE547     -0.1976
    228  CA        21.5370  -29.1490   26.7970 C.3   547  PHE547      0.1639
    229  C         21.9990  -28.9220   28.2130 C.2   547  PHE547      0.2290
    230  O         21.7820  -29.7460   29.1070 O.2   547  PHE547     -0.2864
    231  CB        20.6550  -30.3950   26.6820 C.3   547  PHE547      0.0560
    232  CG        20.2210  -30.6380   25.2610 C.ar  547  PHE547     -0.0200
    233  CD1       19.3700  -29.7490   24.6170 C.ar  547  PHE547     -0.0042
    234  CD2       20.7450  -31.7020   24.5320 C.ar  547  PHE547     -0.0042
    235  CE1       19.0450  -29.9230   23.2730 C.ar  547  PHE547     -0.0003
    236  CE2       20.3760  -31.9030   23.1980 C.ar  547  PHE547     -0.0003
    237  CZ        19.5200  -31.0150   22.5830 C.ar  547  PHE547     -0.0000
@<TRIPOS>BOND
     1   164   163    2
     2   144   145    1
     3   163   162    1
     4   149   151    1
     5   149   148    1
     6   145   148    1
     7   145   146    1
     8   165   162    1
     9   165   166    1
    10   148   150    1
    11   162   161    1
    12   146   147    2
    13   146   152   am
    14   161   154   am
    15   152   153    1
    16   205   206    1
    17   166   168   ar
    18   166   167   ar
    19   154   153    1
    20   154   155    2
    21   168   170   ar
    22   226   224   ar
    23   226   225   ar
    24   196   195    2
    25   167   169   ar
    26   209   206    1
    27   209   210    1
    28   153   156    1
    29   139   138    2
    30   207   206    1
    31   207   208    2
    32   224   222   ar
    33   211   210    1
    34   210   212    1
    35   225   223   ar
    36   195   194    1
    37   170   171   ar
    38   156   157    1
    39   138   137    1
    40   169   171   ar
    41   136   137    1
    42   222   220   ar
    43   222   221   ar
    44   171   172    1
    45   197   194    1
    46   197   198    1
    47   223   220   ar
    48   157   158    1
    49   194   193    1
    50   137   140    1
    51   160   158   am
    52   180   179    1
    53   220   218   ar
    54   221   219   ar
    55    29    28    1
    56    29    30    1
    57   128   126   am
    58    28    25    1
    59   127   126    2
    60   158   159    2
    61   131   132    2
    62   131   130    1
    63    30    24    1
    64   140   141    1
    65   198   200   ar
    66   198   199   ar
    67   124   123    2
    68   126   125    1
    69   200   202   ar
    70   219   218   ar
    71   218   217    1
    72    26    25    1
    73    26    27    2
    74    25    24    1
    75   199   201   ar
    76   130   129    1
    77   130   133    1
    78   179   178    1
    79   123   129   am
    80   123   122    1
    81   134   133    1
    82   178   177    1
    83   177   174    1
    84   141   142    1
    85   141   143    1
    86   173   174    1
    87   125   122    1
    88   202   203   ar
    89   121   122    1
    90   121   117   am
    91   120   119    1
    92   217   214    1
    93   133   135    1
    94   237   236   ar
    95   237   235   ar
    96   201   203   ar
    97   119   116    1
    98   116   117    1
    99   116   115    1
   100   174   175    1
   101   203   204    1
   102   236   234   ar
   103   117   118    2
   104   235   233   ar
   105   214   213    1
   106   214   215    1
   107   175   176    2
   108   175   181   am
   109   112   111    2
   110   234   232   ar
   111   233   232   ar
   112   190   188   ar
   113   190   191   ar
   114    31    32    1
   115   216   215    2
   116   215   227   am
   117    15    14    2
   118   188   186   ar
   119    14    13    1
   120   181   182    1
   121   232   231    1
   122    35    32    1
   123    35    36    1
   124   192   191    1
   125   111   110    1
   126    33    32    1
   127    33    34    2
   128    89    90    2
   129    89    88    1
   130   191   189   ar
   131    94    92    1
   132    98    97    2
   133   227   228    1
   134    38    37    1
   135    38    39    2
   136    37    36    1
   137   106   105    2
   138    92    91    1
   139    92    93    1
   140    91    88    1
   141   186   185    1
   142   186   187   ar
   143    13    16    1
   144    13    12    1
   145    87    88    1
   146   182   185    1
   147   182   183    1
   148    95    96    1
   149    48    47    1
   150    40    39    1
   151   113   110    1
   152   113   114    1
   153   231   228    1
   154    97    96    1
   155   110   109    1
   156   228   229    1
   157    16    17    1
   158    39    41    1
   159   189   187   ar
   160   105   109   am
   161   105   104    1
   162   103   104    1
   163   183   184    2
   164    46    47    1
   165    46    43    1
   166    96    99    1
   167    47    49    1
   168    44    43    1
   169    44    45    2
   170    42    43    1
   171   104   107    1
   172    17    18   ar
   173    17    19   ar
   174    18    20   ar
   175   229   230    2
   176     4     3    2
   177    99   100    1
   178    99   101    1
   179   107   108    1
   180    19    21   ar
   181     7     9   ar
   182     7     6   ar
   183     3     2    1
   184   100   102    1
   185    20    22   ar
   186     9    11   ar
   187    63    62    1
   188     2     5    1
   189     2     1    1
   190    57    55    1
   191    70    69   ar
   192     5     6    1
   193    21    22   ar
   194     6     8   ar
   195    22    23    1
   196    71    69   ar
   197    11    10   ar
   198    69    68    1
   199    62    59    1
   200    55    56    1
   201    55    54    1
   202    86    84    1
   203    68    65    1
   204     8    10   ar
   205    85    84    1
   206    84    81    1
   207    59    60    1
   208    59    58    1
   209    61    60    2
   210    54    51    1
   211    65    64    1
   212    65    66    1
   213    66    67    2
   214    66    72   am
   215    81    80    1
   216    81    82    1
   217    51    52    1
   218    51    50    1
   219    75    74    2
   220    72    73    1
   221    52    53    2
   222    80    74   am
   223    74    73    1
   224    73    76    1
   225    82    83    2
   226    76    77    1
   227    77    78    1
   228    77    79    1
