@<TRIPOS>MOLECULE
tmp/5twnB01.pdb
 228 218 0 0 0
SMALL
GASTEIGER

@<TRIPOS>ATOM
      1  N         21.6620    6.0410   66.2180 N.3   165  PHE165     -0.1241
      2  CA        22.3430    4.8470   66.7070 C.3   165  PHE165      0.1605
      3  C         23.8800    4.7810   66.4830 C.2   165  PHE165      0.2264
      4  O         24.4840    3.7610   66.8160 O.2   165  PHE165     -0.2867
      5  CB        21.6580    3.5820   66.1590 C.3   165  PHE165      0.0534
      6  CG        20.1940    3.4970   66.5300 C.ar  165  PHE165     -0.0203
      7  CD1       19.7610    3.8190   67.8180 C.ar  165  PHE165     -0.0042
      8  CD2       19.2350    3.1580   65.5780 C.ar  165  PHE165     -0.0042
      9  CE1       18.4000    3.7940   68.1500 C.ar  165  PHE165     -0.0003
     10  CE2       17.8720    3.1060   65.9170 C.ar  165  PHE165     -0.0003
     11  CZ        17.4660    3.4090   67.2030 C.ar  165  PHE165     -0.0000
     12  N         25.9130    7.0600   67.8680 N.3   167  TYR167     -0.1241
     13  CA        26.4410    7.7990   69.0110 C.3   167  TYR167      0.1605
     14  C         26.3780    7.1300   70.3610 C.2   167  TYR167      0.2264
     15  O         25.3500    6.5340   70.7210 O.2   167  TYR167     -0.2867
     16  CB        25.6680    9.1230   69.1450 C.3   167  TYR167      0.0534
     17  CG        25.7390   10.0290   67.9440 C.ar  167  TYR167     -0.0201
     18  CD1       26.9600   10.5080   67.4820 C.ar  167  TYR167     -0.0009
     19  CD2       24.5830   10.4750   67.3170 C.ar  167  TYR167     -0.0009
     20  CE1       27.0330   11.3590   66.3850 C.ar  167  TYR167      0.0417
     21  CE2       24.6390   11.3620   66.2470 C.ar  167  TYR167      0.0417
     22  CZ        25.8700   11.7850   65.7690 C.ar  167  TYR167      0.1957
     23  OH        25.9540   12.6450   64.7080 O.3   167  TYR167     -0.2866
     24  N         25.9450    7.8590   74.5040 N.3   169  PRO169     -0.2116
     25  CA        25.1010    8.9140   75.1070 C.3   169  PRO169      0.1372
     26  C         25.7860   10.2780   75.1450 C.2   169  PRO169      0.2244
     27  O         25.1290   11.3010   74.9060 O.2   169  PRO169     -0.2868
     28  CB        24.7940    8.3800   76.5100 C.3   169  PRO169      0.0268
     29  CG        24.9010    6.9330   76.4220 C.3   169  PRO169      0.0207
     30  CD        25.9330    6.6410   75.3470 C.3   169  PRO169      0.0892
     31  N         25.9120   11.8800   71.5200 N.3   172  ARG172     -0.1245
     32  CA        24.5700   12.3860   71.2060 C.3   172  ARG172      0.1563
     33  C         24.3850   13.7630   71.8530 C.2   172  ARG172      0.2260
     34  O         23.9720   14.7260   71.1920 O.2   172  ARG172     -0.2867
     35  CB        23.5180   11.3940   71.7120 C.3   172  ARG172      0.0307
     36  CG        22.0580   11.8930   71.7030 C.3   172  ARG172      0.0489
     37  CD        21.0640   10.7990   72.0330 C.3   172  ARG172      0.2205
     38  NE        20.9990    9.7940   70.9650 N.pl3 172  ARG172     -0.0865
     39  CZ        21.5660    8.5870   71.0090 C.cat 172  ARG172      0.5346
     40  NH1       22.2370    8.1960   72.0910 N.pl3 172  ARG172      0.1354
     41  NH2       21.4490    7.7550   69.9800 N.pl3 172  ARG172      0.1354
     42  N         23.8260   17.4090   69.9750 N.3   176  LEU176     -0.1245
     43  CA        22.6990   18.3020   70.2450 C.3   176  LEU176      0.1561
     44  C         23.1070   19.6470   70.7560 C.2   176  LEU176      0.2260
     45  O         22.4790   20.6390   70.3890 O.2   176  LEU176     -0.2867
     46  CB        21.7230   17.6980   71.2480 C.3   176  LEU176      0.0270
     47  CG        21.0310   16.4430   70.8170 C.3   176  LEU176      0.0019
     48  CD1       20.5370   15.7030   72.0360 C.3   176  LEU176      0.0001
     49  CD2       19.9340   16.7350   69.8300 C.3   176  LEU176      0.0001
     50  N         17.7720   14.4410   64.3280 N.3   286  LEU286     -0.1245
     51  CA        18.3820   13.3280   65.0410 C.3   286  LEU286      0.1561
     52  C         17.3160   12.2700   65.1010 C.2   286  LEU286      0.2260
     53  O         16.2080   12.5290   65.5990 O.2   286  LEU286     -0.2867
     54  CB        18.9040   13.7260   66.4220 C.3   286  LEU286      0.0270
     55  CG        19.7970   12.7110   67.1150 C.3   286  LEU286      0.0019
     56  CD1       21.0100   12.3010   66.2450 C.3   286  LEU286      0.0001
     57  CD2       20.2500   13.2300   68.4580 C.3   286  LEU286      0.0001
     58  N         16.2450    8.2350   65.9080 N.3   288  CYS288     -0.1235
     59  CA        16.4240    6.9320   66.5720 C.3   288  CYS288      0.1677
     60  C         15.1510    6.1630   66.2940 C.2   288  CYS288      0.2270
     61  O         14.1550    6.4030   66.9550 O.2   288  CYS288     -0.2867
     62  CB        16.6530    7.0930   68.0720 C.3   288  CYS288      0.0956
     63  SG        18.2390    7.8430   68.4950 S.3   288  CYS288     -0.0801
     64  N         11.7050    7.7340   66.9730 N.3   291  ASP291     -0.1239
     65  CA        11.9750    8.9610   67.7170 C.3   291  ASP291      0.1674
     66  C         12.7050    9.9530   66.8600 C.2   291  ASP291      0.2266
     67  O         13.7250    9.6090   66.2490 O.2   291  ASP291     -0.2867
     68  CB        12.7550    8.6930   69.0300 C.3   291  ASP291      0.1410
     69  CG        11.8590    8.2850   70.1940 C.2   291  ASP291      0.3668
     70  OD1       11.3160    7.1500   70.1580 O.co2 291  ASP291     -0.2456
     71  OD2       11.6830    9.1070   71.1370 O.co2 291  ASP291     -0.2456
     72  N         13.9920   14.3210   66.6870 N.3   293  VAL293     -0.1245
     73  CA        14.1920   15.6620   67.2340 C.3   293  VAL293      0.1561
     74  C         14.6990   16.5670   66.1190 C.2   293  VAL293      0.2260
     75  O         15.5850   16.1670   65.3510 O.2   293  VAL293     -0.2867
     76  CB        15.0550   15.7400   68.5210 C.3   293  VAL293      0.0252
     77  CG1       15.7070   17.1190   68.6890 C.3   293  VAL293      0.0019
     78  CG2       14.2130   15.4240   69.7440 C.3   293  VAL293      0.0019
     79  N         17.0530   23.8910   75.2140 N.3   332  LEU332     -0.1245
     80  CA        17.4080   22.4970   74.8850 C.3   332  LEU332      0.1561
     81  C         17.0050   21.5350   76.0110 C.2   332  LEU332      0.2260
     82  O         16.5900   20.3960   75.7440 O.2   332  LEU332     -0.2867
     83  CB        18.9130   22.4170   74.6170 C.3   332  LEU332      0.0270
     84  CG        19.5300   21.0780   74.2730 C.3   332  LEU332      0.0019
     85  CD1       18.9900   20.5240   72.9700 C.3   332  LEU332      0.0001
     86  CD2       21.0420   21.1960   74.1980 C.3   332  LEU332      0.0001
     87  N         13.4470   20.1060   75.6960 N.3   335  ILE335     -0.1245
     88  CA        13.0910   19.1150   74.6650 C.3   335  ILE335      0.1561
     89  C         13.2450   17.7270   75.2700 C.2   335  ILE335      0.2260
     90  O         14.3280   17.4020   75.7810 O.2   335  ILE335     -0.2867
     91  CB        13.9910   19.2640   73.4050 C.3   335  ILE335      0.0252
     92  CG1       13.7800   20.6360   72.7240 C.3   335  ILE335      0.0019
     93  CG2       13.8430   18.0700   72.4210 C.3   335  ILE335      0.0019
     94  CD1       15.0360   21.1470   72.0530 C.3   335  ILE335      0.0001
     95  N         12.9420   13.6470   74.3830 N.3   337  SER337     -0.1202
     96  CA        12.8970   12.5910   73.3600 C.3   337  SER337      0.2020
     97  C         13.5720   11.3420   73.9010 C.2   337  SER337      0.2619
     98  O         14.6340   11.4520   74.5140 O.2   337  SER337     -0.2717
     99  CB        13.5820   13.0390   72.0780 C.3   337  SER337      0.2103
    100  OG        13.1720   12.2520   70.9700 O.3   337  SER337     -0.2182
    101  N         12.9670   10.1600   73.6680 N.am  338  CYS338     -0.1969
    102  CA        13.3780    8.8350   74.1870 C.3   338  CYS338      0.1712
    103  C         13.2830    8.8960   75.7030 C.2   338  CYS338      0.2296
    104  O         14.1070    8.3040   76.3920 O.2   338  CYS338     -0.2864
    105  CB        14.7760    8.4090   73.7240 C.3   338  CYS338      0.0983
    106  SG        14.8950    7.9240   71.9790 S.3   338  CYS338     -0.0798
    107  N         14.2600   10.9490   77.6220 N.3   340  SER340     -0.1202
    108  CA        15.4180   11.7150   78.0800 C.3   340  SER340      0.2020
    109  C         15.3070   13.2080   77.8260 C.2   340  SER340      0.2619
    110  O         14.5420   13.6570   76.9750 O.2   340  SER340     -0.2717
    111  CB        16.7000   11.2110   77.4270 C.3   340  SER340      0.2103
    112  OG        16.9180    9.8580   77.7620 O.3   340  SER340     -0.2182
    113  N         16.1150   13.9710   78.5490 N.am  341  ASN341     -0.1960
    114  CA        16.2350   15.4090   78.3880 C.3   341  ASN341      0.1819
    115  C         17.6440   15.8120   78.7780 C.2   341  ASN341      0.2621
    116  O         18.2500   15.1830   79.6460 O.2   341  ASN341     -0.2715
    117  CB        15.1670   16.1870   79.1730 C.3   341  ASN341      0.1195
    118  CG        15.4020   16.2160   80.6490 C.2   341  ASN341      0.2630
    119  OD1       14.9310   15.3490   81.3930 O.2   341  ASN341     -0.2716
    120  ND2       16.1820   17.1860   81.0900 N.am  341  ASN341     -0.0877
    121  N         18.1700   16.8570   78.1360 N.am  342  VAL342     -0.1977
    122  CA        19.5110   17.3540   78.4450 C.3   342  VAL342      0.1596
    123  C         19.4650   18.1170   79.7590 C.2   342  VAL342      0.2287
    124  O         18.4990   18.8120   80.0380 O.2   342  VAL342     -0.2864
    125  CB        20.0780   18.2300   77.3060 C.3   342  VAL342      0.0276
    126  CG1       21.5930   18.3410   77.4060 C.3   342  VAL342      0.0022
    127  CG2       19.6980   17.6630   75.9380 C.3   342  VAL342      0.0022
    128  N         22.5200   13.3430   79.5370 N.3   356  LEU356     -0.1245
    129  CA        21.1050   12.9740   79.3760 C.3   356  LEU356      0.1561
    130  C         20.5430   12.4330   80.6550 C.2   356  LEU356      0.2260
    131  O         21.1600   11.5960   81.2940 O.2   356  LEU356     -0.2867
    132  CB        20.8810   11.9460   78.2740 C.3   356  LEU356      0.0270
    133  CG        21.0500   12.4430   76.8400 C.3   356  LEU356      0.0019
    134  CD1       21.5500   11.3340   75.9280 C.3   356  LEU356      0.0001
    135  CD2       19.7640   13.1150   76.3460 C.3   356  LEU356      0.0001
    136  N         24.0300    1.9750   82.9090 N.3   385  ILE385     -0.1231
    137  CA        24.8780    2.2290   81.7540 C.3   385  ILE385      0.1692
    138  C         24.4700    3.5060   81.0340 C.2   385  ILE385      0.2592
    139  O         25.3100    4.3890   80.8400 O.2   385  ILE385     -0.2718
    140  CB        24.9170    0.9940   80.8080 C.3   385  ILE385      0.0266
    141  CG1       25.6640   -0.1920   81.4780 C.3   385  ILE385      0.0019
    142  CG2       25.5430    1.3550   79.4280 C.3   385  ILE385      0.0020
    143  CD1       25.2780   -1.5280   80.9870 C.3   385  ILE385      0.0001
    144  N         23.1830    3.6020   80.6550 N.am  386  MET386     -0.1965
    145  CA        22.6270    4.7200   79.9150 C.3   386  MET386      0.1736
    146  C         22.6400    6.0200   80.6830 C.2   386  MET386      0.2616
    147  O         23.0120    7.0580   80.1130 O.2   386  MET386     -0.2715
    148  CB        21.2210    4.3880   79.4410 C.3   386  MET386      0.0427
    149  CG        21.2020    3.6960   78.1020 C.3   386  MET386      0.0599
    150  SD        19.5960    3.7100   77.2300 S.3   386  MET386     -0.1393
    151  CE        18.5060    2.6990   78.4430 C.3   386  MET386      0.0692
    152  N         22.2890    5.9670   81.9780 N.am  387  TYR387     -0.1974
    153  CA        22.2160    7.1630   82.8050 C.3   387  TYR387      0.1639
    154  C         23.3130    7.2850   83.8640 C.2   387  TYR387      0.2290
    155  O         23.1580    8.0200   84.8340 O.2   387  TYR387     -0.2864
    156  CB        20.8300    7.2810   83.4110 C.3   387  TYR387      0.0560
    157  CG        19.7800    7.4020   82.3380 C.ar  387  TYR387     -0.0198
    158  CD1       19.5950    8.6050   81.6450 C.ar  387  TYR387     -0.0009
    159  CD2       19.0030    6.3010   81.9680 C.ar  387  TYR387     -0.0009
    160  CE1       18.6360    8.7160   80.6460 C.ar  387  TYR387      0.0417
    161  CE2       18.0430    6.4020   80.9650 C.ar  387  TYR387      0.0417
    162  CZ        17.8790    7.6020   80.2970 C.ar  387  TYR387      0.1957
    163  OH        16.9320    7.6640   79.3250 O.3   387  TYR387     -0.2866
    164  N         18.6860   -2.9040   76.9890 N.3   419  ILE419     -0.1231
    165  CA        19.1060   -1.5110   76.9100 C.3   419  ILE419      0.1692
    166  C         18.4110   -0.8920   75.7070 C.2   419  ILE419      0.2592
    167  O         18.9690   -0.8710   74.6010 O.2   419  ILE419     -0.2718
    168  CB        20.6580   -1.3250   76.9200 C.3   419  ILE419      0.0266
    169  CG1       21.3470   -2.3610   77.8310 C.3   419  ILE419      0.0019
    170  CG2       21.0130    0.0930   77.3530 C.3   419  ILE419      0.0020
    171  CD1       22.8370   -2.4320   77.7480 C.3   419  ILE419      0.0001
    172  N         17.1570   -0.4310   75.9280 N.am  420  TYR420     -0.1976
    173  CA        16.2830    0.1870   74.9240 C.3   420  TYR420      0.1639
    174  C         16.2350   -0.6710   73.6500 C.2   420  TYR420      0.2290
    175  O         16.7380   -0.2660   72.6000 O.2   420  TYR420     -0.2864
    176  CB        16.6930    1.6540   74.6460 C.3   420  TYR420      0.0560
    177  CG        15.8160    2.3740   73.6570 C.ar  420  TYR420     -0.0198
    178  CD1       14.4830    2.5920   73.9100 C.ar  420  TYR420     -0.0009
    179  CD2       16.3070    2.8180   72.4730 C.ar  420  TYR420     -0.0009
    180  CE1       13.6500    3.2440   73.0130 C.ar  420  TYR420      0.0417
    181  CE2       15.4810    3.4650   71.5510 C.ar  420  TYR420      0.0417
    182  CZ        14.1950    3.7110   71.8460 C.ar  420  TYR420      0.1957
    183  OH        13.3970    4.3550   70.9010 O.3   420  TYR420     -0.2866
    184  N         22.1930   -7.4200   75.7720 N.3   424  TYR424     -0.1241
    185  CA        23.6370   -7.2420   75.9280 C.3   424  TYR424      0.1605
    186  C         24.0620   -8.0020   77.1980 C.2   424  TYR424      0.2264
    187  O         23.2980   -8.0210   78.1700 O.2   424  TYR424     -0.2867
    188  CB        23.9650   -5.7460   76.1390 C.3   424  TYR424      0.0534
    189  CG        23.6440   -4.7690   75.0190 C.ar  424  TYR424     -0.0201
    190  CD1       22.3420   -4.3060   74.8220 C.ar  424  TYR424     -0.0009
    191  CD2       24.6620   -4.1600   74.2910 C.ar  424  TYR424     -0.0009
    192  CE1       22.0520   -3.3430   73.8530 C.ar  424  TYR424      0.0417
    193  CE2       24.3860   -3.2000   73.3160 C.ar  424  TYR424      0.0417
    194  CZ        23.0790   -2.7860   73.1060 C.ar  424  TYR424      0.1957
    195  OH        22.8060   -1.8260   72.1580 O.3   424  TYR424     -0.2866
    196  N         31.4240    5.3450   77.0560 N.3   438  LEU438     -0.1245
    197  CA        30.1590    5.9520   76.6500 C.3   438  LEU438      0.1561
    198  C         29.8970    7.3710   77.1560 C.2   438  LEU438      0.2260
    199  O         29.0560    8.0520   76.5480 O.2   438  LEU438     -0.2867
    200  CB        28.9920    5.0560   77.0890 C.3   438  LEU438      0.0270
    201  CG        29.0930    3.5640   76.7490 C.3   438  LEU438      0.0019
    202  CD1       28.5310    2.7510   77.8600 C.3   438  LEU438      0.0001
    203  CD2       28.3780    3.2370   75.4670 C.3   438  LEU438      0.0001
    204  N         28.0430   -2.5440   69.5940 N.3   522  TRP522     -0.1227
    205  CA        26.9420   -1.9130   70.3380 C.3   522  TRP522      0.1737
    206  C         26.2950   -0.7160   69.6130 C.2   522  TRP522      0.2595
    207  O         25.2560   -0.2300   70.0740 O.2   522  TRP522     -0.2718
    208  CB        27.4040   -1.5150   71.7590 C.3   522  TRP522      0.0564
    209  CG        27.7700   -2.6470   72.6600 C.ar  522  TRP522      0.0003
    210  CD1       28.3860   -3.8000   72.3060 C.ar  522  TRP522      0.0946
    211  CD2       27.6340   -2.6600   74.0900 C.ar  522  TRP522      0.0152
    212  NE1       28.5760   -4.6070   73.4190 N.ar  522  TRP522     -0.2442
    213  CE2       28.1540   -3.9170   74.5270 C.ar  522  TRP522      0.0810
    214  CE3       27.1380   -1.7510   75.0210 C.ar  522  TRP522      0.0012
    215  CZ2       28.2010   -4.2670   75.8620 C.ar  522  TRP522      0.0191
    216  CZ3       27.1220   -2.1230   76.3590 C.ar  522  TRP522      0.0001
    217  CH2       27.6740   -3.3640   76.7740 C.ar  522  TRP522      0.0015
    218  N         26.8860   -0.2600   68.4780 N.am  523  PHE523     -0.1976
    219  CA        26.3810    0.8860   67.7170 C.3   523  PHE523      0.1639
    220  C         25.8090    0.5190   66.3090 C.2   523  PHE523      0.2290
    221  O         25.9590    1.2770   65.3400 O.2   523  PHE523     -0.2864
    222  CB        27.4420    1.9980   67.6580 C.3   523  PHE523      0.0560
    223  CG        27.7410    2.5850   69.0240 C.ar  523  PHE523     -0.0200
    224  CD1       26.7390    3.1880   69.7770 C.ar  523  PHE523     -0.0042
    225  CD2       29.0200    2.5290   69.5560 C.ar  523  PHE523     -0.0042
    226  CE1       27.0130    3.7090   71.0400 C.ar  523  PHE523     -0.0003
    227  CE2       29.2930    3.0640   70.8170 C.ar  523  PHE523     -0.0003
    228  CZ        28.2870    3.6510   71.5470 C.ar  523  PHE523     -0.0000
@<TRIPOS>BOND
     1    50    51    1
     2    23    22    1
     3    51    52    1
     4    51    54    1
     5    52    53    2
     6   221   220    2
     7    75    74    2
     8     8    10   ar
     9     8     6   ar
    10    22    21   ar
    11    22    20   ar
    12    58    59    1
    13    10    11   ar
    14    74    73    1
    15     5     6    1
    16     5     2    1
    17     1     2    1
    18    56    55    1
    19    21    19   ar
    20    67    66    2
    21    60    59    1
    22    60    61    2
    23   220   219    1
    24    20    18   ar
    25    54    55    1
    26     3     2    1
    27     3     4    2
    28     6     7   ar
    29    59    62    1
    30    72    73    1
    31    66    65    1
    32    64    65    1
    33    55    57    1
    34    11     9   ar
    35    73    76    1
    36    19    17   ar
    37    18    17   ar
    38   222   219    1
    39   222   223    1
    40    65    68    1
    41   219   218    1
    42     7     9   ar
    43    12    13    1
    44    17    16    1
    45    62    63    1
    46   218   206   am
    47    76    77    1
    48    76    78    1
    49    13    16    1
    50    13    14    1
    51   223   225   ar
    52   223   224   ar
    53    68    69    1
    54   225   227   ar
    55   204   205    1
    56   206   207    2
    57   206   205    1
    58   224   226   ar
    59    49    47    1
    60    42    43    1
    61    41    39    1
    62    70    69   ar
    63    69    71   ar
    64    43    44    1
    65    43    46    1
    66   205   208    1
    67    14    15    2
    68    45    44    2
    69    47    46    1
    70    47    48    1
    71   227   228   ar
    72   183   182    1
    73    38    39    2
    74    38    37    1
    75   100    99    1
    76    39    40    1
    77   226   228   ar
    78    34    33    2
    79    32    31    1
    80    32    35    1
    81    32    33    1
    82   181   182   ar
    83   181   179   ar
    84    36    35    1
    85    36    37    1
    86   208   209    1
    87   182   180   ar
    88   106   105    1
    89    94    92    1
    90    99    96    1
    91   195   194    1
    92   210   209   ar
    93   210   212   ar
    94    93    91    1
    95   179   177   ar
    96   175   174    2
    97   209   211   ar
    98    92    91    1
    99    85    84    1
   100   180   178   ar
   101   194   193   ar
   102   194   192   ar
   103   193   191   ar
   104    96    97    1
   105    96    95    1
   106    91    88    1
   107   212   213   ar
   108   174   173    1
   109   177   178   ar
   110   177   176    1
   111   101    97   am
   112   101   102    1
   113   105   102    1
   114   192   190   ar
   115    97    98    2
   116   211   213   ar
   117   211   214   ar
   118   102   103    1
   119    86    84    1
   120    84    83    1
   121   191   189   ar
   122    24    25    1
   123    24    30    1
   124   213   215   ar
   125   167   166    2
   126    83    80    1
   127   176   173    1
   128    88    89    1
   129    88    87    1
   130   190   189   ar
   131    80    79    1
   132    80    81    1
   133    27    26    2
   134   173   172    1
   135   189   188    1
   136   214   216   ar
   137    25    26    1
   138    25    28    1
   139    89    90    2
   140    30    29    1
   141   203   201    1
   142   103   104    2
   143   166   172   am
   144   166   165    1
   145    82    81    2
   146   184   185    1
   147   215   217   ar
   148   134   133    1
   149   185   188    1
   150   185   186    1
   151   127   125    1
   152   135   133    1
   153   216   217   ar
   154    29    28    1
   155   199   198    2
   156   197   196    1
   157   197   200    1
   158   197   198    1
   159   201   200    1
   160   201   202    1
   161   133   132    1
   162   165   168    1
   163   165   164    1
   164   168   170    1
   165   168   169    1
   166   110   109    2
   167   186   187    2
   168   150   149    1
   169   150   151    1
   170   125   126    1
   171   125   122    1
   172   111   112    1
   173   111   108    1
   174   107   108    1
   175   171   169    1
   176   109   108    1
   177   109   113   am
   178   149   148    1
   179   121   122    1
   180   121   115   am
   181   132   129    1
   182   114   113    1
   183   114   115    1
   184   114   117    1
   185   122   123    1
   186   115   116    2
   187   117   118    1
   188   163   162    1
   189   129   128    1
   190   129   130    1
   191   142   140    1
   192   148   145    1
   193   123   124    2
   194   145   144    1
   195   145   146    1
   196   147   146    2
   197   162   160   ar
   198   162   161   ar
   199   160   158   ar
   200   118   120   am
   201   118   119    2
   202   130   131    2
   203   144   138   am
   204   146   152   am
   205   140   141    1
   206   140   137    1
   207   139   138    2
   208   161   159   ar
   209   143   141    1
   210   138   137    1
   211   158   157   ar
   212   137   136    1
   213   159   157   ar
   214   152   153    1
   215   157   156    1
   216   153   156    1
   217   153   154    1
   218   154   155    2
