@<TRIPOS>MOLECULE
tmp/5twoA01.pdb
 228 216 0 0 0
SMALL
GASTEIGER

@<TRIPOS>ATOM
      1  N        -26.1240  -21.9470   -2.2940 N.3    56  ILE56      -0.1245
      2  CA       -25.3530  -21.6140   -1.0730 C.3    56  ILE56       0.1561
      3  C        -23.8370  -21.4210   -1.3470 C.2    56  ILE56       0.2260
      4  O        -23.2380  -22.2210   -2.0610 O.2    56  ILE56      -0.2867
      5  CB       -25.5710  -22.7070   -0.0040 C.3    56  ILE56       0.0252
      6  CG1      -27.0530  -22.7570    0.3820 C.3    56  ILE56       0.0019
      7  CG2      -24.7180  -22.4570    1.2230 C.3    56  ILE56       0.0019
      8  CD1      -27.4650  -24.0060    1.1360 C.3    56  ILE56       0.0001
      9  N        -25.9250  -28.2020    5.5710 N.3    75  ILE75      -0.1231
     10  CA       -26.4060  -26.9050    6.0470 C.3    75  ILE75       0.1692
     11  C        -25.4680  -26.3520    7.1130 C.2    75  ILE75       0.2592
     12  O        -25.1350  -25.1630    7.1140 O.2    75  ILE75      -0.2718
     13  CB       -27.8370  -27.0030    6.6130 C.3    75  ILE75       0.0266
     14  CG1      -28.8180  -27.3480    5.4950 C.3    75  ILE75       0.0019
     15  CG2      -28.2460  -25.6950    7.2610 C.3    75  ILE75       0.0020
     16  CD1      -30.2270  -27.5980    5.9770 C.3    75  ILE75       0.0001
     17  N        -25.0390  -27.2320    8.0130 N.am   76  PHE76      -0.1976
     18  CA       -24.0690  -26.8840    9.0450 C.3    76  PHE76       0.1639
     19  C        -22.8000  -26.2880    8.4460 C.2    76  PHE76       0.2290
     20  O        -22.2910  -25.2640    8.9180 O.2    76  PHE76      -0.2864
     21  CB       -23.7350  -28.1250    9.8730 C.3    76  PHE76       0.0560
     22  CG       -22.7830  -27.8690   11.0020 C.ar   76  PHE76      -0.0200
     23  CD1      -23.2330  -27.3340   12.1990 C.ar   76  PHE76      -0.0042
     24  CD2      -21.4400  -28.1880   10.8760 C.ar   76  PHE76      -0.0042
     25  CE1      -22.3580  -27.1060   13.2430 C.ar   76  PHE76      -0.0003
     26  CE2      -20.5630  -27.9620   11.9160 C.ar   76  PHE76      -0.0003
     27  CZ       -21.0240  -27.4230   13.1020 C.ar   76  PHE76      -0.0000
     28  N        -22.5310  -24.9320    5.5090 N.3    78  GLY78      -0.1210
     29  CA       -22.8800  -23.6590    4.8980 C.3    78  GLY78       0.1956
     30  C        -22.8070  -22.5300    5.9130 C.2    78  GLY78       0.2612
     31  O        -22.2480  -21.4540    5.6430 O.2    78  GLY78      -0.2717
     32  N        -23.3590  -22.7900    7.0970 N.am   79  CYS79      -0.1956
     33  CA       -23.3460  -21.8190    8.1870 C.3    79  CYS79       0.1843
     34  C        -21.9130  -21.5270    8.6130 C.2    79  CYS79       0.2625
     35  O        -21.5570  -20.3830    8.8930 O.2    79  CYS79      -0.2714
     36  CB       -24.1550  -22.3260    9.3900 C.3    79  CYS79       0.0997
     37  SG       -25.9470  -22.5000    9.1090 S.3    79  CYS79      -0.0797
     38  N        -21.0980  -22.5750    8.6600 N.am   80  GLN80      -0.1977
     39  CA       -19.6930  -22.4410    9.0280 C.3    80  GLN80       0.1601
     40  C        -18.9320  -21.5530    8.0300 C.2    80  GLN80       0.2287
     41  O        -18.1910  -20.6470    8.4250 O.2    80  GLN80      -0.2864
     42  CB       -19.0530  -23.8290    9.1270 C.3    80  GLN80       0.0394
     43  CG       -17.5690  -23.8280    9.4340 C.3    80  GLN80       0.0908
     44  CD       -16.9680  -25.2190    9.4060 C.2    80  GLN80       0.2608
     45  OE1      -15.9690  -25.4620    8.7270 O.2    80  GLN80      -0.2717
     46  NE2      -17.5780  -26.1440   10.1400 N.am   80  GLN80      -0.0878
     47  N        -20.1160  -19.2850    5.9720 N.3    82  ARG82      -0.1231
     48  CA       -20.5720  -17.9140    6.1410 C.3    82  ARG82       0.1694
     49  C        -19.9360  -17.2920    7.3810 C.2    82  ARG82       0.2592
     50  O        -19.5130  -16.1420    7.3510 O.2    82  ARG82      -0.2718
     51  CB       -22.1000  -17.8470    6.2470 C.3    82  ARG82       0.0321
     52  CG       -22.6350  -16.4780    6.6990 C.3    82  ARG82       0.0489
     53  CD       -22.2160  -15.3370    5.7510 C.3    82  ARG82       0.2205
     54  NE       -22.4540  -14.0320    6.3580 N.pl3  82  ARG82      -0.0865
     55  CZ       -21.7230  -12.9440    6.1360 C.cat  82  ARG82       0.5346
     56  NH1      -22.0290  -11.8060    6.7520 N.pl3  82  ARG82       0.1354
     57  NH2      -20.6870  -12.9880    5.3040 N.pl3  82  ARG82       0.1354
     58  N        -19.8720  -18.0620    8.4640 N.am   83  SER83      -0.1952
     59  CA       -19.3160  -17.5790    9.7290 C.3    83  SER83       0.1924
     60  C        -17.8740  -17.1070    9.5760 C.2    83  SER83       0.2314
     61  O        -17.4920  -16.0830   10.1310 O.2    83  SER83      -0.2863
     62  CB       -19.3900  -18.6690   10.7950 C.3    83  SER83       0.2116
     63  OG       -20.7360  -18.9860   11.0940 O.3    83  SER83      -0.2180
     64  N        -18.7320  -13.9280   18.0390 N.3   117  HIS117     -0.1241
     65  CA       -20.0270  -14.6500   18.0540 C.3   117  HIS117      0.1621
     66  C        -21.2080  -13.7530   18.4350 C.2   117  HIS117      0.2264
     67  O        -22.3190  -13.8540   17.8300 O.2   117  HIS117     -0.2867
     68  CB       -20.0070  -15.8520   18.9880 C.3   117  HIS117      0.0745
     69  CG       -19.5510  -17.1100   18.3270 C.ar  117  HIS117      0.0817
     70  ND1      -18.2190  -17.4040   18.1260 N.ar  117  HIS117     -0.2268
     71  CD2      -20.2500  -18.1430   17.8020 C.ar  117  HIS117      0.1154
     72  CE1      -18.1180  -18.5700   17.5130 C.ar  117  HIS117      0.1986
     73  NE2      -19.3360  -19.0390   17.3050 N.ar  117  HIS117     -0.2212
     74  N        -22.1600  -11.6370   15.3260 N.3   120  ILE120     -0.1231
     75  CA       -22.7870  -12.4410   14.2880 C.3   120  ILE120      0.1692
     76  C        -24.2650  -12.6450   14.5950 C.2   120  ILE120      0.2592
     77  O        -25.0980  -12.4840   13.7100 O.2   120  ILE120     -0.2718
     78  CB       -22.0820  -13.7980   14.1140 C.3   120  ILE120      0.0266
     79  CG1      -20.7550  -13.5860   13.3810 C.3   120  ILE120      0.0019
     80  CG2      -22.9590  -14.7650   13.3330 C.3   120  ILE120      0.0020
     81  CD1      -19.8740  -14.8190   13.3020 C.3   120  ILE120      0.0001
     82  N        -24.6120  -12.9410   15.8460 N.am  121  TYR121     -0.1976
     83  CA       -26.0340  -13.1620   16.1510 C.3   121  TYR121      0.1639
     84  C        -26.8770  -11.8720   16.1500 C.2   121  TYR121      0.2290
     85  O        -28.0600  -11.8840   15.7520 O.2   121  TYR121     -0.2864
     86  CB       -26.1540  -13.9060   17.4770 C.3   121  TYR121      0.0560
     87  CG       -25.5140  -15.2750   17.3820 C.ar  121  TYR121     -0.0198
     88  CD1      -25.5780  -16.0040   16.1980 C.ar  121  TYR121     -0.0009
     89  CD2      -24.8250  -15.8250   18.4510 C.ar  121  TYR121     -0.0009
     90  CE1      -24.9940  -17.2520   16.0930 C.ar  121  TYR121      0.0417
     91  CE2      -24.2360  -17.0730   18.3520 C.ar  121  TYR121      0.0417
     92  CZ       -24.3210  -17.7810   17.1740 C.ar  121  TYR121      0.1957
     93  OH       -23.7360  -19.0230   17.0630 O.3   121  TYR121     -0.2866
     94  N        -27.3270  -11.2330   12.4180 N.3   124  LEU124     -0.1245
     95  CA       -28.1580  -12.3110   11.9240 C.3   124  LEU124      0.1561
     96  C        -29.6200  -11.9330   12.0950 C.2   124  LEU124      0.2260
     97  O        -30.4420  -12.1820   11.2090 O.2   124  LEU124     -0.2867
     98  CB       -27.8470  -13.6000   12.6650 C.3   124  LEU124      0.0270
     99  CG       -28.4760  -14.8770   12.1380 C.3   124  LEU124      0.0019
    100  CD1      -28.0930  -15.0640   10.6860 C.3   124  LEU124      0.0001
    101  CD2      -27.9970  -16.0410   12.9810 C.3   124  LEU124      0.0001
    102  N        -31.1190  -10.1810    9.3220 N.3   127  LEU127     -0.1245
    103  CA       -31.5340  -10.9850    8.1590 C.3   127  LEU127      0.1561
    104  C        -32.7560  -11.8750    8.3770 C.2   127  LEU127      0.2260
    105  O        -33.1280  -12.6580    7.5000 O.2   127  LEU127     -0.2867
    106  CB       -30.3780  -11.8730    7.7010 C.3   127  LEU127      0.0270
    107  CG       -29.0370  -11.1700    7.5310 C.3   127  LEU127      0.0019
    108  CD1      -27.9930  -12.1640    7.0320 C.3   127  LEU127      0.0001
    109  CD2      -29.1540   -9.9850    6.5900 C.3   127  LEU127      0.0001
    110  N        -34.7470  -16.9960    7.3980 N.3   133  VAL133     -0.1231
    111  CA       -33.5320  -16.1790    7.3580 C.3   133  VAL133      0.1692
    112  C        -32.9950  -16.0180    5.9260 C.2   133  VAL133      0.2592
    113  O        -33.0010  -16.9700    5.1470 O.2   133  VAL133     -0.2718
    114  CB       -32.4370  -16.7930    8.2860 C.3   133  VAL133      0.0266
    115  CG1      -32.0820  -18.2170    7.8610 C.3   133  VAL133      0.0020
    116  CG2      -31.1870  -15.9140    8.3560 C.3   133  VAL133      0.0020
    117  N        -32.5670  -14.8050    5.5730 N.am  134  LEU134     -0.1966
    118  CA       -31.9160  -14.5760    4.2870 C.3   134  LEU134      0.1728
    119  C        -30.5490  -15.2380    4.2580 C.2   134  LEU134      0.2616
    120  O        -29.7810  -15.1380    5.2140 O.2   134  LEU134     -0.2715
    121  CB       -31.7550  -13.0840    3.9980 C.3   134  LEU134      0.0311
    122  CG       -33.0060  -12.2610    3.7270 C.3   134  LEU134      0.0022
    123  CD1      -32.6150  -10.7920    3.5940 C.3   134  LEU134      0.0001
    124  CD2      -33.7030  -12.7650    2.4630 C.3   134  LEU134      0.0001
    125  N        -30.2470  -15.9010    3.1500 N.am  135  ILE135     -0.1963
    126  CA       -28.9550  -16.5480    2.9620 C.3   135  ILE135      0.1727
    127  C        -28.3870  -16.1810    1.5920 C.2   135  ILE135      0.2616
    128  O        -29.1000  -15.6380    0.7440 O.2   135  ILE135     -0.2715
    129  CB       -29.0640  -18.0770    3.0770 C.3   135  ILE135      0.0290
    130  CG1      -29.9810  -18.6250    1.9820 C.3   135  ILE135      0.0022
    131  CG2      -29.6020  -18.4850    4.4460 C.3   135  ILE135      0.0023
    132  CD1      -30.0340  -20.1320    1.9450 C.3   135  ILE135      0.0001
    133  N        -27.1020  -16.4750    1.3980 N.am  136  SER136     -0.1950
    134  CA       -26.4170  -16.2580    0.1270 C.3   136  SER136      0.1924
    135  C        -26.5510  -14.8240   -0.3500 C.2   136  SER136      0.2314
    136  O        -27.0610  -14.5700   -1.4440 O.2   136  SER136     -0.2863
    137  CB       -26.9440  -17.2190   -0.9350 C.3   136  SER136      0.2116
    138  OG       -26.7730  -18.5590   -0.5020 O.3   136  SER136     -0.2180
    139  N        -34.1920  -19.2520    3.8060 N.3   142  MET142     -0.1245
    140  CA       -34.4220  -20.5770    4.3600 C.3   142  MET142      0.1570
    141  C        -35.4350  -20.4840    5.4830 C.2   142  MET142      0.2261
    142  O        -35.2870  -19.6610    6.3880 O.2   142  MET142     -0.2867
    143  CB       -33.1220  -21.1970    4.8680 C.3   142  MET142      0.0387
    144  CG       -33.2710  -22.6710    5.2290 C.3   142  MET142      0.0595
    145  SD       -31.7110  -23.5010    5.5450 S.3   142  MET142     -0.1393
    146  CE       -31.0220  -23.5970    3.8940 C.3   142  MET142      0.0692
    147  N        -35.5200  -25.5090    9.0400 N.3   147  LEU147     -0.1245
    148  CA       -34.3490  -25.6220    9.8990 C.3   147  LEU147      0.1561
    149  C        -34.6720  -26.4080   11.1670 C.2   147  LEU147      0.2260
    150  O        -33.8590  -27.2010   11.6480 O.2   147  LEU147     -0.2867
    151  CB       -33.8130  -24.2310   10.2470 C.3   147  LEU147      0.0270
    152  CG       -33.0140  -23.5730    9.1190 C.3   147  LEU147      0.0019
    153  CD1      -32.8330  -22.0870    9.3700 C.3   147  LEU147      0.0001
    154  CD2      -31.6670  -24.2580    9.0030 C.3   147  LEU147      0.0001
    155  N        -30.5570  -26.1110   16.4510 N.3   157  PHE157     -0.1227
    156  CA       -29.4230  -25.2320   16.1830 C.3   157  PHE157      0.1736
    157  C        -29.8130  -23.7530   16.0660 C.2   157  PHE157      0.2595
    158  O        -29.2640  -22.9090   16.7710 O.2   157  PHE157     -0.2718
    159  CB       -28.7330  -25.7050   14.8990 C.3   157  PHE157      0.0547
    160  CG       -27.4160  -25.0480   14.6130 C.ar  157  PHE157     -0.0202
    161  CD1      -26.2730  -25.4010   15.3180 C.ar  157  PHE157     -0.0042
    162  CD2      -27.3040  -24.1220   13.5890 C.ar  157  PHE157     -0.0042
    163  CE1      -25.0510  -24.8110   15.0300 C.ar  157  PHE157     -0.0003
    164  CE2      -26.0880  -23.5280   13.2950 C.ar  157  PHE157     -0.0003
    165  CZ       -24.9600  -23.8730   14.0160 C.ar  157  PHE157     -0.0000
    166  N        -30.7440  -23.4480   15.1640 N.am  158  MET158     -0.1979
    167  CA       -31.0940  -22.0600   14.8370 C.3   158  MET158      0.1605
    168  C        -32.2210  -21.4400   15.6600 C.2   158  MET158      0.2287
    169  O        -32.3890  -20.2230   15.6710 O.2   158  MET158     -0.2864
    170  CB       -31.4710  -21.9650   13.3570 C.3   158  MET158      0.0413
    171  CG       -30.3090  -22.1900   12.4210 C.3   158  MET158      0.0598
    172  SD       -29.0330  -20.9480   12.6740 S.3   158  MET158     -0.1393
    173  CE       -29.8870  -19.4790   12.1090 C.3   158  MET158      0.0692
    174  N        -31.6220  -18.5410   17.9880 N.3   161  LYS161     -0.1245
    175  CA       -31.2360  -17.3540   17.2420 C.3   161  LYS161      0.1561
    176  C        -32.4820  -16.6590   16.7160 C.2   161  LYS161      0.2260
    177  O        -32.5720  -15.4300   16.7250 O.2   161  LYS161     -0.2867
    178  CB       -30.2880  -17.7110   16.0920 C.3   161  LYS161      0.0271
    179  CG       -28.8680  -18.0410   16.5250 C.3   161  LYS161      0.0035
    180  CD       -28.7520  -19.4340   17.1310 C.3   161  LYS161      0.0206
    181  CE       -27.3000  -19.8920   17.1850 C.3   161  LYS161      0.1093
    182  NZ       -27.1380  -21.1680   17.9420 N.3   161  LYS161     -0.1314
    183  N        -24.8570  -22.1180   22.4290 N.3   243  HIS243     -0.1241
    184  CA       -24.3540  -22.5640   21.1370 C.3   243  HIS243      0.1621
    185  C        -23.1020  -23.4360   21.2900 C.2   243  HIS243      0.2264
    186  O        -22.9700  -24.4760   20.6430 O.2   243  HIS243     -0.2867
    187  CB       -24.0430  -21.3720   20.2390 C.3   243  HIS243      0.0745
    188  CG       -23.3120  -21.7450   18.9900 C.ar  243  HIS243      0.0817
    189  ND1      -23.9350  -22.3350   17.9120 N.ar  243  HIS243     -0.2268
    190  CD2      -22.0050  -21.6350   18.6570 C.ar  243  HIS243      0.1154
    191  CE1      -23.0440  -22.5660   16.9650 C.ar  243  HIS243      0.1986
    192  NE2      -21.8650  -22.1510   17.3930 N.ar  243  HIS243     -0.2212
    193  N        -22.4200  -27.3250   20.3280 N.3   247  LEU247     -0.1245
    194  CA       -21.2790  -27.6770   19.4920 C.3   247  LEU247      0.1561
    195  C        -20.4590  -28.8100   20.1130 C.2   247  LEU247      0.2260
    196  O        -19.9800  -29.6910   19.4050 O.2   247  LEU247     -0.2867
    197  CB       -20.3930  -26.4540   19.2470 C.3   247  LEU247      0.0270
    198  CG       -19.2220  -26.6940   18.2940 C.3   247  LEU247      0.0019
    199  CD1      -19.7280  -27.2250   16.9630 C.3   247  LEU247      0.0001
    200  CD2      -18.4110  -25.4250   18.0930 C.3   247  LEU247      0.0001
    201  N        -14.2050  -28.4000   11.6500 N.3   259  LEU259     -0.1245
    202  CA       -14.1830  -26.9600   11.8570 C.3   259  LEU259      0.1561
    203  C        -13.0140  -26.2900   11.1470 C.2   259  LEU259      0.2260
    204  O        -11.8810  -26.7730   11.1820 O.2   259  LEU259     -0.2867
    205  CB       -14.1380  -26.6300   13.3480 C.3   259  LEU259      0.0270
    206  CG       -15.4350  -26.8580   14.1230 C.3   259  LEU259      0.0019
    207  CD1      -15.2400  -26.4930   15.5830 C.3   259  LEU259      0.0001
    208  CD2      -16.5840  -26.0600   13.5080 C.3   259  LEU259      0.0001
    209  N        -12.2710  -20.8000   13.1240 N.3   263  LEU263     -0.1245
    210  CA       -13.2970  -21.0560   14.1200 C.3   263  LEU263      0.1561
    211  C        -12.7340  -21.8900   15.2650 C.2   263  LEU263      0.2260
    212  O        -13.0950  -21.6820   16.4210 O.2   263  LEU263     -0.2867
    213  CB       -14.5010  -21.7500   13.4890 C.3   263  LEU263      0.0270
    214  CG       -15.1760  -20.9730   12.3550 C.3   263  LEU263      0.0019
    215  CD1      -16.4090  -21.7060   11.9140 C.3   263  LEU263      0.0001
    216  CD2      -15.5330  -19.5660   12.7950 C.3   263  LEU263      0.0001
    217  N        -13.0550  -21.0050   19.1640 N.3   267  TYR267     -0.1241
    218  CA       -13.7200  -21.8720   20.1330 C.3   267  TYR267      0.1605
    219  C        -12.8020  -22.4210   21.2280 C.2   267  TYR267      0.2264
    220  O        -13.2850  -22.8110   22.2930 O.2   267  TYR267     -0.2867
    221  CB       -14.3960  -23.0410   19.4160 C.3   267  TYR267      0.0534
    222  CG       -15.6700  -22.6520   18.7120 C.ar  267  TYR267     -0.0201
    223  CD1      -16.7280  -22.1050   19.4220 C.ar  267  TYR267     -0.0009
    224  CD2      -15.8170  -22.8270   17.3430 C.ar  267  TYR267     -0.0009
    225  CE1      -17.8940  -21.7420   18.7940 C.ar  267  TYR267      0.0417
    226  CE2      -16.9840  -22.4620   16.7010 C.ar  267  TYR267      0.0417
    227  CZ       -18.0190  -21.9190   17.4350 C.ar  267  TYR267      0.1957
    228  OH       -19.1930  -21.5490   16.8220 O.3   267  TYR267     -0.2866
@<TRIPOS>BOND
     1     1     2    1
     2     4     3    2
     3   136   135    2
     4     3     2    1
     5     2     5    1
     6   137   138    1
     7   137   134    1
     8   135   134    1
     9     5     6    1
    10     5     7    1
    11   134   133    1
    12     6     8    1
    13   128   127    2
    14   133   127   am
    15   127   126    1
    16   132   130    1
    17   130   129    1
    18   124   122    1
    19   126   129    1
    20   126   125    1
    21   129   131    1
    22   125   119   am
    23   123   122    1
    24   122   121    1
    25   139   140    1
    26   146   145    1
    27   121   118    1
    28   119   118    1
    29   119   120    2
    30   118   117    1
    31   140   143    1
    32   140   141    1
    33   143   144    1
    34    29    28    1
    35    29    30    1
    36   113   112    2
    37   144   145    1
    38    57    55    1
    39   141   142    2
    40    14    16    1
    41    14    13    1
    42     9    10    1
    43   117   112   am
    44    31    30    2
    45    53    54    1
    46    53    52    1
    47    30    32   am
    48   112   111    1
    49    47    48    1
    50    10    13    1
    51    10    11    1
    52    55    54    2
    53    55    56    1
    54    48    51    1
    55    48    49    1
    56    51    52    1
    57   109   107    1
    58    13    15    1
    59   108   107    1
    60    32    33    1
    61    11    12    2
    62    11    17   am
    63    50    49    2
    64   111   110    1
    65   111   114    1
    66    49    58   am
    67   105   104    2
    68   107   106    1
    69   106   103    1
    70   115   114    1
    71    17    18    1
    72    40    41    2
    73    40    39    1
    74   103   104    1
    75   103   102    1
    76    33    34    1
    77    33    36    1
    78   114   116    1
    79    19    20    2
    80    19    18    1
    81    58    59    1
    82    34    38   am
    83    34    35    2
    84    38    39    1
    85    45    44    2
    86   154   152    1
    87    39    42    1
    88   147   148    1
    89    18    21    1
    90    37    36    1
    91   152   153    1
    92   152   151    1
    93    42    43    1
    94    44    43    1
    95    44    46   am
    96    60    59    1
    97    60    61    2
    98    59    62    1
    99    21    22    1
   100   148   151    1
   101   148   149    1
   102   100    99    1
   103    62    63    1
   104    24    22   ar
   105    24    26   ar
   106    22    23   ar
   107   203   204    2
   108   203   202    1
   109   149   150    2
   110    97    96    2
   111   201   202    1
   112   202   205    1
   113   215   214    1
   114    26    27   ar
   115    95    96    1
   116    95    94    1
   117    95    98    1
   118   173   172    1
   119    99    98    1
   120    99   101    1
   121    23    25   ar
   122   214   216    1
   123   214   213    1
   124   171   172    1
   125   171   170    1
   126    27    25   ar
   127   209   210    1
   128   164   162   ar
   129   164   165   ar
   130    81    79    1
   131    80    78    1
   132   205   206    1
   133   170   167    1
   134    79    78    1
   135   213   210    1
   136   208   206    1
   137   162   160   ar
   138    77    76    2
   139   165   163   ar
   140    78    75    1
   141   210   211    1
   142   206   207    1
   143    75    76    1
   144    75    74    1
   145    76    82   am
   146   160   159    1
   147   160   161   ar
   148   167   166    1
   149   167   168    1
   150   159   156    1
   151   163   161   ar
   152   166   157   am
   153   211   212    2
   154   168   169    2
   155    85    84    2
   156    82    83    1
   157   157   156    1
   158   157   158    2
   159   178   179    1
   160   178   175    1
   161    90    88   ar
   162    90    92   ar
   163    84    83    1
   164    83    86    1
   165   156   155    1
   166    88    87   ar
   167   179   180    1
   168   226   224   ar
   169   226   227   ar
   170   176   177    2
   171   176   175    1
   172   228   227    1
   173   199   198    1
   174   191   192   ar
   175   191   189   ar
   176    93    92    1
   177   180   181    1
   178    92    91   ar
   179   181   182    1
   180   175   174    1
   181    73    72   ar
   182    73    71   ar
   183   224   222   ar
   184    87    86    1
   185    87    89   ar
   186   192   190   ar
   187   227   225   ar
   188    72    70   ar
   189    71    69   ar
   190    67    66    2
   191   189   188   ar
   192    64    65    1
   193    65    66    1
   194    65    68    1
   195   200   198    1
   196    70    69   ar
   197   198   197    1
   198    69    68    1
   199    91    89   ar
   200   190   188   ar
   201   222   221    1
   202   222   223   ar
   203   225   223   ar
   204   188   187    1
   205   217   218    1
   206   197   194    1
   207   196   195    2
   208   221   218    1
   209   194   195    1
   210   194   193    1
   211   218   219    1
   212   187   184    1
   213   186   185    2
   214   184   185    1
   215   184   183    1
   216   219   220    2
