@<TRIPOS>MOLECULE
tmp/5twxD01.pdb
 146 145 0 0 0
SMALL
GASTEIGER

@<TRIPOS>ATOM
      1  N        -11.3330   -9.6240    9.1150 N.3    23  GLY23      -0.1210
      2  CA       -11.0760  -10.8160    8.3420 C.3    23  GLY23       0.1956
      3  C         -9.6570  -11.3100    8.4540 C.2    23  GLY23       0.2612
      4  O         -9.1240  -11.8630    7.4890 O.2    23  GLY23      -0.2717
      5  N         -9.0300  -11.1390    9.6160 N.am   24  PHE24      -0.1962
      6  CA        -7.6720  -11.6300    9.8030 C.3    24  PHE24       0.1771
      7  C         -7.6070  -13.1440    9.7300 C.2    24  PHE24       0.2619
      8  O         -6.5290  -13.6990    9.4840 O.2    24  PHE24      -0.2715
      9  CB        -7.1100  -11.1590   11.1460 C.3    24  PHE24       0.0574
     10  CG        -6.7550   -9.7070   11.1780 C.ar   24  PHE24      -0.0200
     11  CD1       -6.3650   -9.0490   10.0230 C.ar   24  PHE24      -0.0042
     12  CD2       -6.8110   -8.9940   12.3650 C.ar   24  PHE24      -0.0042
     13  CE1       -6.0390   -7.6970   10.0510 C.ar   24  PHE24      -0.0003
     14  CE2       -6.4850   -7.6500   12.3960 C.ar   24  PHE24      -0.0003
     15  CZ        -6.1000   -7.0030   11.2450 C.ar   24  PHE24      -0.0000
     16  N         -8.7370  -13.8200    9.9280 N.am   25  PHE25      -0.1974
     17  CA        -8.7920  -15.2720    9.8560 C.3    25  PHE25       0.1639
     18  C         -9.6710  -15.7430    8.7050 C.2    25  PHE25       0.2290
     19  O        -10.0800  -16.9080    8.6680 O.2    25  PHE25      -0.2864
     20  CB        -9.2690  -15.8360   11.1930 C.3    25  PHE25       0.0560
     21  CG        -8.4840  -15.3200   12.3740 C.ar   25  PHE25      -0.0200
     22  CD1       -8.7790  -14.0860   12.9410 C.ar   25  PHE25      -0.0042
     23  CD2       -7.4140  -16.0400   12.8770 C.ar   25  PHE25      -0.0042
     24  CE1       -8.0450  -13.6040   14.0100 C.ar   25  PHE25      -0.0003
     25  CE2       -6.6790  -15.5630   13.9410 C.ar   25  PHE25      -0.0003
     26  CZ        -6.9910  -14.3470   14.5090 C.ar   25  PHE25      -0.0000
     27  N         -8.7440  -15.9680    5.4840 N.3    27  PHE27      -0.1228
     28  CA        -7.9710  -16.6770    4.4810 C.3    27  PHE27       0.1721
     29  C         -6.6720  -17.2100    5.0760 C.2    27  PHE27       0.2437
     30  O         -6.2100  -16.7200    6.1090 O.2    27  PHE27      -0.2733
     31  CB        -7.6720  -15.7540    3.2910 C.3    27  PHE27       0.0547
     32  CG        -8.9020  -15.3280    2.5550 C.ar   27  PHE27      -0.0202
     33  CD1       -9.8480  -16.2650    2.1810 C.ar   27  PHE27      -0.0042
     34  CD2       -9.1270  -13.9970    2.2540 C.ar   27  PHE27      -0.0042
     35  CE1      -10.9890  -15.8870    1.5140 C.ar   27  PHE27      -0.0003
     36  CE2      -10.2710  -13.6140    1.5840 C.ar   27  PHE27      -0.0003
     37  CZ       -11.2000  -14.5600    1.2160 C.ar   27  PHE27      -0.0000
     38  N         -6.0760  -18.2260    4.4450 N.am   28  PRO28      -0.2718
     39  CA        -4.8370  -18.8000    4.9870 C.3    28  PRO28       0.1535
     40  C         -3.7290  -17.7650    5.0990 C.2    28  PRO28       0.2598
     41  O         -3.5770  -16.8830    4.2530 O.2    28  PRO28      -0.2715
     42  CB        -4.4780  -19.8890    3.9690 C.3    28  PRO28       0.0310
     43  CG        -5.7710  -20.2470    3.3370 C.3    28  PRO28       0.0237
     44  CD        -6.5340  -18.9580    3.2540 C.3    28  PRO28       0.0939
     45  N         -2.9600  -17.8780    6.1770 N.am   29  VAL29      -0.1978
     46  CA        -1.8380  -16.9790    6.4160 C.3    29  VAL29       0.1596
     47  C         -0.6860  -17.3420    5.4830 C.2    29  VAL29       0.2287
     48  O         -0.3460  -18.5200    5.3060 O.2    29  VAL29      -0.2864
     49  CB        -1.4280  -17.0370    7.8980 C.3    29  VAL29       0.0276
     50  CG1       -0.7690  -18.3540    8.2070 C.3    29  VAL29       0.0022
     51  CG2       -0.5150  -15.8880    8.2500 C.3    29  VAL29       0.0022
     52  N          2.6570  -11.7330    4.3540 N.3    33  ILE33      -0.1231
     53  CA         2.1740  -10.8030    5.3680 C.3    33  ILE33       0.1692
     54  C          2.7510  -11.1680    6.7310 C.2    33  ILE33       0.2592
     55  O          2.8900  -10.3070    7.6080 O.2    33  ILE33      -0.2718
     56  CB         0.6330  -10.7680    5.4030 C.3    33  ILE33       0.0266
     57  CG1        0.0500  -12.1820    5.3380 C.3    33  ILE33       0.0019
     58  CG2        0.0890   -9.9050    4.2730 C.3    33  ILE33       0.0020
     59  CD1       -0.2000  -12.7910    6.6870 C.3    33  ILE33       0.0001
     60  N          3.0920  -12.4430    6.9160 N.am   34  ALA34      -0.1966
     61  CA         3.6140  -12.9550    8.1830 C.3    34  ALA34       0.1713
     62  C          4.9040  -13.7160    7.9060 C.2    34  ALA34       0.2458
     63  O          4.8800  -14.9250    7.6370 O.2    34  ALA34      -0.2730
     64  CB         2.5890  -13.8410    8.8880 C.3    34  ALA34       0.0333
     65  N          6.0510  -13.0410    7.9670 N.am   35  PRO35      -0.2727
     66  CA         7.3220  -13.6890    7.6100 C.3    35  PRO35       0.1402
     67  C          7.6500  -14.8650    8.5210 C.2    35  PRO35       0.2269
     68  O          7.5720  -14.7650    9.7490 O.2    35  PRO35      -0.2865
     69  CB         8.3460  -12.5570    7.7640 C.3    35  PRO35       0.0296
     70  CG         7.5400  -11.2980    7.6600 C.3    35  PRO35       0.0237
     71  CD         6.2440  -11.6300    8.3350 C.3    35  PRO35       0.0939
     72  N          6.0520  -17.7160    8.7930 N.3    37  TYR37      -0.1241
     73  CA         4.9120  -18.5040    9.2530 C.3    37  TYR37       0.1605
     74  C          4.9580  -19.9320    8.7130 C.2    37  TYR37       0.2264
     75  O          4.6790  -20.8860    9.4490 O.2    37  TYR37      -0.2867
     76  CB         3.6120  -17.8050    8.8580 C.3    37  TYR37       0.0534
     77  CG         2.4370  -18.1060    9.7650 C.ar   37  TYR37      -0.0201
     78  CD1        1.8420  -17.0960   10.5120 C.ar   37  TYR37      -0.0009
     79  CD2        1.9340  -19.3920    9.8920 C.ar   37  TYR37      -0.0009
     80  CE1        0.7670  -17.3550   11.3430 C.ar   37  TYR37       0.0417
     81  CE2        0.8580  -19.6580   10.7210 C.ar   37  TYR37       0.0417
     82  CZ         0.2810  -18.6390   11.4450 C.ar   37  TYR37       0.1957
     83  OH        -0.7880  -18.9080   12.2710 O.3    37  TYR37      -0.2866
     84  N         -4.6620  -22.6770    9.7710 N.3    45  MET45      -0.1245
     85  CA        -6.1050  -22.8260    9.6400 C.3    45  MET45       0.1570
     86  C         -6.7430  -21.4430    9.6060 C.2    45  MET45       0.2261
     87  O         -6.2290  -20.4950   10.2050 O.2    45  MET45      -0.2867
     88  CB        -6.6780  -23.6650   10.7930 C.3    45  MET45       0.0387
     89  CG        -8.1930  -23.7790   10.8370 C.3    45  MET45       0.0595
     90  SD        -8.9070  -24.2640    9.2550 S.3    45  MET45      -0.1393
     91  CE        -8.2660  -25.9260    9.0900 C.3    45  MET45       0.0692
     92  N         -2.3100  -18.3990   16.1390 N.3    76  ALA76      -0.1245
     93  CA        -2.1560  -16.9490   16.1790 C.3    76  ALA76       0.1562
     94  C         -1.4870  -16.4780   17.4610 C.2    76  ALA76       0.2260
     95  O         -0.8920  -15.3960   17.4750 O.2    76  ALA76      -0.2867
     96  CB        -3.5160  -16.2680   16.0290 C.3    76  ALA76       0.0290
     97  N          2.5120  -17.7080   16.8480 N.3    79  TYR79      -0.1227
     98  CA         3.3260  -16.9280   15.9210 C.3    79  TYR79       0.1736
     99  C          3.4520  -15.4680   16.3360 C.2    79  TYR79       0.2595
    100  O          4.4740  -14.8350   16.0500 O.2    79  TYR79      -0.2718
    101  CB         2.7440  -17.0020   14.5080 C.3    79  TYR79       0.0548
    102  CG         3.4080  -16.0340   13.5530 C.ar   79  TYR79      -0.0200
    103  CD1        2.7950  -14.8370   13.2040 C.ar   79  TYR79      -0.0009
    104  CD2        4.6570  -16.3090   13.0160 C.ar   79  TYR79      -0.0009
    105  CE1        3.4050  -13.9460   12.3420 C.ar   79  TYR79       0.0417
    106  CE2        5.2730  -15.4260   12.1520 C.ar   79  TYR79       0.0417
    107  CZ         4.6440  -14.2470   11.8170 C.ar   79  TYR79       0.1957
    108  OH         5.2570  -13.3660   10.9580 O.3    79  TYR79      -0.2866
    109  N          2.4560  -14.9220   17.0180 N.am   80  ASN80      -0.1960
    110  CA         2.4600  -13.5080   17.3560 C.3    80  ASN80       0.1819
    111  C          2.9340  -13.2780   18.7840 C.2    80  ASN80       0.2621
    112  O          2.8050  -14.1440   19.6530 O.2    80  ASN80      -0.2715
    113  CB         1.0660  -12.9050   17.1790 C.3    80  ASN80       0.1195
    114  CG         0.5810  -12.9670   15.7490 C.2    80  ASN80       0.2630
    115  OD1        0.9110  -12.1070   14.9340 O.2    80  ASN80      -0.2716
    116  ND2       -0.2170  -13.9820   15.4370 N.am   80  ASN80      -0.0877
    117  N          3.4870  -12.0900   19.0150 N.am   81  ARG81      -0.1977
    118  CA         3.8720  -11.7310   20.3650 C.3    81  ARG81       0.1597
    119  C          2.6390  -11.2870   21.1460 C.2    81  ARG81       0.2287
    120  O          1.6860  -10.7580   20.5670 O.2    81  ARG81      -0.2864
    121  CB         4.9090  -10.6120   20.3470 C.3    81  ARG81       0.0334
    122  CG         4.5780   -9.3380   19.5100 C.3    81  ARG81       0.0492
    123  CD         5.5110   -8.2470   19.9830 C.3    81  ARG81       0.2205
    124  NE         5.0860   -6.8890   19.6010 N.pl3  81  ARG81      -0.0865
    125  CZ         5.3070   -6.3050   18.4350 C.cat  81  ARG81       0.5346
    126  NH1        5.9630   -6.9080   17.4800 N.pl3  81  ARG81       0.1354
    127  NH2        4.8580   -5.0910   18.2380 N.pl3  81  ARG81       0.1354
    128  N          0.5510   -7.7890   20.5010 N.3    84  THR84      -0.1218
    129  CA         0.1180   -7.4680   19.1480 C.3    84  THR84       0.1862
    130  C         -1.3940   -7.6430   19.0200 C.2    84  THR84       0.2287
    131  O         -2.0200   -8.4100   19.7580 O.2    84  THR84      -0.2866
    132  CB         0.8520   -8.3020   18.0910 C.3    84  THR84       0.1770
    133  OG1        0.7730   -7.6340   16.8250 O.3    84  THR84      -0.2211
    134  CG2        0.2250   -9.6580   17.9580 C.3    84  THR84       0.0375
    135  N         -2.9030   -9.1610   16.6980 N.3    86  TYR86      -0.1241
    136  CA        -3.2500  -10.5230   16.2950 C.3    86  TYR86       0.1605
    137  C         -3.3230  -11.4650   17.4890 C.2    86  TYR86       0.2264
    138  O         -4.1480  -12.3870   17.5000 O.2    86  TYR86      -0.2867
    139  CB        -2.2590  -11.0410   15.2530 C.3    86  TYR86       0.0534
    140  CG        -2.0140  -10.0680   14.1260 C.ar   86  TYR86      -0.0201
    141  CD1       -0.8890   -9.2580   14.1130 C.ar   86  TYR86      -0.0009
    142  CD2       -2.9200   -9.9530   13.0800 C.ar   86  TYR86      -0.0009
    143  CE1       -0.6680   -8.3640   13.0840 C.ar   86  TYR86       0.0417
    144  CE2       -2.7080   -9.0620   12.0480 C.ar   86  TYR86       0.0417
    145  CZ        -1.5800   -8.2700   12.0560 C.ar   86  TYR86       0.1957
    146  OH        -1.3600   -7.3800   11.0310 O.3    86  TYR86      -0.2866
@<TRIPOS>BOND
     1    37    35   ar
     2    37    36   ar
     3    35    33   ar
     4    36    34   ar
     5    33    32   ar
     6    34    32   ar
     7    32    31    1
     8    44    43    1
     9    44    38    1
    10    31    28    1
    11    43    42    1
    12    42    39    1
    13    41    40    2
    14    58    56    1
    15    52    53    1
    16    38    39    1
    17    38    29   am
    18    28    29    1
    19    28    27    1
    20    39    40    1
    21    29    30    2
    22    40    45   am
    23    48    47    2
    24    57    56    1
    25    57    59    1
    26    53    56    1
    27    53    54    1
    28    47    46    1
    29    45    46    1
    30    46    49    1
    31    54    60   am
    32    54    55    2
    33    60    61    1
    34     4     3    2
    35    66    69    1
    36    66    65    1
    37    66    67    1
    38    63    62    2
    39    70    69    1
    40    70    71    1
    41    49    50    1
    42    49    51    1
    43    62    65   am
    44    62    61    1
    45    65    71    1
    46    61    64    1
    47     2     3    1
    48     2     1    1
    49     3     5   am
    50    67    68    2
    51    19    18    2
    52    18    17    1
    53    74    73    1
    54    74    75    2
    55    72    73    1
    56    76    73    1
    57    76    77    1
    58    91    90    1
    59    90    89    1
    60     8     7    2
    61    86    85    1
    62    86    87    2
    63     5     6    1
    64    85    84    1
    65    85    88    1
    66     7     6    1
    67     7    16   am
    68    77    79   ar
    69    77    78   ar
    70     6     9    1
    71    17    16    1
    72    17    20    1
    73    79    81   ar
    74    11    13   ar
    75    11    10   ar
    76    13    15   ar
    77    78    80   ar
    78    81    82   ar
    79    88    89    1
    80   108   107    1
    81   146   145    1
    82     9    10    1
    83    10    12   ar
    84    20    21    1
    85    15    14   ar
    86    80    82   ar
    87    82    83    1
    88   107   106   ar
    89   107   105   ar
    90   144   145   ar
    91   144   142   ar
    92   145   143   ar
    93   106   104   ar
    94   105   103   ar
    95    12    14   ar
    96    21    23   ar
    97    21    22   ar
    98    23    25   ar
    99    22    24   ar
   100   104   102   ar
   101   142   140   ar
   102   143   141   ar
   103   103   102   ar
   104   102   101    1
   105    25    26   ar
   106    24    26   ar
   107   141   140   ar
   108   140   139    1
   109   101    98    1
   110   115   114    2
   111   139   136    1
   112   116   114   am
   113   114   113    1
   114    98    99    1
   115    98    97    1
   116    96    93    1
   117   100    99    2
   118    92    93    1
   119    93    94    1
   120   136   135    1
   121   136   137    1
   122    99   109   am
   123   133   132    1
   124   109   110    1
   125   113   110    1
   126   110   111    1
   127    94    95    2
   128   126   125    1
   129   137   138    2
   130   134   132    1
   131   132   129    1
   132   127   125    1
   133   125   124    2
   134   111   117   am
   135   111   112    2
   136   117   118    1
   137   130   129    1
   138   130   131    2
   139   129   128    1
   140   122   123    1
   141   122   121    1
   142   124   123    1
   143   121   118    1
   144   118   119    1
   145   120   119    2
