@<TRIPOS>MOLECULE
tmp/5twxD00.pdb
 95 93 0 0 0
SMALL
GASTEIGER

@<TRIPOS>ATOM
      1  N        -20.5880  -18.2880   10.9950 N.3    14  ARG14      -0.1245
      2  CA       -20.9480  -16.8880   10.7930 C.3    14  ARG14       0.1563
      3  C        -20.8930  -16.0910   12.0910 C.2    14  ARG14       0.2260
      4  O        -20.5860  -14.8950   12.0590 O.2    14  ARG14      -0.2867
      5  CB       -22.3330  -16.7680   10.1520 C.3    14  ARG14       0.0307
      6  CG       -22.5100  -17.5670    8.8670 C.3    14  ARG14       0.0489
      7  CD       -23.7730  -17.1770    8.1090 C.3    14  ARG14       0.2205
      8  NE       -24.9850  -17.7300    8.7110 N.pl3  14  ARG14      -0.0865
      9  CZ       -25.4890  -18.9280    8.4320 C.cat  14  ARG14       0.5346
     10  NH1      -26.6000  -19.3360    9.0310 N.pl3  14  ARG14       0.1354
     11  NH2      -24.8810  -19.7240    7.5620 N.pl3  14  ARG14       0.1354
     12  N        -17.0000  -15.5970   12.7390 N.3    17  GLN17      -0.1231
     13  CA       -16.4350  -14.6420   11.7920 C.3    17  GLN17       0.1698
     14  C        -16.8730  -13.2190   12.1100 C.2    17  GLN17       0.2592
     15  O        -16.1300  -12.2670   11.8460 O.2    17  GLN17      -0.2718
     16  CB       -16.8560  -15.0020   10.3670 C.3    17  GLN17       0.0381
     17  CG       -16.2380  -16.2710    9.8080 C.3    17  GLN17       0.0905
     18  CD       -16.4810  -16.4210    8.3180 C.2    17  GLN17       0.2608
     19  OE1      -15.5430  -16.4380    7.5230 O.2    17  GLN17      -0.2717
     20  NE2      -17.7480  -16.5380    7.9330 N.am   17  GLN17      -0.0878
     21  N        -18.0780  -13.0570   12.6660 N.am   18  ARG18      -0.1980
     22  CA       -18.6160  -11.7240   12.9260 C.3    18  ARG18       0.1597
     23  C        -17.7800  -10.9610   13.9440 C.2    18  ARG18       0.2287
     24  O        -17.7520   -9.7260   13.9240 O.2    18  ARG18      -0.2864
     25  CB       -20.0650  -11.8320   13.4050 C.3    18  ARG18       0.0334
     26  CG       -20.6750  -10.4450   13.5010 C.3    18  ARG18       0.0492
     27  CD       -22.1250  -10.5550   13.9150 C.3    18  ARG18       0.2205
     28  NE       -22.2260  -11.3470   15.1210 N.pl3  18  ARG18      -0.0865
     29  CZ       -23.2040  -12.2420   15.2320 C.cat  18  ARG18       0.5346
     30  NH1      -24.0790  -12.3920   14.2380 N.pl3  18  ARG18       0.1354
     31  NH2      -23.2930  -13.0050   16.3210 N.pl3  18  ARG18       0.1354
     32  N        -14.6580  -10.7560   14.0120 N.3    20  ASP20      -0.1225
     33  CA       -13.3880  -10.3900   13.3800 C.3    20  ASP20       0.1790
     34  C        -13.7270   -9.5080   12.1790 C.2    20  ASP20       0.2440
     35  O        -13.7550   -9.9640   11.0310 O.2    20  ASP20      -0.2733
     36  CB       -12.5900  -11.6380   12.9870 C.3    20  ASP20       0.1423
     37  CG       -11.4190  -11.3300   12.0630 C.2    20  ASP20       0.3668
     38  OD1      -10.8230  -10.2380   12.1920 O.co2  20  ASP20      -0.2456
     39  OD2      -11.0890  -12.1860   11.2150 O.co2  20  ASP20      -0.2456
     40  N        -14.0360   -8.2310   12.4250 N.am   21  PRO21      -0.2718
     41  CA       -14.5420   -7.3550   11.3430 C.3    21  PRO21       0.1535
     42  C        -13.5370   -7.1120   10.2120 C.2    21  PRO21       0.2599
     43  O        -13.9200   -6.6390    9.1370 O.2    21  PRO21      -0.2715
     44  CB       -14.8710   -6.0430   12.0810 C.3    21  PRO21       0.0310
     45  CG       -14.1150   -6.1210   13.3920 C.3    21  PRO21       0.0237
     46  CD       -13.9980   -7.5630   13.7370 C.3    21  PRO21       0.0939
     47  N        -12.2620   -7.3870   10.4550 N.am   22  HIS22      -0.1960
     48  CA       -11.0900   -7.2410    9.5950 C.3    22  HIS22       0.1787
     49  C        -10.6970   -8.4900    8.8380 C.2    22  HIS22       0.2620
     50  O         -9.8040   -8.4110    7.9880 O.2    22  HIS22      -0.2715
     51  CB        -9.9910   -6.7480   10.5320 C.3    22  HIS22       0.0785
     52  CG       -10.2550   -5.3340   10.9330 C.ar   22  HIS22       0.0821
     53  ND1      -11.3370   -4.6410   10.4020 N.ar   22  HIS22      -0.2267
     54  CD2       -9.8160   -4.5960   11.9770 C.ar   22  HIS22       0.1154
     55  CE1      -11.3800   -3.4370   10.9460 C.ar   22  HIS22       0.1986
     56  NE2      -10.4990   -3.4000   11.9340 N.ar   22  HIS22      -0.2212
     57  N        -11.3330   -9.6240    9.1150 N.am   23  GLY23      -0.1954
     58  CA       -11.0760  -10.8160    8.3420 C.3    23  GLY23       0.1869
     59  C         -9.6570  -11.3100    8.4540 C.2    23  GLY23       0.2309
     60  O         -9.1240  -11.8630    7.4890 O.2    23  GLY23      -0.2863
     61  N         -9.9440  -14.8550    7.7480 N.3    26  ALA26      -0.1231
     62  CA       -10.7750  -15.2210    6.6090 C.3    26  ALA26       0.1694
     63  C        -10.0410  -16.1720    5.6740 C.2    26  ALA26       0.2592
     64  O        -10.6460  -17.1010    5.1300 O.2    26  ALA26      -0.2718
     65  CB       -11.2190  -13.9670    5.8550 C.3    26  ALA26       0.0304
     66  N         -8.7440  -15.9680    5.4840 N.am   27  PHE27      -0.1963
     67  CA        -7.9710  -16.6770    4.4810 C.3    27  PHE27       0.1756
     68  C         -6.6720  -17.2100    5.0760 C.2    27  PHE27       0.2461
     69  O         -6.2100  -16.7200    6.1090 O.2    27  PHE27      -0.2730
     70  CB        -7.6720  -15.7540    3.2910 C.3    27  PHE27       0.0574
     71  CG        -8.9020  -15.3280    2.5550 C.ar   27  PHE27      -0.0200
     72  CD1       -9.8480  -16.2650    2.1810 C.ar   27  PHE27      -0.0042
     73  CD2       -9.1270  -13.9970    2.2540 C.ar   27  PHE27      -0.0042
     74  CE1      -10.9890  -15.8870    1.5140 C.ar   27  PHE27      -0.0003
     75  CE2      -10.2710  -13.6140    1.5840 C.ar   27  PHE27      -0.0003
     76  CZ       -11.2000  -14.5600    1.2160 C.ar   27  PHE27      -0.0000
     77  N         -6.0760  -18.2260    4.4450 N.am   28  PRO28      -0.2727
     78  CA        -4.8370  -18.8000    4.9870 C.3    28  PRO28       0.1402
     79  C         -3.7290  -17.7650    5.0990 C.2    28  PRO28       0.2269
     80  O         -3.5770  -16.8830    4.2530 O.2    28  PRO28      -0.2865
     81  CB        -4.4780  -19.8890    3.9690 C.3    28  PRO28       0.0296
     82  CG        -5.7710  -20.2470    3.3370 C.3    28  PRO28       0.0237
     83  CD        -6.5340  -18.9580    3.2540 C.3    28  PRO28       0.0939
     84  N         -0.1370  -16.3380    4.8070 N.3    30  THR30      -0.1218
     85  CA         1.0090  -16.5050    3.9260 C.3    30  THR30       0.1862
     86  C          2.2140  -15.7480    4.4760 C.2    30  THR30       0.2287
     87  O          2.0790  -14.7960    5.2500 O.2    30  THR30      -0.2866
     88  CB         0.6900  -16.0630    2.4940 C.3    30  THR30       0.1770
     89  OG1        0.4180  -14.6590    2.4590 O.3    30  THR30      -0.2211
     90  CG2       -0.5110  -16.8350    1.9610 C.3    30  THR30       0.0375
     91  N          3.9340  -13.7450    2.9310 N.3    32  ALA32      -0.1245
     92  CA         3.9720  -12.3870    2.4000 C.3    32  ALA32       0.1562
     93  C          3.5670  -11.3630    3.4550 C.2    32  ALA32       0.2260
     94  O          4.0810  -10.2380    3.4680 O.2    32  ALA32      -0.2867
     95  CB         3.0650  -12.2790    1.1750 C.3    32  ALA32       0.0290
@<TRIPOS>BOND
     1    95    92    1
     2    76    74   ar
     3    76    75   ar
     4    74    72   ar
     5    75    73   ar
     6    90    88    1
     7    72    71   ar
     8    73    71   ar
     9    92    91    1
    10    92    93    1
    11    89    88    1
    12    88    85    1
    13    71    70    1
    14    83    82    1
    15    83    77    1
    16    70    67    1
    17    82    81    1
    18    93    94    2
    19    85    86    1
    20    85    84    1
    21    81    78    1
    22    80    79    2
    23    77    78    1
    24    77    68   am
    25    86    87    2
    26    67    68    1
    27    67    66    1
    28    78    79    1
    29    68    69    2
    30    64    63    2
    31    66    63   am
    32    63    62    1
    33    65    62    1
    34    62    61    1
    35    60    59    2
    36    19    18    2
    37    11     9    1
    38    20    18   am
    39    50    49    2
    40     7     8    1
    41     7     6    1
    42    18    17    1
    43    58    59    1
    44    58    57    1
    45     9     8    2
    46     9    10    1
    47    49    57   am
    48    49    48    1
    49     6     5    1
    50    43    42    2
    51    48    47    1
    52    48    51    1
    53    17    16    1
    54     5     2    1
    55    42    47   am
    56    42    41    1
    57    16    13    1
    58    53    52   ar
    59    53    55   ar
    60    51    52    1
    61     2     1    1
    62     2     3    1
    63    52    54   ar
    64    55    56   ar
    65    35    34    2
    66    39    37   ar
    67    41    44    1
    68    41    40    1
    69    13    14    1
    70    13    12    1
    71    15    14    2
    72    56    54   ar
    73     4     3    2
    74    37    38   ar
    75    37    36    1
    76    44    45    1
    77    14    21   am
    78    34    40   am
    79    34    33    1
    80    40    46    1
    81    21    22    1
    82    22    25    1
    83    22    23    1
    84    36    33    1
    85    33    32    1
    86    45    46    1
    87    25    26    1
    88    26    27    1
    89    27    28    1
    90    24    23    2
    91    30    29    1
    92    28    29    2
    93    29    31    1
