@<TRIPOS>MOLECULE
tmp/5twyA00.pdb
 155 145 0 0 0
SMALL
GASTEIGER

@<TRIPOS>ATOM
      1  N         21.7680    1.8720    5.2490 N.3    18  ILE18      -0.1231
      2  CA        22.9540    1.5810    6.0380 C.3    18  ILE18       0.1692
      3  C         22.9050    0.0950    6.3940 C.2    18  ILE18       0.2592
      4  O         21.9670   -0.6130    6.0320 O.2    18  ILE18      -0.2718
      5  CB        23.0330    2.4730    7.3020 C.3    18  ILE18       0.0266
      6  CG1       22.7080    3.9280    6.9530 C.3    18  ILE18       0.0019
      7  CG2       24.3970    2.4250    7.9710 C.3    18  ILE18       0.0020
      8  CD1       23.8610    4.6770    6.3090 C.3    18  ILE18       0.0001
      9  N         23.9350   -0.3850    7.0850 N.am   19  GLY19      -0.1957
     10  CA        23.8840   -1.7040    7.6790 C.3    19  GLY19       0.1869
     11  C         24.0190   -2.8710    6.7260 C.2    19  GLY19       0.2309
     12  O         23.9580   -4.0160    7.1820 O.2    19  GLY19      -0.2863
     13  N         20.0980   -1.7240    7.8930 N.3    26  VAL26      -0.1245
     14  CA        19.2510   -0.7390    8.5550 C.3    26  VAL26       0.1561
     15  C         19.1710    0.4940    7.6640 C.2    26  VAL26       0.2260
     16  O         20.1940    1.0460    7.2460 O.2    26  VAL26      -0.2867
     17  CB        19.7490   -0.4140    9.9780 C.3    26  VAL26       0.0252
     18  CG1       20.1170   -1.6980   10.7070 C.3    26  VAL26       0.0019
     19  CG2       20.9380    0.5440    9.9860 C.3    26  VAL26       0.0019
     20  N         17.6060    4.2960    7.6430 N.3    28  LEU28      -0.1245
     21  CA        16.9630    5.3290    8.4360 C.3    28  LEU28       0.1561
     22  C         15.7340    5.8430    7.6960 C.2    28  LEU28       0.2260
     23  O         15.6500    5.7770    6.4670 O.2    28  LEU28      -0.2867
     24  CB        17.9430    6.4640    8.7330 C.3    28  LEU28       0.0270
     25  CG        19.3790    6.0280    9.0510 C.3    28  LEU28       0.0019
     26  CD1       20.2350    7.2300    9.4110 C.3    28  LEU28       0.0001
     27  CD2       19.4150    4.9880   10.1690 C.3    28  LEU28       0.0001
     28  N         15.2680    4.4170   12.8020 N.3    39  ALA39      -0.1245
     29  CA        16.0620    3.4170   12.1030 C.3    39  ALA39       0.1562
     30  C         15.2480    2.1360   11.9930 C.2    39  ALA39       0.2260
     31  O         14.5840    1.7300   12.9510 O.2    39  ALA39      -0.2867
     32  CB        17.3850    3.1430   12.8210 C.3    39  ALA39       0.0290
     33  N         15.4590   -1.8420   10.9420 N.3    41  LYS41      -0.1245
     34  CA        16.2510   -3.0320   10.6490 C.3    41  LYS41       0.1561
     35  C         15.4550   -3.9350    9.7150 C.2    41  LYS41       0.2260
     36  O         14.4510   -4.5290   10.1210 O.2    41  LYS41      -0.2867
     37  CB        16.6070   -3.7540   11.9450 C.3    41  LYS41       0.0271
     38  CG        17.7760   -4.7210   11.8500 C.3    41  LYS41       0.0035
     39  CD        17.8830   -5.5400   13.1290 C.3    41  LYS41       0.0206
     40  CE        19.3250   -5.8500   13.4930 C.3    41  LYS41       0.1093
     41  NZ        19.4010   -6.7910   14.6460 N.3    41  LYS41      -0.1314
     42  N         14.7670  -12.0650   20.5060 N.3    55  GLU55      -0.1245
     43  CA        15.1590  -10.6720   20.6890 C.3    55  GLU55       0.1567
     44  C         13.9450   -9.7540   20.6540 C.2    55  GLU55       0.2260
     45  O         13.8080   -8.8590   21.4970 O.2    55  GLU55      -0.2867
     46  CB        16.1730  -10.2640   19.6180 C.3    55  GLU55       0.0388
     47  CG        16.2450   -8.7640   19.3670 C.3    55  GLU55       0.1160
     48  CD        17.3080   -8.3910   18.3510 C.2    55  GLU55       0.3649
     49  OE1       17.5560   -9.1900   17.4230 O.co2  55  GLU55      -0.2457
     50  OE2       17.8930   -7.2950   18.4790 O.co2  55  GLU55      -0.2457
     51  N         17.9200    0.5970   23.3700 N.3    68  CYS68      -0.1235
     52  CA        17.3980    1.1260   22.1180 C.3    68  CYS68       0.1677
     53  C         15.9440    0.7090   21.9630 C.2    68  CYS68       0.2270
     54  O         15.6400   -0.4800   21.8180 O.2    68  CYS68      -0.2867
     55  CB        18.2310    0.6470   20.9350 C.3    68  CYS68       0.0956
     56  SG        17.7830    1.3830   19.3450 S.3    68  CYS68      -0.0801
     57  N         11.6180   -4.0280   11.6920 N.3    82  MET82      -0.1245
     58  CA        11.6760   -3.5380   13.0650 C.3    82  MET82       0.1570
     59  C         12.1350   -2.0900   13.0390 C.2    82  MET82       0.2261
     60  O         13.2040   -1.7900   12.4970 O.2    82  MET82      -0.2867
     61  CB        12.6280   -4.3790   13.9250 C.3    82  MET82       0.0387
     62  CG        12.4890   -5.8820   13.7580 C.3    82  MET82       0.0595
     63  SD        13.3310   -6.7900   15.0690 S.3    82  MET82      -0.1393
     64  CE        14.8790   -5.8970   15.1670 C.3    82  MET82       0.0692
     65  N         13.2760    1.2090   15.2800 N.3    84  LEU84      -0.1231
     66  CA        13.9360    1.3760   16.5640 C.3    84  LEU84       0.1693
     67  C         14.4240    2.8100   16.7110 C.2    84  LEU84       0.2592
     68  O         14.3160    3.6320   15.7930 O.2    84  LEU84      -0.2718
     69  CB        15.1000    0.3910   16.7230 C.3    84  LEU84       0.0284
     70  CG        14.7970   -1.0970   16.5410 C.3    84  LEU84       0.0019
     71  CD1       15.2190   -1.5630   15.1570 C.3    84  LEU84       0.0001
     72  CD2       15.4710   -1.9230   17.6250 C.3    84  LEU84       0.0001
     73  N         14.9760    3.0920   17.8890 N.am   85  GLU85      -0.1966
     74  CA        15.4560    4.4230   18.2330 C.3    85  GLU85       0.1733
     75  C         16.5410    4.8920   17.2710 C.2    85  GLU85       0.2616
     76  O         17.3180    4.0990   16.7320 O.2    85  GLU85      -0.2715
     77  CB        16.0040    4.4330   19.6580 C.3    85  GLU85       0.0429
     78  CG        14.9970    4.7830   20.7270 C.3    85  GLU85       0.1163
     79  CD        15.6570    5.3350   21.9750 C.2    85  GLU85       0.3649
     80  OE1       15.5340    4.7000   23.0460 O.co2  85  GLU85      -0.2457
     81  OE2       16.3000    6.4040   21.8830 O.co2  85  GLU85      -0.2457
     82  N         16.5980    6.2060   17.0780 N.am   86  TYR86      -0.1960
     83  CA        17.5990    6.8170   16.2170 C.3    86  TYR86       0.1771
     84  C         18.9170    6.9230   16.9740 C.2    86  TYR86       0.2620
     85  O         19.0110    7.6510   17.9690 O.2    86  TYR86      -0.2715
     86  CB        17.1220    8.1910   15.7560 C.3    86  TYR86       0.0574
     87  CG        18.0250    8.8540   14.7470 C.ar   86  TYR86      -0.0198
     88  CD1       18.4860    8.1580   13.6380 C.ar   86  TYR86      -0.0009
     89  CD2       18.4090   10.1800   14.8970 C.ar   86  TYR86      -0.0009
     90  CE1       19.3110    8.7630   12.7070 C.ar   86  TYR86       0.0417
     91  CE2       19.2320   10.7940   13.9730 C.ar   86  TYR86       0.0417
     92  CZ        19.6800   10.0810   12.8800 C.ar   86  TYR86       0.1957
     93  OH        20.5000   10.6910   11.9580 O.3    86  TYR86      -0.2866
     94  N         19.9360    6.2040   16.5020 N.am   87  CYS87      -0.1954
     95  CA        21.2370    6.1320   17.1650 C.3    87  CYS87       0.1828
     96  C         22.3360    6.5410   16.1880 C.2    87  CYS87       0.2467
     97  O         23.1180    5.7000   15.7250 O.2    87  CYS87      -0.2730
     98  CB        21.4870    4.7300   17.7130 C.3    87  CYS87       0.0996
     99  SG        20.2010    4.1490   18.8480 S.3    87  CYS87      -0.0797
    100  N         22.4340    7.8360   15.8680 N.am   88  PRO88      -0.2715
    101  CA        23.4560    8.2820   14.9080 C.3    88  PRO88       0.1536
    102  C         24.8620    8.3250   15.4790 C.2    88  PRO88       0.2599
    103  O         25.8150    8.4680   14.7030 O.2    88  PRO88      -0.2715
    104  CB        22.9810    9.6880   14.5250 C.3    88  PRO88       0.0310
    105  CG        22.2620   10.1710   15.7480 C.3    88  PRO88       0.0237
    106  CD        21.6340    8.9580   16.3930 C.3    88  PRO88       0.0939
    107  N         25.0230    8.2160   16.7990 N.am   89  GLY89      -0.1941
    108  CA        26.3450    8.3460   17.3870 C.3    89  GLY89       0.2014
    109  C         27.3040    7.2500   16.9670 C.2    89  GLY89       0.2639
    110  O         28.5190    7.4580   16.9480 O.2    89  GLY89      -0.2714
    111  N         26.7790    6.0770   16.6240 N.am   90  GLY90      -0.1939
    112  CA        27.6100    4.9670   16.2080 C.3    90  GLY90       0.2014
    113  C         27.9760    4.0540   17.3580 C.2    90  GLY90       0.2638
    114  O         27.6150    4.2650   18.5200 O.2    90  GLY90      -0.2714
    115  N         28.7190    3.0060   17.0130 N.am   91  GLU91      -0.1977
    116  CA        29.1490    2.0320   18.0060 C.3    91  GLU91       0.1602
    117  C         30.0640    2.6800   19.0360 C.2    91  GLU91       0.2287
    118  O         30.8640    3.5620   18.7150 O.2    91  GLU91      -0.2864
    119  CB        29.8870    0.8740   17.3330 C.3    91  GLU91       0.0415
    120  CG        29.0010   -0.1980   16.7350 C.3    91  GLU91       0.1163
    121  CD        29.7360   -1.0280   15.6990 C.2    91  GLU91       0.3649
    122  OE1       30.9580   -0.8260   15.5360 O.co2  91  GLU91      -0.2457
    123  OE2       29.0950   -1.8820   15.0510 O.co2  91  GLU91      -0.2457
    124  N         33.7790    1.9460   17.8370 N.3    94  ASP94      -0.1239
    125  CA        34.5130    2.9800   17.1150 C.3    94  ASP94       0.1674
    126  C         34.8510    4.1580   18.0160 C.2    94  ASP94       0.2266
    127  O         35.8900    4.8020   17.8300 O.2    94  ASP94      -0.2867
    128  CB        33.7060    3.4570   15.9100 C.3    94  ASP94       0.1410
    129  CG        33.4100    2.3450   14.9320 C.2    94  ASP94       0.3668
    130  OD1       33.4700    1.1630   15.3340 O.co2  94  ASP94      -0.2456
    131  OD2       33.1180    2.6560   13.7600 O.co2  94  ASP94      -0.2456
    132  N         25.1600    1.7950   21.2610 N.3   137  LEU137     -0.1245
    133  CA        25.2760    3.0020   20.4450 C.3   137  LEU137      0.1561
    134  C         25.0710    4.2590   21.2700 C.2   137  LEU137      0.2260
    135  O         24.6230    4.2380   22.4170 O.2   137  LEU137     -0.2867
    136  CB        24.2520    3.0530   19.3080 C.3   137  LEU137      0.0270
    137  CG        24.1090    1.9850   18.2590 C.3   137  LEU137      0.0019
    138  CD1       25.4790    1.5700   17.7930 C.3   137  LEU137      0.0001
    139  CD2       23.3580    0.8710   18.9360 C.3   137  LEU137      0.0001
    140  N         21.7370   -2.8650   22.0610 N.3   147  ILE147     -0.1231
    141  CA        20.9790   -3.5930   21.0440 C.3   147  ILE147      0.1692
    142  C         21.4690   -5.0260   20.8900 C.2   147  ILE147      0.2592
    143  O         22.2220   -5.5360   21.7250 O.2   147  ILE147     -0.2718
    144  CB        21.0640   -2.9130   19.6700 C.3   147  ILE147      0.0266
    145  CG1       22.5230   -2.8400   19.2310 C.3   147  ILE147      0.0019
    146  CG2       20.4540   -1.5460   19.7140 C.3   147  ILE147      0.0020
    147  CD1       22.7170   -2.1890   17.9040 C.3   147  ILE147      0.0001
    148  N         21.0660   -5.6590   19.7840 N.am  148  ASP148     -0.1974
    149  CA        21.4980   -7.0050   19.4190 C.3   148  ASP148      0.1709
    150  C         21.2670   -7.9800   20.5680 C.2   148  ASP148      0.2293
    151  O         22.1390   -8.7730   20.9320 O.2   148  ASP148     -0.2864
    152  CB        22.9610   -7.0150   18.9740 C.3   148  ASP148      0.1436
    153  CG        23.3720   -8.2580   18.2190 C.2   148  ASP148      0.3671
    154  OD1       22.5710   -9.1330   17.9300 O.co2 148  ASP148     -0.2456
    155  OD2       24.5200   -8.3210   17.7740 O.co2 148  ASP148     -0.2456
@<TRIPOS>BOND
     1     1     2    1
     2     4     3    2
     3     2     3    1
     4     2     5    1
     5     8     6    1
     6     3     9   am
     7    23    22    2
     8    11    12    2
     9    11    10    1
    10     6     5    1
    11     9    10    1
    12    16    15    2
    13     5     7    1
    14    20    21    1
    15    15    14    1
    16    22    21    1
    17    13    14    1
    18    21    24    1
    19    14    17    1
    20    24    25    1
    21    25    26    1
    22    25    27    1
    23    35    36    2
    24    35    34    1
    25    17    19    1
    26    17    18    1
    27    34    33    1
    28    34    37    1
    29    57    58    1
    30    38    37    1
    31    38    39    1
    32    93    92    1
    33    30    29    1
    34    30    31    2
    35    29    28    1
    36    29    32    1
    37    60    59    2
    38    90    92   ar
    39    90    88   ar
    40    92    91   ar
    41    59    58    1
    42    58    61    1
    43    39    40    1
    44    40    41    1
    45    88    87   ar
    46    62    61    1
    47    62    63    1
    48   131   129   ar
    49    91    89   ar
    50   104   101    1
    51   104   105    1
    52   103   102    2
    53    87    89   ar
    54    87    86    1
    55   101   102    1
    56   101   100    1
    57   129   130   ar
    58   129   128    1
    59   123   121   ar
    60    63    64    1
    61    71    70    1
    62    65    66    1
    63   102   107   am
    64   122   121   ar
    65   121   120    1
    66    97    96    2
    67   105   106    1
    68    86    83    1
    69    68    67    2
    70   100    96   am
    71   100   106    1
    72   128   125    1
    73    96    95    1
    74   112   111    1
    75   112   113    1
    76    83    84    1
    77    83    82    1
    78    94    84   am
    79    94    95    1
    80    70    69    1
    81    70    72    1
    82    66    67    1
    83    66    69    1
    84   111   109   am
    85    67    73   am
    86    76    75    2
    87   120   119    1
    88   107   108    1
    89   110   109    2
    90   109   108    1
    91    84    85    2
    92   115   113   am
    93   115   116    1
    94    82    75   am
    95   125   124    1
    96   125   126    1
    97    95    98    1
    98    75    74    1
    99   119   116    1
   100   113   114    2
   101    49    48   ar
   102    98    99    1
   103   155   153   ar
   104   138   137    1
   105   127   126    2
   106    73    74    1
   107   147   145    1
   108   154   153   ar
   109   116   117    1
   110   153   152    1
   111    74    77    1
   112   137   139    1
   113   137   136    1
   114    48    50   ar
   115    48    47    1
   116   118   117    2
   117   152   149    1
   118   145   144    1
   119   136   133    1
   120    56    55    1
   121    47    46    1
   122   149   148    1
   123   149   150    1
   124    46    43    1
   125    77    78    1
   126   144   146    1
   127   144   141    1
   128   148   142   am
   129   133   132    1
   130   133   134    1
   131    42    43    1
   132   150   151    2
   133    44    43    1
   134    44    45    2
   135    78    79    1
   136   142   141    1
   137   142   143    2
   138    55    52    1
   139   141   140    1
   140   134   135    2
   141    54    53    2
   142    81    79   ar
   143    53    52    1
   144    79    80   ar
   145    52    51    1
