@<TRIPOS>MOLECULE
tmp/5tx3A00.pdb
 156 146 0 0 0
SMALL
GASTEIGER

@<TRIPOS>ATOM
      1  N         21.9670   -2.5180   45.1780 N.3    18  GLU18      -0.1245
      2  CA        20.7070   -3.0860   45.6980 C.3    18  GLU18       0.1567
      3  C         20.3110   -4.4630   45.1940 C.2    18  GLU18       0.2260
      4  O         20.8950   -4.9780   44.2500 O.2    18  GLU18      -0.2867
      5  CB        19.5520   -2.1170   45.4510 C.3    18  GLU18       0.0388
      6  CG        19.4640   -1.5930   44.0420 C.3    18  GLU18       0.1160
      7  CD        20.0130   -0.1840   43.9470 C.2    18  GLU18       0.3649
      8  OE1       21.1770    0.0280   44.3620 O.co2  18  GLU18      -0.2457
      9  OE2       19.2840    0.7090   43.4650 O.co2  18  GLU18      -0.2457
     10  N         17.3730   -7.0540   43.6160 N.3    20  ILE20      -0.1231
     11  CA        16.1460   -7.0920   42.8150 C.3    20  ILE20       0.1692
     12  C         15.8020   -8.5490   42.5120 C.2    20  ILE20       0.2592
     13  O         16.6460   -9.4290   42.6210 O.2    20  ILE20      -0.2718
     14  CB        16.2690   -6.3050   41.4940 C.3    20  ILE20       0.0266
     15  CG1       17.3670   -5.2430   41.5710 C.3    20  ILE20       0.0019
     16  CG2       14.9770   -5.5990   41.2010 C.3    20  ILE20       0.0020
     17  CD1       17.5480   -4.4640   40.3090 C.3    20  ILE20       0.0001
     18  N         14.5660   -8.8230   42.1450 N.am   21  GLY21      -0.1957
     19  CA        14.2480  -10.1520   41.6590 C.3    21  GLY21       0.1869
     20  C         13.7520  -11.1620   42.6730 C.2    21  GLY21       0.2309
     21  O         12.9270  -12.0110   42.3350 O.2    21  GLY21      -0.2863
     22  N         18.8670  -11.3790   42.3760 N.3    25  VAL25      -0.1245
     23  CA        19.4300  -10.5610   41.3200 C.3    25  VAL25       0.1561
     24  C         19.8570   -9.2410   41.8820 C.2    25  VAL25       0.2260
     25  O         19.0530   -8.4360   42.3520 O.2    25  VAL25      -0.2867
     26  CB        18.4170  -10.3500   40.1500 C.3    25  VAL25       0.0252
     27  CG1       18.8290   -9.1910   39.2850 C.3    25  VAL25       0.0019
     28  CG2       18.2950  -11.6090   39.3360 C.3    25  VAL25       0.0019
     29  N         22.1140   -5.6650   41.4570 N.3    27  LEU27      -0.1245
     30  CA        22.7460   -4.6570   40.6370 C.3    27  LEU27       0.1561
     31  C         24.1820   -4.4160   41.1790 C.2    27  LEU27       0.2260
     32  O         24.3500   -4.1560   42.3640 O.2    27  LEU27      -0.2867
     33  CB        21.8960   -3.3880   40.6750 C.3    27  LEU27       0.0270
     34  CG        22.4560   -2.0370   40.2250 C.3    27  LEU27       0.0019
     35  CD1       22.6980   -1.9760   38.7100 C.3    27  LEU27       0.0001
     36  CD2       21.5450   -0.8990   40.6940 C.3    27  LEU27       0.0001
     37  N         24.5320   -6.6820   36.2790 N.3    38  ALA38      -0.1245
     38  CA        23.4650   -7.2990   37.0510 C.3    38  ALA38       0.1562
     39  C         23.8190   -8.7410   37.3200 C.2    38  ALA38       0.2260
     40  O         24.0050   -9.5140   36.3860 O.2    38  ALA38      -0.2867
     41  CB        22.1480   -7.2000   36.3270 C.3    38  ALA38       0.0290
     42  N         23.1770  -12.4450   38.6820 N.3    40  LYS40      -0.1245
     43  CA        22.1760  -13.4370   39.0000 C.3    40  LYS40       0.1561
     44  C         22.8950  -14.3770   39.9260 C.2    40  LYS40       0.2260
     45  O         23.8120  -15.0980   39.5360 O.2    40  LYS40      -0.2867
     46  CB        21.6380  -14.1440   37.7450 C.3    40  LYS40       0.0271
     47  CG        20.1250  -14.3270   37.7410 C.3    40  LYS40       0.0035
     48  CD        19.5720  -14.9590   36.4510 C.3    40  LYS40       0.0206
     49  CE        18.0980  -15.3910   36.6510 C.3    40  LYS40       0.1093
     50  NZ        17.2160  -15.2420   35.4530 N.3    40  LYS40      -0.1314
     51  N         20.6380  -10.1830   25.6130 N.3    62  CYS62      -0.1235
     52  CA        21.2170   -9.7990   26.8870 C.3    62  CYS62       0.1677
     53  C         22.5800  -10.4120   27.1180 C.2    62  CYS62       0.2270
     54  O         22.6840  -11.6200   27.3470 O.2    62  CYS62      -0.2867
     55  CB        20.2820  -10.2180   28.0150 C.3    62  CYS62       0.0956
     56  SG        20.7110   -9.5130   29.6140 S.3    62  CYS62      -0.0801
     57  N         25.5440  -10.0670   34.0180 N.3    78  LEU78      -0.1231
     58  CA        24.8050   -9.8560   32.7810 C.3    78  LEU78       0.1693
     59  C         24.5550   -8.3780   32.5450 C.2    78  LEU78       0.2592
     60  O         24.6670   -7.5640   33.4550 O.2    78  LEU78      -0.2718
     61  CB        23.4720  -10.6070   32.8110 C.3    78  LEU78       0.0284
     62  CG        23.5980  -12.1250   32.8790 C.3    78  LEU78       0.0019
     63  CD1       22.4360  -12.7270   33.6170 C.3    78  LEU78       0.0001
     64  CD2       23.6740  -12.6820   31.4890 C.3    78  LEU78       0.0001
     65  N         24.2030   -8.0370   31.3150 N.am   79  GLU79      -0.1966
     66  CA        23.9450   -6.6550   30.9800 C.3    79  GLU79       0.1733
     67  C         22.7600   -6.1590   31.8110 C.2    79  GLU79       0.2616
     68  O         21.7440   -6.8430   31.9470 O.2    79  GLU79      -0.2715
     69  CB        23.6820   -6.5440   29.4890 C.3    79  GLU79       0.0429
     70  CG        23.3750   -5.1730   28.9870 C.3    79  GLU79       0.1163
     71  CD        23.2320   -5.1690   27.4890 C.2    79  GLU79       0.3649
     72  OE1       23.3400   -6.2610   26.8810 O.co2  79  GLU79      -0.2457
     73  OE2       22.9970   -4.0800   26.9290 O.co2  79  GLU79      -0.2457
     74  N         22.8840   -4.9800   32.3970 N.am   80  TYR80      -0.1960
     75  CA        21.7890   -4.5170   33.2270 C.3    80  TYR80       0.1771
     76  C         20.8870   -3.6620   32.3680 C.2    80  TYR80       0.2620
     77  O         21.3540   -2.7440   31.7080 O.2    80  TYR80      -0.2715
     78  CB        22.2910   -3.7500   34.4790 C.3    80  TYR80       0.0574
     79  CG        21.1850   -3.0020   35.1980 C.ar   80  TYR80      -0.0198
     80  CD1       20.1380   -3.6800   35.8160 C.ar   80  TYR80      -0.0009
     81  CD2       21.1670   -1.6180   35.2170 C.ar   80  TYR80      -0.0009
     82  CE1       19.1060   -2.9860   36.4390 C.ar   80  TYR80       0.0417
     83  CE2       20.1500   -0.9190   35.8380 C.ar   80  TYR80       0.0417
     84  CZ        19.1260   -1.6010   36.4460 C.ar   80  TYR80       0.1957
     85  OH        18.1220   -0.8820   37.0580 O.3    80  TYR80      -0.2866
     86  N         19.5900   -3.9690   32.4060 N.am   81  CYS81      -0.1954
     87  CA        18.5890   -3.2630   31.6040 C.3    81  CYS81       0.1828
     88  C         17.6680   -2.4540   32.5050 C.2    81  CYS81       0.2467
     89  O         16.7560   -3.0000   33.1380 O.2    81  CYS81      -0.2730
     90  CB        17.7680   -4.2400   30.7360 C.3    81  CYS81       0.0996
     91  SG        18.7260   -5.4180   29.7120 S.3    81  CYS81      -0.0797
     92  N         17.9420   -1.1460   32.5970 N.am   82  PRO82      -0.2715
     93  CA        17.2250   -0.1300   33.3870 C.3    82  PRO82       0.1536
     94  C         15.7710    0.1050   33.0080 C.2    82  PRO82       0.2599
     95  O         15.0000    0.5300   33.8680 O.2    82  PRO82      -0.2715
     96  CB        18.0210    1.1430   33.1180 C.3    82  PRO82       0.0310
     97  CG        18.7920    0.8660   31.8660 C.3    82  PRO82       0.0237
     98  CD        19.1140   -0.5810   31.9090 C.3    82  PRO82       0.0939
     99  N         15.4080   -0.1660   31.7550 N.am   83  GLY83      -0.1941
    100  CA        14.1050    0.2180   31.2250 C.3    83  GLY83       0.2014
    101  C         12.9840   -0.6670   31.7110 C.2    83  GLY83       0.2639
    102  O         11.8210   -0.2680   31.7410 O.2    83  GLY83      -0.2714
    103  N         13.3450   -1.8830   32.0900 N.am   84  GLY84      -0.1939
    104  CA        12.4050   -2.8310   32.6520 C.3    84  GLY84       0.2014
    105  C         11.7130   -3.7520   31.6690 C.2    84  GLY84       0.2638
    106  O         12.0130   -3.7660   30.4750 O.2    84  GLY84      -0.2714
    107  N         10.7730   -4.5280   32.2010 N.am   85  GLU85      -0.1977
    108  CA         9.9990   -5.4980   31.4410 C.3    85  GLU85       0.1602
    109  C          9.2200   -4.8040   30.3190 C.2    85  GLU85       0.2287
    110  O          8.6500   -3.7250   30.5110 O.2    85  GLU85      -0.2864
    111  CB         9.0410   -6.2410   32.3830 C.3    85  GLU85       0.0415
    112  CG         9.5650   -7.5340   32.9920 C.3    85  GLU85       0.1163
    113  CD         8.5720   -8.1640   33.9780 C.2    85  GLU85       0.3649
    114  OE1        7.3450   -8.1360   33.7170 O.co2  85  GLU85      -0.2457
    115  OE2        9.0210   -8.7460   34.9890 O.co2  85  GLU85      -0.2457
    116  N          5.6510   -4.4110   31.3760 N.3    88  ASP88      -0.1239
    117  CA         5.2970   -3.2100   32.1210 C.3    88  ASP88       0.1674
    118  C          5.1060   -2.0010   31.2040 C.2    88  ASP88       0.2266
    119  O          4.2440   -1.1710   31.4620 O.2    88  ASP88      -0.2867
    120  CB         6.3480   -2.9230   33.1880 C.3    88  ASP88       0.1410
    121  CG         6.4500   -4.0420   34.2250 C.2    88  ASP88       0.3668
    122  OD1        5.4060   -4.5550   34.6950 O.co2  88  ASP88      -0.2456
    123  OD2        7.5870   -4.4200   34.5680 O.co2  88  ASP88      -0.2456
    124  N          7.7910  -10.6090   29.1920 N.3   128  GLU128     -0.1231
    125  CA         8.4660  -10.5860   30.4830 C.3   128  GLU128      0.1699
    126  C          9.9450  -10.8740   30.3080 C.2   128  GLU128      0.2592
    127  O         10.7220  -10.6700   31.2310 O.2   128  GLU128     -0.2718
    128  CB         7.8740  -11.6210   31.4490 C.3   128  GLU128      0.0402
    129  CG         6.4630  -11.3420   31.9550 C.3   128  GLU128      0.1161
    130  CD         5.3340  -11.7450   30.9780 C.2   128  GLU128      0.3649
    131  OE1        5.5960  -12.4320   29.9700 O.co2 128  GLU128     -0.2457
    132  OE2        4.1600  -11.4050   31.2500 O.co2 128  GLU128     -0.2457
    133  N         10.3410  -11.3480   29.1330 N.am  129  ASN129     -0.1974
    134  CA        11.7510  -11.6250   28.8850 C.3   129  ASN129      0.1688
    135  C         12.2980  -10.7370   27.8120 C.2   129  ASN129      0.2292
    136  O         13.2260  -11.1140   27.1070 O.2   129  ASN129     -0.2864
    137  CB        11.9920  -13.0510   28.4700 C.3   129  ASN129      0.1181
    138  CG        11.4960  -14.0020   29.4710 C.2   129  ASN129      0.2629
    139  OD1       11.1840  -13.6090   30.5930 O.2   129  ASN129     -0.2716
    140  ND2       11.4090  -15.2720   29.0970 N.am  129  ASN129     -0.0877
    141  N         13.5390   -6.7900   27.8960 N.3   131  LEU131     -0.1245
    142  CA        13.7760   -5.6890   28.8120 C.3   131  LEU131      0.1561
    143  C         14.3950   -4.5600   28.0460 C.2   131  LEU131      0.2260
    144  O         15.1660   -4.7940   27.1100 O.2   131  LEU131     -0.2867
    145  CB        14.7170   -6.1070   29.9420 C.3   131  LEU131      0.0270
    146  CG        14.6020   -7.4600   30.6490 C.3   131  LEU131      0.0019
    147  CD1       15.9290   -7.7910   31.2790 C.3   131  LEU131      0.0001
    148  CD2       13.5080   -7.4490   31.6950 C.3   131  LEU131      0.0001
    149  N         16.0440  -12.0970   26.9250 N.3   141  ILE141     -0.1245
    150  CA        16.8370  -12.7410   27.9750 C.3   141  ILE141      0.1561
    151  C         16.7170  -14.2410   28.2630 C.2   141  ILE141      0.2260
    152  O         17.7340  -14.9100   28.2240 O.2   141  ILE141     -0.2867
    153  CB        16.6250  -12.0360   29.3590 C.3   141  ILE141      0.0252
    154  CG1       15.1870  -12.1350   29.8340 C.3   141  ILE141      0.0019
    155  CG2       17.0040  -10.5770   29.3130 C.3   141  ILE141      0.0019
    156  CD1       14.9430  -11.4390   31.1480 C.3   141  ILE141      0.0001
@<TRIPOS>BOND
     1    51    52    1
     2    72    71   ar
     3    52    53    1
     4    52    55    1
     5   149   150    1
     6    73    71   ar
     7   136   135    2
     8   144   143    2
     9    53    54    2
    10    71    70    1
    11   135   134    1
    12   141   142    1
    13   150   151    1
    14   150   153    1
    15    55    56    1
    16   143   142    1
    17   152   151    2
    18   137   134    1
    19   137   138    1
    20   142   145    1
    21   134   133    1
    22    70    69    1
    23   140   138   am
    24   133   126   am
    25   124   125    1
    26   155   153    1
    27   153   154    1
    28   138   139    2
    29    69    66    1
    30    91    90    1
    31   154   156    1
    32   145   146    1
    33   131   130   ar
    34   126   125    1
    35   126   127    2
    36   109   110    2
    37   109   108    1
    38   106   105    2
    39   125   128    1
    40   146   147    1
    41   146   148    1
    42    90    87    1
    43   130   132   ar
    44   130   129    1
    45    66    65    1
    46    66    67    1
    47   118   119    2
    48   118   117    1
    49   100   101    1
    50   100    99    1
    51    65    59   am
    52   116   117    1
    53   108   107    1
    54   108   111    1
    55   128   129    1
    56    64    62    1
    57    87    86    1
    58    87    88    1
    59   105   107   am
    60   105   104    1
    61    77    76    2
    62   101   102    2
    63   101   103   am
    64    99    94   am
    65    67    68    2
    66    67    74   am
    67    97    98    1
    68    97    96    1
    69    98    92    1
    70   103   104    1
    71   117   120    1
    72    76    86   am
    73    76    75    1
    74   111   112    1
    75    74    75    1
    76    88    92   am
    77    88    89    2
    78    59    58    1
    79    59    60    2
    80    92    93    1
    81    58    61    1
    82    58    57    1
    83    61    62    1
    84    62    63    1
    85   112   113    1
    86    94    93    1
    87    94    95    2
    88    96    93    1
    89   120   121    1
    90    75    78    1
    91   114   113   ar
    92   113   115   ar
    93   121   123   ar
    94   121   122   ar
    95    78    79    1
    96    79    81   ar
    97    79    80   ar
    98    81    83   ar
    99    50    49    1
   100    80    82   ar
   101    83    84   ar
   102    37    38    1
   103    41    38    1
   104    40    39    2
   105    82    84   ar
   106    84    85    1
   107    48    49    1
   108    48    47    1
   109    38    39    1
   110    47    46    1
   111    46    43    1
   112    42    43    1
   113    35    34    1
   114    43    44    1
   115    27    26    1
   116    28    26    1
   117    45    44    2
   118    26    23    1
   119    34    33    1
   120    34    36    1
   121    17    15    1
   122    30    33    1
   123    30    31    1
   124    30    29    1
   125    31    32    2
   126    16    14    1
   127    23    24    1
   128    23    22    1
   129    14    15    1
   130    14    11    1
   131    19    18    1
   132    19    20    1
   133    24    25    2
   134    18    12   am
   135    21    20    2
   136    12    13    2
   137    12    11    1
   138    11    10    1
   139     9     7   ar
   140     7     6    1
   141     7     8   ar
   142     6     5    1
   143     4     3    2
   144     1     2    1
   145     3     2    1
   146     5     2    1
