@<TRIPOS>MOLECULE
tmp/5tx5A00.pdb
 161 147 0 0 0
SMALL
GASTEIGER

@<TRIPOS>ATOM
      1  N         29.9990  -10.1150   60.4380 N.3    18  GLY18      -0.1225
      2  CA        30.7780  -11.0310   61.2620 C.3    18  GLY18       0.1811
      3  C         29.9810  -12.2470   61.6770 C.2    18  GLY18       0.2280
      4  O         28.8790  -12.0960   62.2080 O.2    18  GLY18      -0.2866
      5  N         28.9030  -14.5300   59.4980 N.3    20  VAL20      -0.1245
      6  CA        27.9690  -14.7880   58.3940 C.3    20  VAL20       0.1561
      7  C         28.3520  -16.0690   57.6280 C.2    20  VAL20       0.2260
      8  O         29.4950  -16.5130   57.7050 O.2    20  VAL20      -0.2867
      9  CB        27.8080  -13.5610   57.4470 C.3    20  VAL20       0.0252
     10  CG1       27.4190  -12.3030   58.2300 C.3    20  VAL20       0.0019
     11  CG2       29.0640  -13.3270   56.6030 C.3    20  VAL20       0.0019
     12  N         23.7510  -14.3830   51.4180 N.3    32  ILE32      -0.1245
     13  CA        24.4190  -14.3430   52.7230 C.3    32  ILE32       0.1561
     14  C         23.3950  -14.6820   53.8210 C.2    32  ILE32       0.2260
     15  O         22.2890  -14.1350   53.8380 O.2    32  ILE32      -0.2867
     16  CB        25.1260  -12.9710   52.9460 C.3    32  ILE32       0.0252
     17  CG1       26.3620  -12.7990   52.0030 C.3    32  ILE32       0.0019
     18  CG2       25.4740  -12.7070   54.4350 C.3    32  ILE32       0.0019
     19  CD1       27.6550  -13.6040   52.3840 C.3    32  ILE32       0.0001
     20  N         22.8780  -15.2540   58.1670 N.3    34  LYS34      -0.1245
     21  CA        23.4060  -14.9930   59.5040 C.3    34  LYS34       0.1561
     22  C         22.4340  -15.5030   60.5480 C.2    34  LYS34       0.2260
     23  O         21.2700  -15.0980   60.5480 O.2    34  LYS34      -0.2867
     24  CB        23.7240  -13.5090   59.7330 C.3    34  LYS34       0.0271
     25  CG        24.6930  -13.2850   60.8900 C.3    34  LYS34       0.0035
     26  CD        24.2050  -12.2070   61.8230 C.3    34  LYS34       0.0206
     27  CE        24.9630  -12.2050   63.1200 C.3    34  LYS34       0.1093
     28  NZ        26.3330  -11.6710   62.9640 N.3    34  LYS34      -0.1314
     29  N         10.4570   -5.8040   55.1450 N.3    56  MET56      -0.1245
     30  CA        11.8220   -5.5510   54.6780 C.3    56  MET56       0.1570
     31  C         12.0310   -6.0350   53.2600 C.2    56  MET56       0.2261
     32  O         12.6290   -5.3090   52.4650 O.2    56  MET56      -0.2867
     33  CB        12.8510   -6.1790   55.6230 C.3    56  MET56       0.0387
     34  CG        12.8120   -5.5910   57.0130 C.3    56  MET56       0.0595
     35  SD        13.4020   -3.8920   57.0690 S.3    56  MET56      -0.1393
     36  CE        12.8600   -3.4190   58.6810 C.3    56  MET56       0.0692
     37  N         11.0000   -3.6410   50.4470 N.3    59  LEU59      -0.1245
     38  CA        11.8240   -2.4360   50.2390 C.3    59  LEU59       0.1561
     39  C         12.7740   -2.8490   49.0940 C.2    59  LEU59       0.2260
     40  O         13.8330   -3.4520   49.3230 O.2    59  LEU59      -0.2867
     41  CB        12.6090   -2.0120   51.5180 C.3    59  LEU59       0.0270
     42  CG        11.7980   -1.5990   52.7690 C.3    59  LEU59       0.0019
     43  CD1       12.6100   -1.7840   54.0220 C.3    59  LEU59       0.0001
     44  CD2       11.3260   -0.1620   52.6840 C.3    59  LEU59       0.0001
     45  N         19.3880   -0.3750   47.7190 N.3    64  VAL64      -0.1231
     46  CA        18.9910   -0.8200   49.0430 C.3    64  VAL64       0.1692
     47  C         19.0660   -2.3410   49.0240 C.2    64  VAL64       0.2591
     48  O         18.5950   -2.9690   48.0620 O.2    64  VAL64      -0.2718
     49  CB        17.5760   -0.2680   49.4190 C.3    64  VAL64       0.0266
     50  CG1       17.1010   -0.7940   50.7750 C.3    64  VAL64       0.0020
     51  CG2       17.5510    1.2690   49.4140 C.3    64  VAL64       0.0020
     52  N         19.6920   -2.9260   50.0700 N.am   65  VAL65      -0.1980
     53  CA        19.8290   -4.3690   50.2880 C.3    65  VAL65       0.1595
     54  C         18.4460   -5.0300   50.3950 C.2    65  VAL65       0.2287
     55  O         17.5550   -4.4800   51.0440 O.2    65  VAL65      -0.2864
     56  CB        20.7570   -4.6620   51.5040 C.3    65  VAL65       0.0276
     57  CG1       20.4480   -6.0040   52.1800 C.3    65  VAL65       0.0022
     58  CG2       22.2210   -4.5940   51.0810 C.3    65  VAL65       0.0022
     59  N         16.2140   -8.2490   51.6380 N.3    67  LEU67      -0.1245
     60  CA        16.1810   -9.4290   52.4850 C.3    67  LEU67       0.1561
     61  C         15.4110  -10.4650   51.6850 C.2    67  LEU67       0.2260
     62  O         14.2540  -10.2400   51.3220 O.2    67  LEU67      -0.2867
     63  CB        15.5060   -9.1480   53.8240 C.3    67  LEU67       0.0270
     64  CG        15.5300  -10.3200   54.7930 C.3    67  LEU67       0.0019
     65  CD1       16.5860  -10.1140   55.8730 C.3    67  LEU67       0.0001
     66  CD2       14.1590  -10.5760   55.3560 C.3    67  LEU67       0.0001
     67  N         18.3620  -14.6830   59.2300 N.3    79  LEU79      -0.1245
     68  CA        17.9910  -13.7950   58.1160 C.3    79  LEU79       0.1561
     69  C         18.8570  -14.1070   56.8930 C.2    79  LEU79       0.2260
     70  O         20.0510  -14.4070   57.0400 O.2    79  LEU79      -0.2867
     71  CB        18.1780  -12.3150   58.4840 C.3    79  LEU79       0.0270
     72  CG        17.3870  -11.7560   59.6620 C.3    79  LEU79       0.0019
     73  CD1       18.1530  -10.6400   60.3400 C.3    79  LEU79       0.0001
     74  CD2       16.0140  -11.2610   59.2380 C.3    79  LEU79       0.0001
     75  N         20.0820  -12.4900   53.1460 N.3    81  MET81      -0.1245
     76  CA        20.1910  -11.3000   52.3160 C.3    81  MET81       0.1570
     77  C         20.9840  -11.5820   51.0530 C.2    81  MET81       0.2261
     78  O         21.5650  -12.6650   50.9240 O.2    81  MET81      -0.2867
     79  CB        20.8000  -10.1300   53.1150 C.3    81  MET81       0.0387
     80  CG        22.2470  -10.3030   53.4710 C.3    81  MET81       0.0595
     81  SD        22.8770   -8.7470   54.1220 S.3    81  MET81      -0.1393
     82  CE        24.5450   -9.1380   54.3290 C.3    81  MET81       0.0692
     83  N         14.2880    5.1030   50.8480 N.3   118  LEU118     -0.1245
     84  CA        13.9400    4.6960   52.2230 C.3   118  LEU118      0.1561
     85  C         13.1190    5.7760   52.9530 C.2   118  LEU118      0.2260
     86  O         12.1000    5.4380   53.5510 O.2   118  LEU118     -0.2867
     87  CB        15.1800    4.3400   53.0530 C.3   118  LEU118      0.0270
     88  CG        15.8720    3.0140   52.7350 C.3   118  LEU118      0.0019
     89  CD1       17.2290    2.9390   53.4280 C.3   118  LEU118      0.0001
     90  CD2       15.0040    1.8350   53.0990 C.3   118  LEU118      0.0001
     91  N         10.9600    5.1420   56.0630 N.3   123  VAL123     -0.1245
     92  CA        12.0540    4.4290   56.7540 C.3   123  VAL123      0.1561
     93  C         13.2470    5.3500   57.0910 C.2   123  VAL123      0.2260
     94  O         13.8630    5.9170   56.1910 O.2   123  VAL123     -0.2867
     95  CB        12.5110    3.1710   55.9420 C.3   123  VAL123      0.0252
     96  CG1       13.6020    2.3880   56.6580 C.3   123  VAL123      0.0019
     97  CG2       11.3400    2.2560   55.5890 C.3   123  VAL123      0.0019
     98  N         16.9650    5.3690   58.7590 N.3   125  HIS125     -0.1241
     99  CA        18.0630    4.4370   59.0210 C.3   125  HIS125      0.1621
    100  C         18.6210    4.4830   60.4550 C.2   125  HIS125      0.2264
    101  O         18.7650    3.4250   61.0750 O.2   125  HIS125     -0.2867
    102  CB        19.1950    4.6080   57.9890 C.3   125  HIS125      0.0745
    103  CG        20.0460    3.3860   57.8290 C.ar  125  HIS125      0.0817
    104  ND1       20.8300    2.9080   58.8560 N.ar  125  HIS125     -0.2268
    105  CD2       20.2090    2.5900   56.7530 C.ar  125  HIS125      0.1154
    106  CE1       21.4320    1.8340   58.3780 C.ar  125  HIS125      0.1986
    107  NE2       21.1030    1.6200   57.1110 N.ar  125  HIS125     -0.2212
    108  N         22.5800    0.0250   50.5390 N.3   143  ILE143     -0.1231
    109  CA        22.4600    0.3940   51.9500 C.3   143  ILE143      0.1692
    110  C         21.8140   -0.7650   52.6690 C.2   143  ILE143      0.2592
    111  O         20.7440   -1.2120   52.2600 O.2   143  ILE143     -0.2718
    112  CB        21.6700    1.7220   52.1150 C.3   143  ILE143      0.0266
    113  CG1       22.4690    2.9050   51.5690 C.3   143  ILE143      0.0019
    114  CG2       21.2750    1.9790   53.5780 C.3   143  ILE143      0.0020
    115  CD1       21.7480    3.6110   50.5470 C.3   143  ILE143      0.0001
    116  N         22.4640   -1.2530   53.7300 N.am  144  ALA144     -0.1966
    117  CA        22.0250   -2.3830   54.5740 C.3   144  ALA144      0.1728
    118  C         21.7400   -1.9310   56.0180 C.2   144  ALA144      0.2616
    119  O         22.0660   -0.8000   56.3690 O.2   144  ALA144     -0.2715
    120  CB        23.1010   -3.4600   54.5840 C.3   144  ALA144      0.0334
    121  N         21.1630   -2.8250   56.8590 N.am  145  ASP145     -0.1957
    122  CA        20.8710   -2.5670   58.2840 C.3   145  ASP145      0.1840
    123  C         21.4060   -3.7410   59.1080 C.2   145  ASP145      0.2621
    124  O         20.6500   -4.4910   59.7310 O.2   145  ASP145     -0.2715
    125  CB        19.3560   -2.3130   58.5190 C.3   145  ASP145      0.1450
    126  CG        19.0260   -1.7760   59.9100 C.2   145  ASP145      0.3671
    127  OD1       19.4240   -0.6280   60.2200 O.co2 145  ASP145     -0.2456
    128  OD2       18.3500   -2.4910   60.6750 O.co2 145  ASP145     -0.2456
    129  N         22.7310   -3.9190   59.0640 N.am  146  LEU146     -0.1977
    130  CA        23.4460   -5.0190   59.7100 C.3   146  LEU146      0.1596
    131  C         23.4770   -4.9540   61.2410 C.2   146  LEU146      0.2287
    132  O         23.8360   -5.9410   61.8800 O.2   146  LEU146     -0.2864
    133  CB        24.8770   -5.1390   59.1450 C.3   146  LEU146      0.0297
    134  CG        25.0640   -5.1050   57.6250 C.3   146  LEU146      0.0022
    135  CD1       26.5140   -4.9620   57.2860 C.3   146  LEU146      0.0001
    136  CD2       24.4780   -6.3410   56.9420 C.3   146  LEU146      0.0001
    137  N         20.7500   -4.1390   62.9780 N.3   148  LEU148     -0.1245
    138  CA        19.3400   -4.3940   63.2820 C.3   148  LEU148      0.1561
    139  C         18.6310   -3.1760   63.9270 C.2   148  LEU148      0.2260
    140  O         17.6370   -3.3320   64.6530 O.2   148  LEU148     -0.2867
    141  CB        19.1620   -5.6980   64.0990 C.3   148  LEU148      0.0270
    142  CG        19.9450   -6.9600   63.6090 C.3   148  LEU148      0.0019
    143  CD1       19.7850   -8.1260   64.5790 C.3   148  LEU148      0.0001
    144  CD2       19.5310   -7.4070   62.1970 C.3   148  LEU148      0.0001
    145  N         16.6960   -1.1380   62.4730 N.3   150  SER150     -0.1202
    146  CA        15.3760   -1.0210   61.8530 C.3   150  SER150      0.2020
    147  C         14.6100   -2.3480   61.9240 C.2   150  SER150      0.2618
    148  O         13.3990   -2.3700   61.6850 O.2   150  SER150     -0.2717
    149  CB        15.4920   -0.4940   60.4230 C.3   150  SER150      0.2103
    150  OG        15.1030    0.8700   60.3310 O.3   150  SER150     -0.2182
    151  N         15.3180   -3.4410   62.3120 N.am  151  PHE151     -0.1975
    152  CA        14.7590   -4.7770   62.5460 C.3   151  PHE151      0.1639
    153  C         14.5110   -4.8910   64.0620 C.2   151  PHE151      0.2290
    154  O         15.3570   -5.4300   64.7820 O.2   151  PHE151     -0.2864
    155  CB        15.7510   -5.8630   62.1050 C.3   151  PHE151      0.0560
    156  CG        15.8800   -6.0970   60.6280 C.ar  151  PHE151     -0.0200
    157  CD1       16.7130   -5.3010   59.8530 C.ar  151  PHE151     -0.0042
    158  CD2       15.2290   -7.1570   60.0220 C.ar  151  PHE151     -0.0042
    159  CE1       16.8580   -5.5330   58.4870 C.ar  151  PHE151     -0.0003
    160  CE2       15.3880   -7.4030   58.6560 C.ar  151  PHE151     -0.0003
    161  CZ        16.2000   -6.5850   57.8960 C.ar  151  PHE151     -0.0000
@<TRIPOS>BOND
     1    45    46    1
     2    48    47    2
     3    47    46    1
     4    47    52   am
     5    46    49    1
     6    39    40    2
     7    39    38    1
     8    51    49    1
     9    49    50    1
    10    52    53    1
    11    38    37    1
    12    38    41    1
    13    53    54    1
    14    53    56    1
    15    54    55    2
    16   108   109    1
    17   115   113    1
    18    83    84    1
    19    78    77    2
    20    77    76    1
    21    58    56    1
    22    62    61    2
    23    12    13    1
    24    56    57    1
    25    41    42    1
    26   113   112    1
    27    59    60    1
    28    61    60    1
    29   109   112    1
    30   109   110    1
    31    17    19    1
    32    17    16    1
    33   112   114    1
    34    84    85    1
    35    84    87    1
    36   111   110    2
    37    76    79    1
    38    76    75    1
    39    32    31    2
    40    60    63    1
    41   110   116   am
    42    44    42    1
    43    13    16    1
    44    13    14    1
    45    88    87    1
    46    88    90    1
    47    88    89    1
    48    42    43    1
    49    16    18    1
    50    85    86    2
    51    79    80    1
    52    31    30    1
    53    80    81    1
    54   116   117    1
    55    14    15    2
    56    63    64    1
    57    81    82    1
    58   117   120    1
    59   117   118    1
    60    30    29    1
    61    30    33    1
    62    64    66    1
    63    64    65    1
    64    97    95    1
    65    33    34    1
    66    95    96    1
    67    95    92    1
    68   118   119    2
    69   118   121   am
    70    91    92    1
    71    94    93    2
    72    11     9    1
    73   105   107   ar
    74   105   103   ar
    75    92    93    1
    76   121   122    1
    77    69    70    2
    78    69    68    1
    79   136   134    1
    80    34    35    1
    81    35    36    1
    82   107   106   ar
    83   135   134    1
    84     9    10    1
    85     9     6    1
    86   134   133    1
    87     7     8    2
    88     7     6    1
    89   103   102    1
    90   103   104   ar
    91   161   159   ar
    92   161   160   ar
    93   102    99    1
    94    68    71    1
    95    68    67    1
    96    20    21    1
    97   122   125    1
    98   122   123    1
    99   106   104   ar
   100     6     5    1
   101    71    72    1
   102   159   157   ar
   103   125   126    1
   104   160   158   ar
   105    98    99    1
   106    99   100    1
   107   129   123   am
   108   129   130    1
   109   123   124    2
   110   133   130    1
   111    74    72    1
   112    21    24    1
   113    21    22    1
   114    72    73    1
   115   130   131    1
   116    24    25    1
   117   157   156   ar
   118   126   127   ar
   119   126   128   ar
   120   158   156   ar
   121   150   149    1
   122   149   146    1
   123     1     2    1
   124   100   101    2
   125    23    22    2
   126   156   155    1
   127    25    26    1
   128   131   132    2
   129     2     3    1
   130     3     4    2
   131   148   147    2
   132    26    27    1
   133   146   147    1
   134   146   145    1
   135   147   151   am
   136   155   152    1
   137   144   142    1
   138   151   152    1
   139   152   153    1
   140    28    27    1
   141   137   138    1
   142   138   139    1
   143   138   141    1
   144   142   141    1
   145   142   143    1
   146   139   140    2
   147   153   154    2
