@<TRIPOS>MOLECULE
tmp/5txgA00.pdb
 109 104 0 0 0
SMALL
GASTEIGER

@<TRIPOS>ATOM
      1  N        -25.4040  -10.3810  -21.9770 N.3    20  HIS20      -0.1227
      2  CA       -24.3330  -11.3380  -22.2990 C.3    20  HIS20       0.1737
      3  C        -23.0700  -10.6070  -22.7970 C.2    20  HIS20       0.2438
      4  O        -23.1510   -9.4480  -23.2220 O.2    20  HIS20      -0.2733
      5  CB       -24.8020  -12.4020  -23.3170 C.3    20  HIS20       0.0758
      6  CG       -25.1370  -11.8580  -24.6770 C.ar   20  HIS20       0.0818
      7  ND1      -24.1740  -11.5550  -25.6150 N.ar   20  HIS20      -0.2268
      8  CD2      -26.3310  -11.5940  -25.2660 C.ar   20  HIS20       0.1154
      9  CE1      -24.7580  -11.1050  -26.7150 C.ar   20  HIS20       0.1986
     10  NE2      -26.0660  -11.1210  -26.5300 N.ar   20  HIS20      -0.2212
     11  N        -21.8960  -11.2640  -22.7170 N.am   21  PRO21      -0.2718
     12  CA       -20.6820  -10.6060  -23.2070 C.3    21  PRO21       0.1535
     13  C        -20.8150  -10.1790  -24.6740 C.2    21  PRO21       0.2599
     14  O        -21.3460  -10.9390  -25.5000 O.2    21  PRO21      -0.2715
     15  CB       -19.6110  -11.6850  -23.0430 C.3    21  PRO21       0.0310
     16  CG       -20.1310  -12.5680  -21.9510 C.3    21  PRO21       0.0237
     17  CD       -21.6080  -12.6120  -22.1930 C.3    21  PRO21       0.0939
     18  N        -20.3580   -8.9630  -24.9760 N.am   22  GLY22      -0.1941
     19  CA       -20.4410   -8.3920  -26.3320 C.3    22  GLY22       0.2014
     20  C        -21.7750   -7.7300  -26.6660 C.2    22  GLY22       0.2639
     21  O        -21.9550   -7.2300  -27.7750 O.2    22  GLY22      -0.2714
     22  N        -22.7020   -7.6970  -25.7060 N.am   23  ALA23      -0.1963
     23  CA       -24.0460   -7.1220  -25.9260 C.3    23  ALA23       0.1728
     24  C        -24.0980   -5.5910  -26.0740 C.2    23  ALA23       0.2617
     25  O        -25.1000   -5.0600  -26.5700 O.2    23  ALA23      -0.2715
     26  CB       -24.9910   -7.5570  -24.8120 C.3    23  ALA23       0.0334
     27  N        -23.0380   -4.8930  -25.6580 N.am   24  GLY24      -0.1940
     28  CA       -23.0000   -3.4190  -25.7250 C.3    24  GLY24       0.2014
     29  C        -23.4610   -2.7930  -24.4240 C.2    24  GLY24       0.2639
     30  O        -24.0710   -1.7390  -24.4090 O.2    24  GLY24      -0.2714
     31  N        -23.1400   -3.4710  -23.3290 N.am   25  LYS25      -0.1963
     32  CA       -23.4850   -3.0580  -21.9760 C.3    25  LYS25       0.1728
     33  C        -22.9780   -1.6450  -21.6270 C.2    25  LYS25       0.2617
     34  O        -23.6760   -0.8790  -20.9560 O.2    25  LYS25      -0.2715
     35  CB       -22.9330   -4.1250  -21.0220 C.3    25  LYS25       0.0311
     36  CG       -23.0500   -3.8750  -19.5420 C.3    25  LYS25       0.0038
     37  CD       -22.9560   -5.1820  -18.7450 C.3    25  LYS25       0.0206
     38  CE       -21.7900   -6.0880  -19.1320 C.3    25  LYS25       0.1093
     39  NZ       -20.4650   -5.4190  -19.0280 N.3    25  LYS25      -0.1314
     40  N        -21.7980   -1.2900  -22.1370 N.am   26  THR26      -0.1937
     41  CA       -21.1770    0.0170  -21.8850 C.3    26  THR26       0.2028
     42  C        -21.4970    1.0600  -22.9560 C.2    26  THR26       0.2642
     43  O        -21.8380    2.2030  -22.6470 O.2    26  THR26      -0.2714
     44  CB       -19.6450   -0.1270  -21.8090 C.3    26  THR26       0.1808
     45  OG1      -19.3060   -1.0020  -20.7240 O.3    26  THR26      -0.2208
     46  CG2      -18.9600    1.2390  -21.6070 C.3    26  THR26       0.0379
     47  N        -21.3660    0.6580  -24.2110 N.am   27  ARG27      -0.1977
     48  CA       -21.5610    1.5620  -25.3490 C.3    27  ARG27       0.1597
     49  C        -23.0210    1.8610  -25.7160 C.2    27  ARG27       0.2287
     50  O        -23.3210    2.9430  -26.2350 O.2    27  ARG27      -0.2864
     51  CB       -20.8690    0.9570  -26.5810 C.3    27  ARG27       0.0334
     52  CG       -19.3620    0.7610  -26.4310 C.3    27  ARG27       0.0492
     53  CD       -18.7560   -0.1080  -27.5330 C.3    27  ARG27       0.2205
     54  NE       -19.0440   -1.5500  -27.3920 N.pl3  27  ARG27      -0.0865
     55  CZ       -20.0670   -2.2120  -27.9530 C.cat  27  ARG27       0.5346
     56  NH1      -20.1980   -3.5240  -27.7420 N.pl3  27  ARG27       0.1354
     57  NH2      -20.9640   -1.5930  -28.7260 N.pl3  27  ARG27       0.1354
     58  N        -13.4650    3.5220  -20.3120 N.3    56  GLU56      -0.1245
     59  CA       -14.3310    3.1430  -21.4420 C.3    56  GLU56       0.1567
     60  C        -15.6780    3.8290  -21.3140 C.2    56  GLU56       0.2260
     61  O        -16.2430    4.2920  -22.3010 O.2    56  GLU56      -0.2867
     62  CB       -14.5720    1.6380  -21.4940 C.3    56  GLU56       0.0388
     63  CG       -13.3370    0.7790  -21.6850 C.3    56  GLU56       0.1160
     64  CD       -13.6520   -0.7070  -21.6000 C.2    56  GLU56       0.3649
     65  OE1      -14.8350   -1.0850  -21.7680 O.co2  56  GLU56      -0.2457
     66  OE2      -12.7160   -1.5030  -21.3640 O.co2  56  GLU56      -0.2457
     67  N        -20.7660   -4.8040  -14.2500 N.3   101  GLU101     -0.1245
     68  CA       -20.1110   -6.0630  -13.8680 C.3   101  GLU101      0.1567
     69  C        -20.4650   -6.4310  -12.4270 C.2   101  GLU101      0.2260
     70  O        -19.6000   -6.6880  -11.5800 O.2   101  GLU101     -0.2867
     71  CB       -18.5920   -6.0030  -14.0790 C.3   101  GLU101      0.0388
     72  CG       -18.1280   -5.6350  -15.4960 C.3   101  GLU101      0.1160
     73  CD       -18.6130   -6.5720  -16.5980 C.2   101  GLU101      0.3649
     74  OE1      -19.2960   -7.5770  -16.3330 O.co2 101  GLU101     -0.2457
     75  OE2      -18.3190   -6.2770  -17.7610 O.co2 101  GLU101     -0.2457
     76  N        -12.7960   -5.6180  -18.7540 N.3   230  GLY230     -0.1225
     77  CA       -12.0510   -4.5170  -19.3750 C.3   230  GLY230      0.1811
     78  C        -10.8700   -4.9800  -20.2080 C.2   230  GLY230      0.2280
     79  O         -9.7360   -4.5030  -20.0220 O.2   230  GLY230     -0.2866
     80  N        -10.6450   -6.5020  -24.3470 N.3   232  ASN232     -0.1240
     81  CA       -11.1760   -7.0130  -25.5840 C.3   232  ASN232      0.1653
     82  C         -9.9970   -7.3820  -26.4510 C.2   232  ASN232      0.2266
     83  O         -9.0790   -6.5810  -26.6590 O.2   232  ASN232     -0.2867
     84  CB       -12.0230   -5.9560  -26.2850 C.3   232  ASN232      0.1155
     85  CG       -13.2400   -5.5490  -25.4730 C.2   232  ASN232      0.2627
     86  OD1      -13.6790   -6.2670  -24.5730 O.2   232  ASN232     -0.2716
     87  ND2      -13.8010   -4.3960  -25.7990 N.am  232  ASN232     -0.0877
     88  N        -14.4360  -13.6740  -23.7020 N.3   274  ARG274     -0.1245
     89  CA       -13.4260  -12.9680  -24.4870 C.3   274  ARG274      0.1563
     90  C        -13.5370  -13.2950  -25.9940 C.2   274  ARG274      0.2260
     91  O        -13.0290  -12.5370  -26.8250 O.2   274  ARG274     -0.2867
     92  CB       -12.0070  -13.3220  -24.0380 C.3   274  ARG274      0.0307
     93  CG       -11.6020  -12.9850  -22.5990 C.3   274  ARG274      0.0489
     94  CD       -12.0820  -11.6130  -22.1670 C.3   274  ARG274      0.2205
     95  NE       -13.4390  -11.6770  -21.6360 N.pl3 274  ARG274     -0.0865
     96  CZ       -14.2160  -10.6270  -21.3970 C.cat 274  ARG274      0.5346
     97  NH1      -13.8030   -9.3830  -21.6750 N.pl3 274  ARG274      0.1354
     98  NH2      -15.4340  -10.8240  -20.9020 N.pl3 274  ARG274      0.1354
     99  N        -17.2650  -12.9330  -30.0660 N.3   277  ARG277     -0.1245
    100  CA       -17.7120  -11.5380  -30.0610 C.3   277  ARG277      0.1563
    101  C        -17.9740  -10.9280  -31.4370 C.2   277  ARG277      0.2260
    102  O        -18.6860   -9.9340  -31.5270 O.2   277  ARG277     -0.2867
    103  CB       -16.6610  -10.6670  -29.3680 C.3   277  ARG277      0.0307
    104  CG       -16.3010  -11.1140  -27.9660 C.3   277  ARG277      0.0489
    105  CD       -15.2550  -10.1990  -27.3680 C.3   277  ARG277      0.2205
    106  NE       -15.8200   -8.9060  -27.0000 N.pl3 277  ARG277     -0.0865
    107  CZ       -16.3960   -8.6290  -25.8230 C.cat 277  ARG277      0.5346
    108  NH1      -16.5100   -9.5590  -24.8580 N.pl3 277  ARG277      0.1354
    109  NH2      -16.8780   -7.4090  -25.6110 N.pl3 277  ARG277      0.1354
@<TRIPOS>BOND
     1   102   101    2
     2   101   100    1
     3    99   100    1
     4   100   103    1
     5   103   104    1
     6    57    55    1
     7   104   105    1
     8    55    56    1
     9    55    54    2
    10    21    20    2
    11    53    54    1
    12    53    52    1
    13   105   106    1
    14   106   107    2
    15    91    90    2
    16     9    10   ar
    17     9     7   ar
    18    20    19    1
    19    20    22   am
    20    83    82    2
    21    51    52    1
    22    51    48    1
    23    25    24    2
    24    10     8   ar
    25    82    81    1
    26    19    18    1
    27    84    81    1
    28    84    85    1
    29    50    49    2
    30    24    23    1
    31    24    27   am
    32    90    89    1
    33    23    22    1
    34    23    26    1
    35   107   109    1
    36   107   108    1
    37    87    85   am
    38    28    27    1
    39    28    29    1
    40    49    48    1
    41     7     6   ar
    42    81    80    1
    43    14    13    2
    44    85    86    2
    45    48    47    1
    46     8     6   ar
    47    18    13   am
    48     6     5    1
    49    13    12    1
    50    89    92    1
    51    89    88    1
    52    29    30    2
    53    29    31   am
    54    47    42   am
    55    92    93    1
    56    31    32    1
    57     5     2    1
    58     4     3    2
    59    12    15    1
    60    12    11    1
    61    15    16    1
    62    42    43    2
    63    42    41    1
    64     3    11   am
    65     3     2    1
    66    11    17    1
    67    93    94    1
    68    61    60    2
    69     2     1    1
    70    17    16    1
    71    94    95    1
    72    40    41    1
    73    40    33   am
    74    32    33    1
    75    32    35    1
    76    41    44    1
    77    44    46    1
    78    44    45    1
    79    65    64   ar
    80    63    64    1
    81    63    62    1
    82    97    96    1
    83    95    96    2
    84    33    34    2
    85    64    66   ar
    86    62    59    1
    87    59    60    1
    88    59    58    1
    89    96    98    1
    90    35    36    1
    91    78    79    2
    92    78    77    1
    93    36    37    1
    94    77    76    1
    95    38    39    1
    96    38    37    1
    97    75    73   ar
    98    73    74   ar
    99    73    72    1
   100    72    71    1
   101    67    68    1
   102    71    68    1
   103    68    69    1
   104    69    70    2
