@<TRIPOS>MOLECULE
tmp/5txrB00.pdb
 119 111 0 0 0
SMALL
GASTEIGER

@<TRIPOS>ATOM
      1  N        108.5400 -119.4070   26.3300 N.3   112  SER112     -0.1202
      2  CA       109.5440 -119.5210   25.2830 C.3   112  SER112      0.2020
      3  C        110.2890 -118.2010   25.2330 C.2   112  SER112      0.2619
      4  O        109.8180 -117.1950   25.7680 O.2   112  SER112     -0.2717
      5  CB       108.8820 -119.7750   23.9310 C.3   112  SER112      0.2103
      6  OG       108.0990 -118.6530   23.5570 O.3   112  SER112     -0.2182
      7  N        111.4490 -118.1960   24.5650 N.am  113  CYS113     -0.1955
      8  CA       112.1280 -116.9180   24.3780 C.3   113  CYS113      0.1843
      9  C        111.4070 -116.0470   23.3610 C.2   113  CYS113      0.2625
     10  O        111.4780 -114.8160   23.4440 O.2   113  CYS113     -0.2714
     11  CB       113.5970 -117.0890   23.9890 C.3   113  CYS113      0.0997
     12  SG       114.5590 -115.5610   24.2500 S.3   113  CYS113     -0.0797
     13  N        110.7040 -116.6530   22.4020 N.am  114  TYR114     -0.1974
     14  CA       109.8420 -115.8630   21.5270 C.3   114  TYR114      0.1639
     15  C        108.8690 -115.0430   22.3650 C.2   114  TYR114      0.2290
     16  O        108.7310 -113.8270   22.1820 O.2   114  TYR114     -0.2864
     17  CB       109.0780 -116.7810   20.5670 C.3   114  TYR114      0.0560
     18  CG       108.3400 -116.0430   19.4610 C.ar  114  TYR114     -0.0198
     19  CD1      107.2190 -115.2660   19.7350 C.ar  114  TYR114     -0.0009
     20  CD2      108.7630 -116.1310   18.1410 C.ar  114  TYR114     -0.0009
     21  CE1      106.5450 -114.5860   18.7180 C.ar  114  TYR114      0.0417
     22  CE2      108.0960 -115.4620   17.1250 C.ar  114  TYR114      0.0417
     23  CZ       106.9910 -114.6940   17.4170 C.ar  114  TYR114      0.1957
     24  OH       106.3390 -114.0310   16.3910 O.3   114  TYR114     -0.2866
     25  N        110.8180 -112.3520   24.5140 N.3   117  ASN117     -0.1240
     26  CA       111.2040 -111.1910   23.7190 C.3   117  ASN117      0.1653
     27  C        109.9940 -110.3240   23.4030 C.2   117  ASN117      0.2266
     28  O        110.0300 -109.0990   23.5690 O.2   117  ASN117     -0.2867
     29  CB       111.8790 -111.6380   22.4250 C.3   117  ASN117      0.1155
     30  CG       113.2920 -112.1310   22.6390 C.2   117  ASN117      0.2627
     31  OD1      113.8720 -111.9670   23.7170 O.2   117  ASN117     -0.2716
     32  ND2      113.8710 -112.7100   21.5920 N.am  117  ASN117     -0.0877
     33  N        116.2660 -111.3560   15.2480 N.3   140  HIS140     -0.1241
     34  CA       115.3600 -112.4850   15.0860 C.3   140  HIS140      0.1621
     35  C        113.9120 -112.0190   14.9500 C.2   140  HIS140      0.2264
     36  O        113.5280 -110.9400   15.4050 O.2   140  HIS140     -0.2867
     37  CB       115.4820 -113.3960   16.3060 C.3   140  HIS140      0.0745
     38  CG       114.7430 -114.6940   16.1950 C.ar  140  HIS140      0.0817
     39  ND1      113.6060 -114.9630   16.9270 N.ar  140  HIS140     -0.2268
     40  CD2      114.9910 -115.8060   15.4610 C.ar  140  HIS140      0.1154
     41  CE1      113.1820 -116.1840   16.6460 C.ar  140  HIS140      0.1986
     42  NE2      114.0020 -116.7150   15.7560 N.ar  140  HIS140     -0.2212
     43  N        111.3140 -112.8620   16.4900 N.3   142  SER142     -0.1217
     44  CA       110.6400 -112.5730   17.7530 C.3   142  SER142      0.1889
     45  C        110.9280 -111.1560   18.2280 C.2   142  SER142      0.2288
     46  O        110.0630 -110.5230   18.8440 O.2   142  SER142     -0.2866
     47  CB       111.0410 -113.5890   18.8250 C.3   142  SER142      0.2089
     48  OG       112.4050 -113.4700   19.1800 O.3   142  SER142     -0.2183
     49  N        121.4040 -108.9500   19.3020 N.3   183  GLU183     -0.1245
     50  CA       121.7570 -110.3050   19.6950 C.3   183  GLU183      0.1567
     51  C        123.2560 -110.3850   19.9380 C.2   183  GLU183      0.2260
     52  O        124.0340 -109.5890   19.4090 O.2   183  GLU183     -0.2867
     53  CB       121.3920 -111.3170   18.6010 C.3   183  GLU183      0.0388
     54  CG       119.9540 -111.2850   18.1310 C.3   183  GLU183      0.1160
     55  CD       119.6450 -112.4140   17.1680 C.2   183  GLU183      0.3649
     56  OE1      120.4210 -113.3950   17.1320 O.co2 183  GLU183     -0.2457
     57  OE2      118.6220 -112.3340   16.4600 O.co2 183  GLU183     -0.2457
     58  N        122.5250 -116.4250   14.4350 N.3   187  SER187     -0.1217
     59  CA       122.6950 -117.8470   14.1500 C.3   187  SER187      0.1889
     60  C        122.9140 -118.1580   12.6760 C.2   187  SER187      0.2288
     61  O        123.4970 -119.2000   12.3660 O.2   187  SER187     -0.2866
     62  CB       121.4830 -118.6400   14.6390 C.3   187  SER187      0.2089
     63  OG       120.3560 -118.4000   13.8230 O.3   187  SER187     -0.2183
     64  N        119.7210 -110.3750   23.2760 N.3   212  ASP212     -0.1239
     65  CA       119.2490 -111.7420   23.0920 C.3   212  ASP212      0.1674
     66  C        120.4790 -112.6380   22.9400 C.2   212  ASP212      0.2266
     67  O        121.2120 -112.5320   21.9520 O.2   212  ASP212     -0.2867
     68  CB       118.3380 -111.7840   21.8670 C.3   212  ASP212      0.1410
     69  CG       117.8780 -113.1860   21.4980 C.2   212  ASP212      0.3668
     70  OD1      118.6560 -114.1420   21.6440 O.co2 212  ASP212     -0.2456
     71  OD2      116.7270 -113.3220   21.0350 O.co2 212  ASP212     -0.2456
     72  N        120.2900 -116.0440   22.9640 N.3   214  VAL214     -0.1231
     73  CA       119.7430 -117.3760   22.7000 C.3   214  VAL214      0.1692
     74  C        120.7920 -118.3180   22.1170 C.2   214  VAL214      0.2592
     75  O        120.8390 -119.5050   22.4650 O.2   214  VAL214     -0.2718
     76  CB       118.4970 -117.2610   21.8040 C.3   214  VAL214      0.0266
     77  CG1      118.1970 -118.5860   21.0860 C.3   214  VAL214      0.0020
     78  CG2      117.3090 -116.8140   22.6420 C.3   214  VAL214      0.0020
     79  N        121.6240 -117.8240   21.2020 N.am  215  HIS215     -0.1976
     80  CA       122.6190 -118.6620   20.5480 C.3   215  HIS215      0.1656
     81  C        123.9830 -118.5760   21.2140 C.2   215  HIS215      0.2291
     82  O        124.9820 -119.0060   20.6260 O.2   215  HIS215     -0.2864
     83  CB       122.6900 -118.3190   19.0600 C.3   215  HIS215      0.0771
     84  CG       121.4280 -118.6460   18.3330 C.ar  215  HIS215      0.0820
     85  ND1      121.1030 -119.9270   17.9480 N.ar  215  HIS215     -0.2267
     86  CD2      120.3830 -117.8670   17.9720 C.ar  215  HIS215      0.1154
     87  CE1      119.9200 -119.9220   17.3570 C.ar  215  HIS215      0.1986
     88  NE2      119.4600 -118.6840   17.3610 N.ar  215  HIS215     -0.2212
     89  N        116.9940 -118.7080   25.8900 N.3   265  THR265     -0.1218
     90  CA       116.0650 -119.8120   25.7270 C.3   265  THR265      0.1862
     91  C        116.5260 -120.9640   26.6070 C.2   265  THR265      0.2287
     92  O        117.6980 -121.0560   26.9830 O.2   265  THR265     -0.2866
     93  CB       115.9970 -120.2730   24.2580 C.3   265  THR265      0.1770
     94  OG1      114.9870 -121.2820   24.1050 O.3   265  THR265     -0.2211
     95  CG2      117.3300 -120.8500   23.8130 C.3   265  THR265      0.0375
     96  N        115.4920 -123.9360   25.3110 N.3   267  GLY267     -0.1210
     97  CA       115.2250 -124.9190   24.2880 C.3   267  GLY267      0.1956
     98  C        116.3780 -125.2610   23.3830 C.2   267  GLY267      0.2611
     99  O        116.1870 -126.0250   22.4320 O.2   267  GLY267     -0.2717
    100  N        117.5760 -124.7290   23.6400 N.am  268  LYS268     -0.1979
    101  CA       118.7290 -125.0400   22.8170 C.3   268  LYS268      0.1596
    102  C        119.7930 -125.6730   23.6980 C.2   268  LYS268      0.2287
    103  O        119.7050 -126.8640   24.0090 O.2   268  LYS268     -0.2864
    104  CB       119.1690 -123.7980   22.0420 C.3   268  LYS268      0.0298
    105  CG       118.0800 -123.2670   21.1270 C.3   268  LYS268      0.0038
    106  CD       118.4880 -122.0060   20.3860 C.3   268  LYS268      0.0206
    107  CE       117.2790 -121.3310   19.7760 C.3   268  LYS268      0.1093
    108  NZ       116.6350 -122.1910   18.7600 N.3   268  LYS268     -0.1314
    109  N        112.6300 -126.6580   27.1310 N.3   273  VAL273     -0.1231
    110  CA       111.8470 -125.6380   26.4450 C.3   273  VAL273      0.1692
    111  C        111.6550 -124.4800   27.4080 C.2   273  VAL273      0.2592
    112  O        111.6110 -124.6620   28.6270 O.2   273  VAL273     -0.2718
    113  CB       110.4880 -126.1700   25.9210 C.3   273  VAL273      0.0266
    114  CG1      109.5060 -126.3700   27.0640 C.3   273  VAL273      0.0020
    115  CG2      109.9000 -125.2340   24.8600 C.3   273  VAL273      0.0020
    116  N        111.5690 -123.2790   26.8540 N.am  274  GLY274     -0.1957
    117  CA       111.2330 -122.1220   27.6530 C.3   274  GLY274      0.1869
    118  C        112.0860 -120.9230   27.3070 C.2   274  GLY274      0.2309
    119  O        112.9990 -121.0060   26.4800 O.2   274  GLY274     -0.2863
@<TRIPOS>BOND
     1    61    60    2
     2    60    59    1
     3    63    62    1
     4    59    58    1
     5    59    62    1
     6    35    34    1
     7    35    36    2
     8    34    33    1
     9    34    37    1
    10    40    42   ar
    11    40    38   ar
    12    42    41   ar
    13    38    37    1
    14    38    39   ar
    15    24    23    1
    16    57    55   ar
    17    43    44    1
    18    41    39   ar
    19    22    23   ar
    20    22    20   ar
    21    56    55   ar
    22    55    54    1
    23    87    88   ar
    24    87    85   ar
    25    88    86   ar
    26    23    21   ar
    27    44    45    1
    28    44    47    1
    29    85    84   ar
    30    86    84   ar
    31    54    53    1
    32    20    18   ar
    33    45    46    2
    34    84    83    1
    35    53    50    1
    36    21    19   ar
    37   108   107    1
    38    47    48    1
    39    83    80    1
    40    49    50    1
    41    52    51    2
    42    18    19   ar
    43    18    17    1
    44    50    51    1
    45   107   106    1
    46   106   105    1
    47    80    79    1
    48    80    81    1
    49    17    14    1
    50    82    81    2
    51    71    69   ar
    52    77    76    1
    53   105   104    1
    54    79    74   am
    55    69    70   ar
    56    69    68    1
    57    14    15    1
    58    14    13    1
    59    32    30   am
    60    76    78    1
    61    76    73    1
    62    68    65    1
    63    67    66    2
    64   104   101    1
    65    74    75    2
    66    74    73    1
    67    16    15    2
    68    13     9   am
    69    29    30    1
    70    29    26    1
    71    99    98    2
    72    30    31    2
    73    73    72    1
    74   101   100    1
    75   101   102    1
    76    66    65    1
    77    65    64    1
    78     9    10    2
    79     9     8    1
    80    98   100   am
    81    98    97    1
    82    27    28    2
    83    27    26    1
    84     6     5    1
    85   102   103    2
    86    26    25    1
    87    95    93    1
    88     5     2    1
    89    11    12    1
    90    11     8    1
    91    94    93    1
    92    93    90    1
    93    97    96    1
    94     8     7    1
    95     7     3   am
    96   115   113    1
    97     3     2    1
    98     3     4    2
    99     2     1    1
   100    90    89    1
   101    90    91    1
   102   113   110    1
   103   113   114    1
   104   110   109    1
   105   110   111    1
   106   119   118    2
   107    91    92    2
   108   116   111   am
   109   116   117    1
   110   118   117    1
   111   111   112    2
