@<TRIPOS>MOLECULE
tmp/5txyA00.pdb
 114 113 0 0 0
SMALL
GASTEIGER

@<TRIPOS>ATOM
      1  N          8.4960    6.6970   11.2190 N.3    88  GLN88      -0.1245
      2  CA         8.7910    5.5390   10.3450 C.3    88  GLN88       0.1566
      3  C          8.5150    4.2790   11.1120 C.2    88  GLN88       0.2260
      4  O          8.5400    4.3030   12.3680 O.2    88  GLN88      -0.2867
      5  CB        10.2490    5.5590    9.8520 C.3    88  GLN88       0.0367
      6  CG        11.2750    5.6650   10.9840 C.3    88  GLN88       0.0905
      7  CD        12.1050    4.4190   11.1970 C.2    88  GLN88       0.2608
      8  OE1       11.6450    3.3050   11.0330 O.2    88  GLN88      -0.2717
      9  NE2       13.3490    4.6430   11.5940 N.am   88  GLN88      -0.0878
     10  N          9.9040   -0.0560   10.8710 N.3    90  HIS90      -0.1241
     11  CA        10.7820   -1.0480   10.2370 C.3    90  HIS90       0.1621
     12  C         10.7160   -2.2880   11.0800 C.2    90  HIS90       0.2264
     13  O         10.1350   -2.3080   12.1670 O.2    90  HIS90      -0.2867
     14  CB        12.1960   -0.5340   10.1230 C.3    90  HIS90       0.0745
     15  CG        12.7840   -0.2660   11.4600 C.ar   90  HIS90       0.0817
     16  ND1       12.7100    0.9780   12.0790 N.ar   90  HIS90      -0.2268
     17  CD2       13.3750   -1.0890   12.3680 C.ar   90  HIS90       0.1154
     18  CE1       13.2090    0.8950   13.2990 C.ar   90  HIS90       0.1986
     19  NE2       13.6570   -0.3630   13.5040 N.ar   90  HIS90      -0.2212
     20  N         13.0610   -5.9900   12.4750 N.3    92  HIS92      -0.1241
     21  CA        14.2710   -6.7880   12.6040 C.3    92  HIS92       0.1621
     22  C         13.8170   -8.2320   12.5160 C.2    92  HIS92       0.2264
     23  O         12.7660   -8.5890   13.0370 O.2    92  HIS92      -0.2867
     24  CB        14.9840   -6.5200   13.9480 C.3    92  HIS92       0.0745
     25  CG        15.2300   -5.0780   14.2100 C.ar   92  HIS92       0.0817
     26  ND1       16.4490   -4.4900   13.9840 N.ar   92  HIS92      -0.2268
     27  CD2       14.4080   -4.0670   14.6200 C.ar   92  HIS92       0.1154
     28  CE1       16.3880   -3.1860   14.2770 C.ar   92  HIS92       0.1986
     29  NE2       15.1390   -2.9120   14.6310 N.ar   92  HIS92      -0.2212
     30  N          9.1420   -2.1600   14.8220 N.3   115  HIS115     -0.1241
     31  CA         9.3790   -0.9450   15.5900 C.3   115  HIS115      0.1621
     32  C          8.7040    0.2210   14.9020 C.2   115  HIS115      0.2264
     33  O          9.0570    0.5640   13.7610 O.2   115  HIS115     -0.2867
     34  CB        10.8770   -0.6380   15.6820 C.3   115  HIS115      0.0745
     35  CG        11.5710   -1.5890   16.5720 C.ar  115  HIS115      0.0817
     36  ND1       12.9830   -1.7670   16.5240 N.ar  115  HIS115     -0.2268
     37  CD2       11.1100   -2.4340   17.4990 C.ar  115  HIS115      0.1154
     38  CE1       13.2740   -2.6820   17.4300 C.ar  115  HIS115      0.1986
     39  NE2       12.1810   -3.1020   18.0480 N.ar  115  HIS115     -0.2212
     40  N          8.4350    4.0310   15.2010 N.3   117  VAL117     -0.1245
     41  CA         9.2570    5.0620   15.8370 C.3   117  VAL117      0.1561
     42  C          8.5500    6.3820   15.8470 C.2   117  VAL117      0.2260
     43  O          8.0860    6.8500   14.8050 O.2   117  VAL117     -0.2867
     44  CB        10.5890    5.2100   15.0650 C.3   117  VAL117      0.0252
     45  CG1       11.5030    6.2720   15.7110 C.3   117  VAL117      0.0019
     46  CG2       11.3280    3.8450   14.9700 C.3   117  VAL117      0.0019
     47  N         13.0040   15.4820   14.7060 N.3   126  PHE126     -0.1241
     48  CA        13.5250   14.2020   15.1160 C.3   126  PHE126      0.1605
     49  C         14.9570   14.3340   15.5380 C.2   126  PHE126      0.2264
     50  O         15.3730   13.7430   16.5330 O.2   126  PHE126     -0.2867
     51  CB        13.3450   13.2150   13.9530 C.3   126  PHE126      0.0534
     52  CG        13.9180   11.8670   14.2280 C.ar  126  PHE126     -0.0203
     53  CD1       13.1790   10.9040   14.8920 C.ar  126  PHE126     -0.0042
     54  CD2       15.2040   11.5420   13.8400 C.ar  126  PHE126     -0.0042
     55  CE1       13.7100    9.6550   15.1440 C.ar  126  PHE126     -0.0003
     56  CE2       15.7230   10.2470   14.1320 C.ar  126  PHE126     -0.0003
     57  CZ        14.9590    9.3320   14.7690 C.ar  126  PHE126     -0.0000
     58  N          9.2810    4.2310   21.0820 N.3   138  VAL138     -0.1245
     59  CA         9.2130    3.1880   20.0660 C.3   138  VAL138      0.1561
     60  C          8.2220    2.1390   20.5650 C.2   138  VAL138      0.2260
     61  O          8.3400    1.6160   21.6970 O.2   138  VAL138     -0.2867
     62  CB        10.6150    2.5680   19.7380 C.3   138  VAL138      0.0252
     63  CG1       10.4370    1.5050   18.6250 C.3   138  VAL138      0.0019
     64  CG2       11.5780    3.6520   19.2920 C.3   138  VAL138      0.0019
     65  N         18.1480    3.5790   21.2040 N.3   193  LEU193     -0.1231
     66  CA        18.1680    3.0060   19.8480 C.3   193  LEU193      0.1693
     67  C         18.9130    1.6890   19.8940 C.2   193  LEU193      0.2593
     68  O         19.9270    1.5250   20.6270 O.2   193  LEU193     -0.2718
     69  CB        18.9110    3.9600   18.8770 C.3   193  LEU193      0.0284
     70  CG        18.3800    5.3800   18.8120 C.3   193  LEU193      0.0019
     71  CD1       19.2250    6.1830   17.8150 C.3   193  LEU193      0.0001
     72  CD2       16.9040    5.4260   18.4690 C.3   193  LEU193      0.0001
     73  N         18.5020    0.7270   19.0920 N.am  194  THR194     -0.1939
     74  CA        19.1290   -0.5990   19.0550 C.3   194  THR194      0.2028
     75  C         20.1460   -0.7380   17.9410 C.2   194  THR194      0.2643
     76  O         20.7030   -1.8160   17.7560 O.2   194  THR194     -0.2714
     77  CB        18.0740   -1.6810   18.8770 C.3   194  THR194      0.1808
     78  OG1       17.4340   -1.4650   17.5900 O.3   194  THR194     -0.2208
     79  CG2       17.0280   -1.6750   20.0020 C.3   194  THR194      0.0379
     80  N         20.3810    0.3290   17.1890 N.am  195  THR195     -0.1937
     81  CA        21.4870    0.3740   16.2190 C.3   195  THR195      0.2013
     82  C         22.2760    1.6350   16.5000 C.2   195  THR195      0.2484
     83  O         21.7700    2.5660   17.1100 O.2   195  THR195     -0.2729
     84  CB        21.0060    0.4360   14.7480 C.3   195  THR195      0.1807
     85  OG1       20.4040    1.7140   14.5070 O.3   195  THR195     -0.2208
     86  CG2       19.9840   -0.6460   14.4390 C.3   195  THR195      0.0379
     87  N         23.5330    1.7230   16.0100 N.am  196  PRO196     -0.2715
     88  CA        24.2180    3.0190   16.0190 C.3   196  PRO196      0.1521
     89  C         23.2780    4.1050   15.5050 C.2   196  PRO196      0.2440
     90  O         22.5340    3.8550   14.5290 O.2   196  PRO196     -0.2731
     91  CB        25.4080    2.7660   15.0890 C.3   196  PRO196      0.0310
     92  CG        25.7380    1.2620   15.4140 C.3   196  PRO196      0.0237
     93  CD        24.3540    0.6590   15.4080 C.3   196  PRO196      0.0939
     94  N         23.2890    5.3090   16.1000 N.am  197  PRO197     -0.2727
     95  CA        24.2140    5.7580   17.1300 C.3   197  PRO197      0.1402
     96  C         23.8860    5.3300   18.5950 C.2   197  PRO197      0.2269
     97  O         24.5440    5.8210   19.4930 O.2   197  PRO197     -0.2865
     98  CB        24.1410    7.3000   16.9590 C.3   197  PRO197      0.0296
     99  CG        22.7560    7.5660   16.5460 C.3   197  PRO197      0.0237
    100  CD        22.4050    6.4050   15.6160 C.3   197  PRO197      0.0939
    101  N         10.6330    2.7940   25.6540 N.3   204  TRP204     -0.1241
    102  CA        10.1780    1.5950   24.9610 C.3   204  TRP204      0.1605
    103  C          8.8050    1.1860   25.4520 C.2   204  TRP204      0.2264
    104  O          8.5710    1.1240   26.6810 O.2   204  TRP204     -0.2867
    105  CB        11.1770    0.4320   25.2100 C.3   204  TRP204      0.0550
    106  CG        12.3290    0.5280   24.2200 C.ar  204  TRP204      0.0003
    107  CD1       13.5600    1.1110   24.4060 C.ar  204  TRP204      0.0946
    108  CD2       12.2650    0.1080   22.8560 C.ar  204  TRP204      0.0152
    109  NE1       14.2430    1.0690   23.2100 N.ar  204  TRP204     -0.2442
    110  CE2       13.5050    0.4330   22.2680 C.ar  204  TRP204      0.0810
    111  CE3       11.2860   -0.5550   22.1080 C.ar  204  TRP204      0.0012
    112  CZ2       13.7590    0.1660   20.9100 C.ar  204  TRP204      0.0191
    113  CZ3       11.5520   -0.8330   20.7910 C.ar  204  TRP204      0.0001
    114  CH2       12.7850   -0.5070   20.2110 C.ar  204  TRP204      0.0015
@<TRIPOS>BOND
     1     5     2    1
     2     5     6    1
     3    14    11    1
     4    14    15    1
     5    11    10    1
     6    11    12    1
     7     2     3    1
     8     2     1    1
     9     6     7    1
    10     8     7    2
    11    12    13    2
    12     3     4    2
    13     7     9   am
    14    15    16   ar
    15    15    17   ar
    16    16    18   ar
    17    17    19   ar
    18    20    21    1
    19    22    21    1
    20    22    23    2
    21    21    24    1
    22    18    19   ar
    23    33    32    2
    24    54    56   ar
    25    54    52   ar
    26    24    25    1
    27    51    52    1
    28    51    48    1
    29    26    25   ar
    30    26    28   ar
    31    56    57   ar
    32    25    27   ar
    33    52    53   ar
    34    28    29   ar
    35    86    84    1
    36    85    84    1
    37    90    89    2
    38    27    29   ar
    39    47    48    1
    40    84    81    1
    41    57    55   ar
    42    43    42    2
    43    30    31    1
    44    53    55   ar
    45    32    31    1
    46    46    44    1
    47    44    45    1
    48    44    41    1
    49    91    92    1
    50    91    88    1
    51    48    49    1
    52    40    41    1
    53    93    92    1
    54    93    87    1
    55    89    88    1
    56    89    94   am
    57    49    50    2
    58    31    34    1
    59   100    94    1
    60   100    99    1
    61    34    35    1
    62    41    42    1
    63    87    88    1
    64    87    82   am
    65    94    95    1
    66    81    82    1
    67    81    80    1
    68    82    83    2
    69    36    35   ar
    70    36    38   ar
    71    99    98    1
    72    35    37   ar
    73    98    95    1
    74    95    96    1
    75    80    75   am
    76    38    39   ar
    77    37    39   ar
    78    78    77    1
    79    76    75    2
    80    71    70    1
    81    75    74    1
    82    72    70    1
    83    96    97    2
    84    63    62    1
    85    70    69    1
    86    77    74    1
    87    77    79    1
    88    69    66    1
    89    74    73    1
    90    73    67   am
    91    64    62    1
    92    62    59    1
    93    66    67    1
    94    66    65    1
    95    67    68    2
    96    59    60    1
    97    59    58    1
    98   114   113   ar
    99   114   112   ar
   100    60    61    2
   101   113   111   ar
   102   112   110   ar
   103   111   108   ar
   104   110   108   ar
   105   110   109   ar
   106   108   106   ar
   107   109   107   ar
   108   106   107   ar
   109   106   105    1
   110   102   105    1
   111   102   103    1
   112   102   101    1
   113   103   104    2
