@<TRIPOS>MOLECULE
tmp/5ty0A00.pdb
 113 108 0 0 0
SMALL
GASTEIGER

@<TRIPOS>ATOM
      1  N         55.4620   59.3970   51.2060 N.3     5  LYS5       -0.1231
      2  CA        55.8860   59.6730   49.8450 C.3     5  LYS5        0.1693
      3  C         56.1590   58.4200   49.0170 C.2     5  LYS5        0.2591
      4  O         56.1860   58.5130   47.8040 O.2     5  LYS5       -0.2718
      5  CB        57.1240   60.5770   49.8290 C.3     5  LYS5        0.0285
      6  CG        58.3540   59.9160   50.4200 C.3     5  LYS5        0.0035
      7  CD        59.5950   60.7940   50.3850 C.3     5  LYS5        0.0206
      8  CE        60.7620   60.0080   50.9820 C.3     5  LYS5        0.1093
      9  NZ        62.0450   60.7600   50.9950 N.3     5  LYS5       -0.1314
     10  N         56.3630   57.2690   49.6640 N.am    6  LEU6       -0.1980
     11  CA        56.6630   56.0190   48.9560 C.3     6  LEU6        0.1596
     12  C         55.4210   55.1760   48.6810 C.2     6  LEU6        0.2287
     13  O         55.5340   54.0630   48.1710 O.2     6  LEU6       -0.2864
     14  CB        57.7160   55.1990   49.7130 C.3     6  LEU6        0.0297
     15  CG        59.0240   55.9580   50.0060 C.3     6  LEU6        0.0022
     16  CD1       59.9900   55.0800   50.7850 C.3     6  LEU6        0.0001
     17  CD2       59.6800   56.4850   48.7350 C.3     6  LEU6        0.0001
     18  N         51.8360   54.3600   46.7120 N.3     8  ARG8       -0.1245
     19  CA        51.1610   54.5700   45.4380 C.3     8  ARG8        0.1563
     20  C         49.8650   53.7870   45.5100 C.2     8  ARG8        0.2260
     21  O         49.8790   52.5580   45.4380 O.2     8  ARG8       -0.2867
     22  CB        52.0020   54.1000   44.2360 C.3     8  ARG8        0.0307
     23  CG        53.2810   54.8810   43.9580 C.3     8  ARG8        0.0489
     24  CD        53.0300   56.2960   43.4550 C.3     8  ARG8        0.2205
     25  NE        54.2940   56.9890   43.2380 N.pl3   8  ARG8       -0.0865
     26  CZ        55.0040   57.6120   44.1810 C.cat   8  ARG8        0.5346
     27  NH1       54.5970   57.6490   45.4490 N.pl3   8  ARG8        0.1354
     28  NH2       56.1390   58.2030   43.8580 N.pl3   8  ARG8        0.1354
     29  N         66.5760   50.8290   40.7640 N.3    50  GLN50      -0.1231
     30  CA        67.0930   52.1860   40.8190 C.3    50  GLN50       0.1698
     31  C         66.3430   53.1340   41.7740 C.2    50  GLN50       0.2592
     32  O         66.7130   54.2890   41.8870 O.2    50  GLN50      -0.2718
     33  CB        67.1360   52.7890   39.3920 C.3    50  GLN50       0.0381
     34  CG        65.8010   53.1800   38.7280 C.3    50  GLN50       0.0905
     35  CD        64.9780   52.0170   38.1580 C.2    50  GLN50       0.2608
     36  OE1       65.0310   50.8810   38.6430 O.2    50  GLN50      -0.2717
     37  NE2       64.1850   52.3150   37.1250 N.am   50  GLN50      -0.0878
     38  N         65.3000   52.6580   42.4460 N.am   51  PHE51      -0.1962
     39  CA        64.5330   53.4990   43.3420 C.3    51  PHE51       0.1771
     40  C         64.4810   52.8910   44.7260 C.2    51  PHE51       0.2619
     41  O         64.8540   51.7460   44.9240 O.2    51  PHE51      -0.2715
     42  CB        63.0620   53.6020   42.8900 C.3    51  PHE51       0.0574
     43  CG        62.8620   53.9880   41.4460 C.ar   51  PHE51      -0.0200
     44  CD1       63.3360   55.1990   40.9510 C.ar   51  PHE51      -0.0042
     45  CD2       62.1240   53.1720   40.5960 C.ar   51  PHE51      -0.0042
     46  CE1       63.1100   55.5700   39.6290 C.ar   51  PHE51      -0.0003
     47  CE2       61.8930   53.5410   39.2750 C.ar   51  PHE51      -0.0003
     48  CZ        62.3910   54.7370   38.7910 C.ar   51  PHE51      -0.0000
     49  N         63.9920   53.6850   45.6720 N.am   52  GLU52      -0.1977
     50  CA        63.6970   53.2010   47.0010 C.3    52  GLU52       0.1602
     51  C         62.4920   52.3030   46.8200 C.2    52  GLU52       0.2287
     52  O         61.7260   52.4490   45.8460 O.2    52  GLU52      -0.2864
     53  CB        63.2840   54.3230   47.9650 C.3    52  GLU52       0.0415
     54  CG        64.3940   55.1110   48.6390 C.3    52  GLU52       0.1163
     55  CD        63.8180   56.1550   49.5970 C.2    52  GLU52       0.3649
     56  OE1       63.3690   57.2240   49.1270 O.co2  52  GLU52      -0.2457
     57  OE2       63.8130   55.9160   50.8250 O.co2  52  GLU52      -0.2457
     58  N         59.0030   51.2750   46.9340 N.3    54  HIS54      -0.1241
     59  CA        57.6950   51.9010   47.0380 C.3    54  HIS54       0.1621
     60  C         56.6590   50.8450   47.3390 C.2    54  HIS54       0.2264
     61  O         56.7670   49.7130   46.9010 O.2    54  HIS54      -0.2867
     62  CB        57.3160   52.6430   45.7550 C.3    54  HIS54       0.0745
     63  CG        58.0790   53.9000   45.5500 C.ar   54  HIS54       0.0817
     64  ND1       59.4480   53.9210   45.4100 N.ar   54  HIS54      -0.2268
     65  CD2       57.6670   55.1820   45.4310 C.ar   54  HIS54       0.1154
     66  CE1       59.8510   55.1700   45.2410 C.ar   54  HIS54       0.1986
     67  NE2       58.7880   55.9510   45.2460 N.ar   54  HIS54      -0.2212
     68  N         61.6380   64.4990   34.0640 N.3   221  LYS221     -0.1231
     69  CA        60.7610   63.6870   34.9050 C.3   221  LYS221      0.1693
     70  C         60.0680   64.4970   35.9800 C.2   221  LYS221      0.2591
     71  O         58.8880   64.2770   36.2930 O.2   221  LYS221     -0.2718
     72  CB        61.5480   62.5200   35.4860 C.3   221  LYS221      0.0285
     73  CG        61.9250   61.5170   34.4130 C.3   221  LYS221      0.0035
     74  CD        62.6610   60.3160   34.9780 C.3   221  LYS221      0.0206
     75  CE        62.7850   59.2500   33.9160 C.3   221  LYS221      0.1093
     76  NZ        63.6230   58.1070   34.3680 N.3   221  LYS221     -0.1314
     77  N         60.7830   65.4650   36.5280 N.am  222  LYS222     -0.1980
     78  CA        60.1830   66.3370   37.5240 C.3   222  LYS222      0.1596
     79  C         58.9930   67.0640   36.8960 C.2   222  LYS222      0.2287
     80  O         57.9010   67.0940   37.4730 O.2   222  LYS222     -0.2864
     81  CB        61.2080   67.3400   38.0570 C.3   222  LYS222      0.0298
     82  CG        60.6550   68.2060   39.1640 C.3   222  LYS222      0.0038
     83  CD        61.7320   68.9850   39.9100 C.3   222  LYS222      0.0206
     84  CE        61.1120   69.6340   41.1500 C.3   222  LYS222      0.1093
     85  NZ        62.0970   70.2090   42.1100 N.3   222  LYS222     -0.1314
     86  N         56.1190   64.6010   35.9820 N.3   225  ARG225     -0.1245
     87  CA        55.4280   64.1750   37.2030 C.3   225  ARG225      0.1563
     88  C         54.3980   65.2260   37.6290 C.2   225  ARG225      0.2260
     89  O         53.2220   64.9040   37.8600 O.2   225  ARG225     -0.2867
     90  CB        56.4260   63.9200   38.3470 C.3   225  ARG225      0.0307
     91  CG        55.7660   63.4990   39.6420 C.3   225  ARG225      0.0489
     92  CD        56.7510   63.0680   40.7410 C.3   225  ARG225      0.2205
     93  NE        55.9630   62.6360   41.8980 N.pl3 225  ARG225     -0.0865
     94  CZ        55.3500   61.4580   41.9990 C.cat 225  ARG225      0.5346
     95  NH1       55.4340   60.5430   41.0260 N.pl3 225  ARG225      0.1354
     96  NH2       54.6360   61.1800   43.0730 N.pl3 225  ARG225      0.1354
     97  N         55.7880   54.7060   39.8460 N.3   255  ILE255     -0.1231
     98  CA        56.6730   55.3760   40.7830 C.3   255  ILE255      0.1692
     99  C         57.0030   56.8040   40.3360 C.2   255  ILE255      0.2591
    100  O         56.8510   57.7690   41.0990 O.2   255  ILE255     -0.2718
    101  CB        57.9750   54.5590   40.9690 C.3   255  ILE255      0.0266
    102  CG1       57.6550   53.2930   41.7690 C.3   255  ILE255      0.0019
    103  CG2       59.0310   55.3490   41.7090 C.3   255  ILE255      0.0020
    104  CD1       58.8500   52.4260   42.0680 C.3   255  ILE255      0.0001
    105  N         57.4380   56.9270   39.0950 N.am  256  GLU256     -0.1979
    106  CA        57.8820   58.2040   38.5790 C.3   256  GLU256      0.1602
    107  C         56.8190   59.2450   38.3090 C.2   256  GLU256      0.2287
    108  O         57.0660   60.4280   38.5490 O.2   256  GLU256     -0.2864
    109  CB        58.7450   57.9810   37.3370 C.3   256  GLU256      0.0415
    110  CG        60.0160   57.2140   37.6920 C.3   256  GLU256      0.1163
    111  CD        60.9560   57.0490   36.5280 C.2   256  GLU256      0.3649
    112  OE1       60.5780   56.3840   35.5290 O.co2 256  GLU256     -0.2457
    113  OE2       62.0970   57.5560   36.6350 O.co2 256  GLU256     -0.2457
@<TRIPOS>BOND
     1    75    76    1
     2    75    74    1
     3    68    69    1
     4    73    74    1
     5    73    72    1
     6    69    72    1
     7    69    70    1
     8   112   111   ar
     9    70    71    2
    10    70    77   am
    11    86    87    1
    12    77    78    1
    13   111   113   ar
    14   111   110    1
    15    79    80    2
    16    79    78    1
    17    37    35   am
    18    87    88    1
    19    87    90    1
    20   109   110    1
    21   109   106    1
    22    78    81    1
    23    88    89    2
    24    81    82    1
    25    35    36    2
    26    35    34    1
    27   107   108    2
    28   107   106    1
    29    90    91    1
    30   106   105    1
    31    34    33    1
    32    48    47   ar
    33    48    46   ar
    34   105    99   am
    35    82    83    1
    36    47    45   ar
    37    33    30    1
    38    46    44   ar
    39    91    92    1
    40    97    98    1
    41    83    84    1
    42    99    98    1
    43    99   100    2
    44    45    43   ar
    45    92    93    1
    46    29    30    1
    47    98   101    1
    48    30    31    1
    49    44    43   ar
    50   101   103    1
    51   101   102    1
    52    95    94    1
    53    84    85    1
    54    43    42    1
    55   102   104    1
    56    31    32    2
    57    31    38   am
    58    93    94    2
    59    94    96    1
    60    38    39    1
    61    42    39    1
    62    25    24    1
    63    25    26    2
    64    39    40    1
    65    24    23    1
    66    28    26    1
    67    23    22    1
    68    26    27    1
    69    22    19    1
    70    40    41    2
    71    40    49   am
    72    66    67   ar
    73    66    64   ar
    74    67    65   ar
    75    64    63   ar
    76    65    63   ar
    77    19    20    1
    78    19    18    1
    79    21    20    2
    80    63    62    1
    81    49    50    1
    82    62    59    1
    83    52    51    2
    84    51    50    1
    85    61    60    2
    86    58    59    1
    87    50    53    1
    88    59    60    1
    89     4     3    2
    90    53    54    1
    91    13    12    2
    92    54    55    1
    93    12    11    1
    94    17    15    1
    95    11    10    1
    96    11    14    1
    97     3    10   am
    98     3     2    1
    99    56    55   ar
   100    55    57   ar
   101    14    15    1
   102     5     2    1
   103     5     6    1
   104     2     1    1
   105    15    16    1
   106     7     6    1
   107     7     8    1
   108     8     9    1
