@<TRIPOS>MOLECULE
tmp/5ty9A00.pdb
 141 136 0 0 0
SMALL
GASTEIGER

@<TRIPOS>ATOM
      1  N         -3.4000   -2.3860    7.2710 N.3    63  ALA63      -0.1245
      2  CA        -4.7850   -2.8670    7.3040 C.3    63  ALA63       0.1562
      3  C         -5.5170   -2.1430    6.1740 C.2    63  ALA63       0.2260
      4  O         -4.8690   -1.4770    5.3300 O.2    63  ALA63      -0.2867
      5  CB        -5.4080   -2.5780    8.6780 C.3    63  ALA63       0.0290
      6  N        -12.7660    6.6200   11.0810 N.3    90  GLN90      -0.1245
      7  CA       -12.4620    5.4900   10.2250 C.3    90  GLN90       0.1566
      8  C        -12.7090    4.2160   11.0020 C.2    90  GLN90       0.2260
      9  O        -12.7200    4.2440   12.2260 O.2    90  GLN90      -0.2867
     10  CB       -10.9820    5.4510    9.7220 C.3    90  GLN90       0.0367
     11  CG        -9.9320    5.5570   10.8290 C.3    90  GLN90       0.0905
     12  CD        -9.1540    4.3050   11.1270 C.2    90  GLN90       0.2608
     13  OE1       -9.5580    3.1980   10.8670 O.2    90  GLN90      -0.2717
     14  NE2       -7.9680    4.5090   11.6210 N.am   90  GLN90      -0.0878
     15  N        -11.3290   -0.0700   10.8100 N.3    92  HIS92      -0.1241
     16  CA       -10.4810   -1.0970   10.1890 C.3    92  HIS92       0.1621
     17  C        -10.5100   -2.3650   10.9990 C.2    92  HIS92       0.2264
     18  O        -11.1080   -2.3680   12.0620 O.2    92  HIS92      -0.2867
     19  CB        -9.0230   -0.6680   10.0960 C.3    92  HIS92       0.0745
     20  CG        -8.4260   -0.3330   11.4130 C.ar   92  HIS92       0.0817
     21  ND1       -8.5850    0.9030   11.9510 N.ar   92  HIS92      -0.2268
     22  CD2       -7.7760   -1.0730   12.3600 C.ar   92  HIS92       0.1154
     23  CE1       -8.0310    0.9370   13.1540 C.ar   92  HIS92       0.1986
     24  NE2       -7.5820   -0.2570   13.4340 N.ar   92  HIS92      -0.2212
     25  N         -8.1660   -6.0480   12.3780 N.3    94  HIS94      -0.1241
     26  CA        -6.9140   -6.8650   12.5520 C.3    94  HIS94       0.1621
     27  C         -7.3630   -8.3270   12.4570 C.2    94  HIS94       0.2264
     28  O         -8.4250   -8.6450   12.9040 O.2    94  HIS94      -0.2867
     29  CB        -6.2950   -6.6090   13.8900 C.3    94  HIS94       0.0745
     30  CG        -6.0170   -5.1500   14.1310 C.ar   94  HIS94       0.0817
     31  ND1       -4.7830   -4.5870   13.9190 N.ar   94  HIS94      -0.2268
     32  CD2       -6.8250   -4.1540   14.5360 C.ar   94  HIS94       0.1154
     33  CE1       -4.8360   -3.2970   14.2120 C.ar   94  HIS94       0.1986
     34  NE2       -6.0850   -2.9930   14.5390 N.ar   94  HIS94      -0.2212
     35  N        -12.0750   -2.1880   14.7960 N.3   117  HIS117     -0.1241
     36  CA       -11.8790   -0.9750   15.5320 C.3   117  HIS117      0.1621
     37  C        -12.5540    0.1500   14.8080 C.2   117  HIS117      0.2264
     38  O        -12.1760    0.5270   13.6870 O.2   117  HIS117     -0.2867
     39  CB       -10.3490   -0.7050   15.6000 C.3   117  HIS117      0.0745
     40  CG        -9.6590   -1.6750   16.4630 C.ar  117  HIS117      0.0817
     41  ND1       -8.2830   -1.8850   16.4190 N.ar  117  HIS117     -0.2268
     42  CD2      -10.1280   -2.4750   17.4440 C.ar  117  HIS117      0.1154
     43  CE1       -7.9570   -2.7710   17.3330 C.ar  117  HIS117      0.1986
     44  NE2       -9.0430   -3.1460   17.9750 N.ar  117  HIS117     -0.2212
     45  N        -12.8900    4.0000   15.0470 N.3   119  VAL119     -0.1245
     46  CA       -12.0350    4.9940   15.6930 C.3   119  VAL119      0.1561
     47  C        -12.7080    6.3480   15.6850 C.2   119  VAL119      0.2260
     48  O        -13.1980    6.7970   14.6330 O.2   119  VAL119     -0.2867
     49  CB       -10.7170    5.0980   14.9130 C.3   119  VAL119      0.0252
     50  CG1       -9.7610    6.1350   15.5330 C.3   119  VAL119      0.0019
     51  CG2      -10.0030    3.7080   14.7410 C.3   119  VAL119      0.0019
     52  N         -8.1860   15.5890   14.6320 N.3   128  PHE128     -0.1241
     53  CA        -7.7100   14.2900   15.0430 C.3   128  PHE128      0.1605
     54  C         -6.2260   14.3820   15.4640 C.2   128  PHE128      0.2264
     55  O         -5.8040   13.7630   16.4430 O.2   128  PHE128     -0.2867
     56  CB        -7.8880   13.3180   13.8900 C.3   128  PHE128      0.0534
     57  CG        -7.2910   11.9530   14.1320 C.ar  128  PHE128     -0.0203
     58  CD1       -5.9530   11.6670   13.9060 C.ar  128  PHE128     -0.0042
     59  CD2       -8.0550   11.0040   14.6810 C.ar  128  PHE128     -0.0042
     60  CE1       -5.4230   10.4010   14.1900 C.ar  128  PHE128     -0.0003
     61  CE2       -7.5620    9.7410   14.9600 C.ar  128  PHE128     -0.0003
     62  CZ        -6.2320    9.4340   14.7410 C.ar  128  PHE128     -0.0000
     63  N         -4.9280   13.0880   19.2580 N.3   132  VAL132     -0.1245
     64  CA        -4.0050   11.9530   19.5970 C.3   132  VAL132      0.1561
     65  C         -2.8450   12.3380   20.5220 C.2   132  VAL132      0.2260
     66  O         -2.2310   11.4790   21.1170 O.2   132  VAL132     -0.2867
     67  CB        -3.3620   11.2350   18.3960 C.3   132  VAL132      0.0252
     68  CG1       -4.4470   10.6910   17.5230 C.3   132  VAL132      0.0019
     69  CG2       -2.4230   12.1170   17.5930 C.3   132  VAL132      0.0019
     70  N         -8.9350    9.9070   21.9820 N.3   138  LEU138     -0.1245
     71  CA        -9.6470    8.9350   21.1300 C.3   138  LEU138      0.1561
     72  C        -10.5180    8.0090   21.9260 C.2   138  LEU138      0.2260
     73  O        -10.2500    7.7590   23.0700 O.2   138  LEU138     -0.2867
     74  CB        -8.7220    8.1020   20.2860 C.3   138  LEU138      0.0270
     75  CG        -7.7840    8.7440   19.3050 C.3   138  LEU138      0.0019
     76  CD1       -7.1330    7.7090   18.4280 C.3   138  LEU138      0.0001
     77  CD2       -8.2860    9.8670   18.5110 C.3   138  LEU138      0.0001
     78  N        -12.0000    4.1870   20.9970 N.3   140  VAL140     -0.1245
     79  CA       -12.0110    3.1150   20.0240 C.3   140  VAL140      0.1561
     80  C        -13.0320    2.0910   20.4810 C.2   140  VAL140      0.2260
     81  O        -12.9220    1.5860   21.6060 O.2   140  VAL140     -0.2867
     82  CB       -10.6610    2.5030   19.6770 C.3   140  VAL140      0.0252
     83  CG1      -10.8410    1.4830   18.5460 C.3   140  VAL140      0.0019
     84  CG2       -9.7380    3.5940   19.2230 C.3   140  VAL140      0.0019
     85  N         -2.9480    3.4810   21.1200 N.3   195  LEU195     -0.1231
     86  CA        -2.9330    2.9920   19.7440 C.3   195  LEU195      0.1693
     87  C         -2.1290    1.6300   19.8190 C.2   195  LEU195      0.2593
     88  O         -1.1600    1.4920   20.5860 O.2   195  LEU195     -0.2718
     89  CB        -2.1880    3.9210   18.7790 C.3   195  LEU195      0.0284
     90  CG        -2.6420    5.3470   18.7900 C.3   195  LEU195      0.0019
     91  CD1       -1.7840    6.1260   17.7770 C.3   195  LEU195      0.0001
     92  CD2       -4.1250    5.4530   18.4740 C.3   195  LEU195      0.0001
     93  N         -2.5520    0.6630   19.0070 N.am  196  THR196     -0.1939
     94  CA        -1.9400   -0.6860   18.9550 C.3   196  THR196      0.2028
     95  C         -0.9510   -0.8250   17.8370 C.2   196  THR196      0.2643
     96  O         -0.4210   -1.8980   17.6720 O.2   196  THR196     -0.2714
     97  CB        -3.0110   -1.7650   18.7770 C.3   196  THR196      0.1808
     98  OG1       -3.6210   -1.5120   17.5020 O.3   196  THR196     -0.2208
     99  CG2       -3.9690   -1.7360   19.9510 C.3   196  THR196      0.0379
    100  N         -0.6160    0.2570   17.1470 N.am  197  THR197     -0.1937
    101  CA         0.5120    0.2860   16.1700 C.3   197  THR197      0.2013
    102  C          1.2600    1.5590   16.4580 C.2   197  THR197      0.2484
    103  O          0.7570    2.5000   17.0670 O.2   197  THR197     -0.2729
    104  CB         0.0040    0.3560   14.6970 C.3   197  THR197      0.1807
    105  OG1       -0.5830    1.6640   14.3910 O.3   197  THR197     -0.2208
    106  CG2       -1.0160   -0.7670   14.4050 C.3   197  THR197      0.0379
    107  N          2.4930    1.6650   15.9660 N.am  198  PRO198     -0.2715
    108  CA         3.1460    2.9380   15.9780 C.3   198  PRO198      0.1521
    109  C          2.2290    4.0410   15.4530 C.2   198  PRO198      0.2440
    110  O          1.5160    3.8020   14.4480 O.2   198  PRO198     -0.2731
    111  CB         4.3630    2.7180   15.0830 C.3   198  PRO198      0.0310
    112  CG         4.7010    1.2350   15.3510 C.3   198  PRO198      0.0237
    113  CD         3.3210    0.6040   15.3670 C.3   198  PRO198      0.0939
    114  N          2.2370    5.2230   16.0680 N.am  199  PRO199     -0.2727
    115  CA         3.1910    5.6330   17.1240 C.3   199  PRO199      0.1402
    116  C          2.8770    5.2460   18.5530 C.2   199  PRO199      0.2269
    117  O          3.4690    5.7890   19.4950 O.2   199  PRO199     -0.2865
    118  CB         3.1270    7.1680   17.0220 C.3   199  PRO199      0.0296
    119  CG         1.8060    7.5030   16.4590 C.3   199  PRO199      0.0237
    120  CD         1.4150    6.3570   15.5600 C.3   199  PRO199      0.0939
    121  N         -6.0710    6.6550   24.1000 N.3   204  VAL204     -0.1245
    122  CA        -7.3270    5.9610   23.8010 C.3   204  VAL204      0.1561
    123  C         -8.1040    5.5370   25.0120 C.2   204  VAL204      0.2260
    124  O         -7.5460    4.9070   25.9250 O.2   204  VAL204     -0.2867
    125  CB        -7.0410    4.7040   22.9650 C.3   204  VAL204      0.0252
    126  CG1       -8.3470    3.9940   22.5750 C.3   204  VAL204      0.0019
    127  CG2       -6.2560    5.0750   21.6820 C.3   204  VAL204      0.0019
    128  N        -10.5510    2.7630   25.5370 N.3   206  TRP206     -0.1241
    129  CA       -10.9860    1.5430   24.8830 C.3   206  TRP206      0.1605
    130  C        -12.3560    1.1270   25.3800 C.2   206  TRP206      0.2264
    131  O        -12.5700    1.1020   26.5980 O.2   206  TRP206     -0.2867
    132  CB        -9.9940    0.3880   25.1290 C.3   206  TRP206      0.0550
    133  CG        -8.8600    0.4670   24.1430 C.ar  206  TRP206      0.0003
    134  CD1       -7.6080    1.0110   24.3270 C.ar  206  TRP206      0.0946
    135  CD2       -8.9190    0.0750   22.7770 C.ar  206  TRP206      0.0152
    136  NE1       -6.9180    0.9870   23.1880 N.ar  206  TRP206     -0.2442
    137  CE2       -7.6580    0.3670   22.2190 C.ar  206  TRP206      0.0810
    138  CE3       -9.8980   -0.5380   21.9840 C.ar  206  TRP206      0.0012
    139  CZ2       -7.3860    0.1150   20.8940 C.ar  206  TRP206      0.0191
    140  CZ3       -9.6150   -0.8160   20.7000 C.ar  206  TRP206      0.0001
    141  CH2       -8.3460   -0.5150   20.1600 C.ar  206  TRP206      0.0015
@<TRIPOS>BOND
     1     4     3    2
     2     3     2    1
     3     1     2    1
     4     2     5    1
     5    10     7    1
     6    10    11    1
     7    19    16    1
     8    19    20    1
     9    16    15    1
    10    16    17    1
    11     7     8    1
    12     7     6    1
    13    11    12    1
    14    13    12    2
    15    17    18    2
    16     8     9    2
    17    12    14   am
    18    20    21   ar
    19    20    22   ar
    20    21    23   ar
    21    22    24   ar
    22    25    26    1
    23    27    26    1
    24    27    28    2
    25    26    29    1
    26    23    24   ar
    27    38    37    2
    28    29    30    1
    29    56    57    1
    30    56    53    1
    31    58    57   ar
    32    58    60   ar
    33    31    30   ar
    34    31    33   ar
    35    30    32   ar
    36    57    59   ar
    37    60    62   ar
    38    33    34   ar
    39   105   104    1
    40   106   104    1
    41   110   109    2
    42    32    34   ar
    43    52    53    1
    44    48    47    2
    45    59    61   ar
    46   104   101    1
    47    62    61   ar
    48    51    49    1
    49    35    36    1
    50    37    36    1
    51    49    50    1
    52    49    46    1
    53    53    54    1
    54    45    46    1
    55   111   112    1
    56   111   108    1
    57   112   113    1
    58   113   107    1
    59   109   108    1
    60   109   114   am
    61    54    55    2
    62    36    39    1
    63   120   114    1
    64   120   119    1
    65    39    40    1
    66    47    46    1
    67   107   108    1
    68   107   102   am
    69   114   115    1
    70   101   102    1
    71   101   100    1
    72    41    40   ar
    73    41    43   ar
    74   102   103    2
    75   119   118    1
    76    40    42   ar
    77   118   115    1
    78   115   116    1
    79   100    95   am
    80    43    44   ar
    81    42    44   ar
    82    98    97    1
    83    68    67    1
    84    69    67    1
    85    96    95    2
    86    91    90    1
    87    95    94    1
    88    67    64    1
    89    76    75    1
    90    92    90    1
    91    77    75    1
    92    83    82    1
    93   116   117    2
    94    97    94    1
    95    97    99    1
    96    89    90    1
    97    89    86    1
    98    94    93    1
    99    93    87   am
   100    84    82    1
   101    63    64    1
   102    75    74    1
   103    64    65    1
   104    82    79    1
   105    86    87    1
   106    86    85    1
   107    87    88    2
   108    79    80    1
   109    79    78    1
   110   141   140   ar
   111   141   139   ar
   112    74    71    1
   113    80    81    2
   114    65    66    2
   115   140   138   ar
   116   139   137   ar
   117    71    72    1
   118    71    70    1
   119   127   125    1
   120    72    73    2
   121   138   135   ar
   122   137   135   ar
   123   137   136   ar
   124   126   125    1
   125   135   133   ar
   126   125   122    1
   127   136   134   ar
   128   122   121    1
   129   122   123    1
   130   133   134   ar
   131   133   132    1
   132   129   132    1
   133   129   130    1
   134   129   128    1
   135   123   124    2
   136   130   131    2
