@<TRIPOS>MOLECULE
tmp/5tyaA00.pdb
 127 125 0 0 0
SMALL
GASTEIGER

@<TRIPOS>ATOM
      1  N        -12.7010    6.6270   11.1940 N.3    90  GLN90      -0.1245
      2  CA       -12.4180    5.4770   10.3310 C.3    90  GLN90       0.1566
      3  C        -12.6740    4.1960   11.0930 C.2    90  GLN90       0.2260
      4  O        -12.6820    4.2240   12.3380 O.2    90  GLN90      -0.2867
      5  CB       -10.9680    5.4150    9.8210 C.3    90  GLN90       0.0367
      6  CG        -9.8820    5.5500   10.9600 C.3    90  GLN90       0.0905
      7  CD        -9.0640    4.3160   11.0590 C.2    90  GLN90       0.2608
      8  OE1       -9.6190    3.2210   11.1140 O.2    90  GLN90      -0.2717
      9  NE2       -7.8050    4.4670   11.2580 N.am   90  GLN90      -0.0878
     10  N        -11.2670   -0.1040   10.8890 N.3    92  HIS92      -0.1241
     11  CA       -10.3890   -1.1150   10.2960 C.3    92  HIS92       0.1621
     12  C        -10.4370   -2.3350   11.1470 C.2    92  HIS92       0.2264
     13  O        -11.0840   -2.3540   12.1760 O.2    92  HIS92      -0.2867
     14  CB        -8.9660   -0.5960   10.1260 C.3    92  HIS92       0.0745
     15  CG        -8.3660   -0.3110   11.4770 C.ar   92  HIS92       0.0817
     16  ND1       -8.5170    0.9040   12.0800 N.ar   92  HIS92      -0.2268
     17  CD2       -7.7550   -1.1030   12.3940 C.ar   92  HIS92       0.1154
     18  CE1       -7.9910    0.8480   13.3130 C.ar   92  HIS92       0.1986
     19  NE2       -7.5440   -0.3630   13.5080 N.ar   92  HIS92      -0.2212
     20  N         -8.0700   -6.0040   12.5230 N.3    94  HIS94      -0.1241
     21  CA        -6.8690   -6.7840   12.6600 C.3    94  HIS94       0.1621
     22  C         -7.2850   -8.2260   12.5800 C.2    94  HIS94       0.2264
     23  O         -8.3220   -8.5950   13.0860 O.2    94  HIS94      -0.2867
     24  CB        -6.1630   -6.5050   13.9740 C.3    94  HIS94       0.0745
     25  CG        -5.9020   -5.0570   14.2650 C.ar   94  HIS94       0.0817
     26  ND1       -4.6730   -4.5100   14.0630 N.ar   94  HIS94      -0.2268
     27  CD2       -6.6950   -4.0510   14.6390 C.ar   94  HIS94       0.1154
     28  CE1       -4.6910   -3.2420   14.3670 C.ar   94  HIS94       0.1986
     29  NE2       -5.9080   -2.9230   14.6890 N.ar   94  HIS94      -0.2212
     30  N        -12.0300   -2.2120   14.8580 N.3   117  HIS117     -0.1241
     31  CA       -11.8150   -0.9850   15.5970 C.3   117  HIS117      0.1621
     32  C        -12.5120    0.1360   14.8570 C.2   117  HIS117      0.2264
     33  O        -12.1100    0.5490   13.7700 O.2   117  HIS117     -0.2867
     34  CB       -10.3400   -0.6710   15.6920 C.3   117  HIS117      0.0745
     35  CG        -9.5870   -1.6390   16.5510 C.ar  117  HIS117      0.0817
     36  ND1       -8.2220   -1.8810   16.5160 N.ar  117  HIS117     -0.2268
     37  CD2      -10.0780   -2.4780   17.4810 C.ar  117  HIS117      0.1154
     38  CE1       -7.9060   -2.8000   17.3910 C.ar  117  HIS117      0.1986
     39  NE2       -9.0090   -3.1410   18.0580 N.ar  117  HIS117     -0.2212
     40  N        -12.7110    3.9300   15.1950 N.3   119  VAL119     -0.1245
     41  CA       -11.8740    4.9680   15.8340 C.3   119  VAL119      0.1561
     42  C        -12.6000    6.2750   15.8440 C.2   119  VAL119      0.2260
     43  O        -13.0950    6.7530   14.8240 O.2   119  VAL119     -0.2867
     44  CB       -10.5730    5.0590   15.0720 C.3   119  VAL119      0.0252
     45  CG1       -9.6460    6.0590   15.7510 C.3   119  VAL119      0.0019
     46  CG2       -9.8280    3.7250   14.9350 C.3   119  VAL119      0.0019
     47  N         -8.0270   15.3570   14.7550 N.3   128  PHE128     -0.1241
     48  CA        -7.4300   14.0880   15.2110 C.3   128  PHE128      0.1605
     49  C         -5.9870   14.1860   15.6520 C.2   128  PHE128      0.2264
     50  O         -5.5650   13.5440   16.6310 O.2   128  PHE128     -0.2867
     51  CB        -7.6020   13.1050   14.0480 C.3   128  PHE128      0.0534
     52  CG        -7.0610   11.7200   14.2750 C.ar  128  PHE128     -0.0203
     53  CD1       -5.7630   11.4080   13.9990 C.ar  128  PHE128     -0.0042
     54  CD2       -7.8100   10.7860   14.9080 C.ar  128  PHE128     -0.0042
     55  CE1       -5.2750   10.1410   14.2540 C.ar  128  PHE128     -0.0003
     56  CE2       -7.3370    9.5160   15.1540 C.ar  128  PHE128     -0.0003
     57  CZ        -6.0270    9.2090   14.8230 C.ar  128  PHE128     -0.0000
     58  N        -11.9310    4.1450   21.1190 N.3   140  VAL140     -0.1245
     59  CA       -11.9800    3.0800   20.1300 C.3   140  VAL140      0.1561
     60  C        -13.0040    2.0920   20.6420 C.2   140  VAL140      0.2260
     61  O        -12.8770    1.5910   21.7420 O.2   140  VAL140     -0.2867
     62  CB       -10.6230    2.4560   19.7940 C.3   140  VAL140      0.0252
     63  CG1      -10.8480    1.3580   18.6930 C.3   140  VAL140      0.0019
     64  CG2       -9.6580    3.5420   19.2750 C.3   140  VAL140      0.0019
     65  N         -3.9260    2.6670   24.7300 N.3   194  SER194     -0.1202
     66  CA        -3.0720    3.2830   23.6870 C.3   194  SER194      0.2020
     67  C         -3.5370    2.9040   22.2640 C.2   194  SER194      0.2619
     68  O         -4.2650    1.9750   22.0740 O.2   194  SER194     -0.2717
     69  CB        -1.6290    2.8730   23.8390 C.3   194  SER194      0.2103
     70  OG        -1.3670    1.5560   23.3850 O.3   194  SER194     -0.2182
     71  N         -2.9270    3.5740   21.2810 N.am  195  LEU195     -0.1965
     72  CA        -2.9320    3.0970   19.9300 C.3   195  LEU195      0.1728
     73  C         -2.2250    1.7470   19.9480 C.2   195  LEU195      0.2617
     74  O         -1.2230    1.5520   20.6280 O.2   195  LEU195     -0.2715
     75  CB        -2.2040    4.0200   18.9700 C.3   195  LEU195      0.0311
     76  CG        -2.6290    5.4790   18.9960 C.3   195  LEU195      0.0022
     77  CD1       -1.7550    6.2770   17.9870 C.3   195  LEU195      0.0001
     78  CD2       -4.0980    5.6280   18.6060 C.3   195  LEU195      0.0001
     79  N         -2.6780    0.7910   19.1320 N.am  196  THR196     -0.1937
     80  CA        -2.0770   -0.5440   19.0470 C.3   196  THR196      0.2028
     81  C         -1.0940   -0.6650   17.9290 C.2   196  THR196      0.2643
     82  O         -0.5140   -1.7600   17.7710 O.2   196  THR196     -0.2714
     83  CB        -3.1470   -1.6360   18.9050 C.3   196  THR196      0.1808
     84  OG1       -3.8610   -1.3720   17.6920 O.3   196  THR196     -0.2208
     85  CG2       -4.0610   -1.6670   20.1650 C.3   196  THR196      0.0379
     86  N         -0.8440    0.3910   17.2000 N.am  197  THR197     -0.1937
     87  CA         0.2230    0.4720   16.1610 C.3   197  THR197      0.2013
     88  C          1.0500    1.7370   16.4960 C.2   197  THR197      0.2484
     89  O          0.5580    2.7120   17.1390 O.2   197  THR197     -0.2729
     90  CB        -0.3130    0.5930   14.7480 C.3   197  THR197      0.1807
     91  OG1       -1.1370    1.7410   14.6410 O.3   197  THR197     -0.2208
     92  CG2       -1.0620   -0.6170   14.4030 C.3   197  THR197      0.0379
     93  N          2.3110    1.7730   16.0160 N.am  198  PRO198     -0.2715
     94  CA         3.0720    3.0580   16.1190 C.3   198  PRO198      0.1521
     95  C          2.1970    4.1840   15.5750 C.2   198  PRO198      0.2440
     96  O          1.4890    4.0370   14.5280 O.2   198  PRO198     -0.2731
     97  CB         4.2830    2.7440   15.1880 C.3   198  PRO198      0.0310
     98  CG         4.4660    1.2550   15.3650 C.3   198  PRO198      0.0237
     99  CD         3.0590    0.7030   15.3860 C.3   198  PRO198      0.0939
    100  N          2.2080    5.3240   16.2190 N.am  199  PRO199     -0.2727
    101  CA         3.1730    5.7230   17.2650 C.3   199  PRO199      0.1402
    102  C          2.8400    5.3070   18.7110 C.2   199  PRO199      0.2269
    103  O          3.4760    5.7680   19.6890 O.2   199  PRO199     -0.2865
    104  CB         3.1640    7.2380   17.1600 C.3   199  PRO199      0.0296
    105  CG         1.7970    7.5670   16.6250 C.3   199  PRO199      0.0237
    106  CD         1.3870    6.4700   15.7350 C.3   199  PRO199      0.0939
    107  N         -6.0560    6.6690   24.2950 N.3   204  VAL204     -0.1245
    108  CA        -7.2870    5.9600   23.9860 C.3   204  VAL204      0.1561
    109  C         -8.1000    5.5050   25.1900 C.2   204  VAL204      0.2260
    110  O         -7.5340    4.8730   26.0510 O.2   204  VAL204     -0.2867
    111  CB        -7.0510    4.7430   23.1380 C.3   204  VAL204      0.0252
    112  CG1       -8.3420    4.0310   22.6930 C.3   204  VAL204      0.0019
    113  CG2       -6.2490    5.0970   21.8510 C.3   204  VAL204      0.0019
    114  N        -10.5260    2.7690   25.6620 N.3   206  TRP206     -0.1241
    115  CA       -10.9600    1.5360   25.0140 C.3   206  TRP206      0.1605
    116  C        -12.2890    1.1220   25.5040 C.2   206  TRP206      0.2264
    117  O        -12.5570    1.0900   26.6930 O.2   206  TRP206     -0.2867
    118  CB        -9.9400    0.3680   25.2450 C.3   206  TRP206      0.0550
    119  CG        -8.8330    0.4950   24.2480 C.ar  206  TRP206      0.0003
    120  CD1       -7.5860    1.0320   24.4090 C.ar  206  TRP206      0.0946
    121  CD2       -8.8910    0.0330   22.9140 C.ar  206  TRP206      0.0152
    122  NE1       -6.9110    1.0290   23.2170 N.ar  206  TRP206     -0.2442
    123  CE2       -7.6610    0.3350   22.3050 C.ar  206  TRP206      0.0810
    124  CE3       -9.8740   -0.6210   22.1300 C.ar  206  TRP206      0.0012
    125  CZ2       -7.4260    0.0750   20.9560 C.ar  206  TRP206      0.0191
    126  CZ3       -9.6230   -0.8780   20.8680 C.ar  206  TRP206      0.0001
    127  CH2       -8.4090   -0.5990   20.2590 C.ar  206  TRP206      0.0015
@<TRIPOS>BOND
     1     5     2    1
     2     5     6    1
     3    14    11    1
     4    14    15    1
     5    11    10    1
     6    11    12    1
     7     2     3    1
     8     2     1    1
     9     6     7    1
    10     7     8    2
    11     7     9   am
    12     3     4    2
    13    12    13    2
    14    15    16   ar
    15    15    17   ar
    16    16    18   ar
    17    17    19   ar
    18    20    21    1
    19    22    21    1
    20    22    23    2
    21    21    24    1
    22    18    19   ar
    23    33    32    2
    24    24    25    1
    25    53    55   ar
    26    53    52   ar
    27    51    52    1
    28    51    48    1
    29    26    25   ar
    30    26    28   ar
    31    55    57   ar
    32    25    27   ar
    33    52    54   ar
    34    28    29   ar
    35    92    90    1
    36    96    95    2
    37    27    29   ar
    38    91    90    1
    39    90    87    1
    40    47    48    1
    41    57    56   ar
    42    43    42    2
    43    32    31    1
    44    30    31    1
    45    54    56   ar
    46    46    44    1
    47    44    45    1
    48    44    41    1
    49    97    98    1
    50    97    94    1
    51    40    41    1
    52    48    49    1
    53    98    99    1
    54    99    93    1
    55    95    94    1
    56    95   100   am
    57    31    34    1
    58    49    50    2
    59    34    35    1
    60   106   100    1
    61   106   105    1
    62    41    42    1
    63    93    94    1
    64    93    88   am
    65    87    88    1
    66    87    86    1
    67   100   101    1
    68    88    89    2
    69    36    35   ar
    70    36    38   ar
    71    35    37   ar
    72   105   104    1
    73   104   101    1
    74    86    81   am
    75   101   102    1
    76    38    39   ar
    77    37    39   ar
    78    84    83    1
    79    82    81    2
    80    81    80    1
    81    77    76    1
    82    78    76    1
    83    63    62    1
    84   102   103    2
    85    83    80    1
    86    83    85    1
    87    75    76    1
    88    75    72    1
    89    80    79    1
    90    79    73   am
    91    64    62    1
    92    62    59    1
    93    72    73    1
    94    72    71    1
    95    73    74    2
    96    59    60    1
    97    59    58    1
    98   127   126   ar
    99   127   125   ar
   100    60    61    2
   101   126   124   ar
   102   125   123   ar
   103    71    67   am
   104   113   111    1
   105    68    67    2
   106   124   121   ar
   107    67    66    1
   108   123   121   ar
   109   123   122   ar
   110   112   111    1
   111   121   119   ar
   112   111   108    1
   113   122   120   ar
   114    70    69    1
   115    66    69    1
   116    66    65    1
   117   108   107    1
   118   108   109    1
   119   119   120   ar
   120   119   118    1
   121   115   118    1
   122   115   116    1
   123   115   114    1
   124   109   110    2
   125   116   117    2
