@<TRIPOS>MOLECULE
tmp/5tyjA00.pdb
 124 121 0 0 0
SMALL
GASTEIGER

@<TRIPOS>ATOM
      1  N        -20.3590   -5.7920  -24.6700 N.3   132  GLY132     -0.1210
      2  CA       -19.6750   -4.5670  -24.2750 C.3   132  GLY132      0.1956
      3  C        -19.8660   -4.2420  -22.8010 C.2   132  GLY132      0.2611
      4  O        -19.8360   -3.0630  -22.3960 O.2   132  GLY132     -0.2717
      5  N        -20.0610   -5.2890  -21.9970 N.am  133  ASP133     -0.1973
      6  CA       -20.1170   -5.1710  -20.5360 C.3   133  ASP133      0.1709
      7  C        -21.2160   -4.1850  -20.0670 C.2   133  ASP133      0.2293
      8  O        -21.1210   -3.6080  -18.9790 O.2   133  ASP133     -0.2864
      9  CB       -18.7310   -4.7400  -20.0170 C.3   133  ASP133      0.1436
     10  CG       -18.5950   -4.8520  -18.5030 C.2   133  ASP133      0.3671
     11  OD1      -19.0290   -5.8640  -17.9380 O.co2 133  ASP133     -0.2456
     12  OD2      -18.0620   -3.9180  -17.8760 O.co2 133  ASP133     -0.2456
     13  N        -21.6440   -1.3210  -20.9920 N.3   135  ILE135     -0.1245
     14  CA       -21.1370    0.0560  -20.9370 C.3   135  ILE135      0.1561
     15  C        -20.5950    0.5610  -22.2760 C.2   135  ILE135      0.2260
     16  O        -20.4150    1.7710  -22.4420 O.2   135  ILE135     -0.2867
     17  CB       -20.0250    0.2250  -19.8400 C.3   135  ILE135      0.0252
     18  CG1      -18.7930   -0.6350  -20.1360 C.3   135  ILE135      0.0019
     19  CG2      -20.5670   -0.1210  -18.4390 C.3   135  ILE135      0.0019
     20  CD1      -17.6390   -0.3820  -19.1630 C.3   135  ILE135      0.0001
     21  N        -21.3870  -12.1340  -25.0550 N.3   214  SER214     -0.1202
     22  CA       -21.1180  -11.4030  -23.7880 C.3   214  SER214      0.2020
     23  C        -22.3200  -10.8260  -23.0840 C.2   214  SER214      0.2618
     24  O        -23.2430  -11.5450  -22.7660 O.2   214  SER214     -0.2717
     25  CB       -20.1210  -10.2530  -24.0290 C.3   214  SER214      0.2103
     26  OG       -19.0070  -10.1890  -23.1550 O.3   214  SER214     -0.2182
     27  N        -22.2720   -9.5200  -22.7900 N.am  215  ALA215     -0.1979
     28  CA       -23.4240   -8.8620  -22.1850 C.3   215  ALA215      0.1597
     29  C        -24.6500   -9.0480  -23.0890 C.2   215  ALA215      0.2287
     30  O        -25.7870   -9.0150  -22.6170 O.2   215  ALA215     -0.2864
     31  CB       -23.1510   -7.3680  -21.9500 C.3   215  ALA215      0.0319
     32  N        -21.2950  -11.9770  -13.1550 N.3   247  TRP247     -0.1241
     33  CA       -21.1030  -10.6370  -13.6580 C.3   247  TRP247      0.1605
     34  C        -22.3510  -10.0570  -14.3190 C.2   247  TRP247      0.2264
     35  O        -22.3620   -8.8940  -14.6530 O.2   247  TRP247     -0.2867
     36  CB       -19.9380  -10.6210  -14.6550 C.3   247  TRP247      0.0550
     37  CG       -20.0650  -11.6380  -15.7840 C.ar  247  TRP247      0.0003
     38  CD1      -19.5250  -12.9190  -15.8200 C.ar  247  TRP247      0.0946
     39  CD2      -20.7610  -11.4690  -17.0390 C.ar  247  TRP247      0.0152
     40  NE1      -19.8490  -13.5320  -17.0090 N.ar  247  TRP247     -0.2442
     41  CE2      -20.6060  -12.6740  -17.7700 C.ar  247  TRP247      0.0810
     42  CE3      -21.5050  -10.4260  -17.6060 C.ar  247  TRP247      0.0012
     43  CZ2      -21.1630  -12.8560  -19.0380 C.ar  247  TRP247      0.0191
     44  CZ3      -22.0610  -10.6120  -18.8710 C.ar  247  TRP247      0.0001
     45  CH2      -21.8930  -11.8280  -19.5650 C.ar  247  TRP247      0.0015
     46  N        -18.2670   -6.2390  -12.2380 N.3   304  MET304     -0.1245
     47  CA       -17.6770   -5.8620  -13.5160 C.3   304  MET304      0.1570
     48  C        -18.2170   -4.5520  -14.0770 C.2   304  MET304      0.2261
     49  O        -17.7160   -4.0420  -15.0800 O.2   304  MET304     -0.2867
     50  CB       -17.8960   -6.9860  -14.5270 C.3   304  MET304      0.0387
     51  CG       -17.2710   -8.3160  -14.0530 C.3   304  MET304      0.0595
     52  SD       -15.4820   -8.2880  -14.2400 S.3   304  MET304     -0.1393
     53  CE       -14.8600   -8.5240  -12.5950 C.3   304  MET304      0.0692
     54  N         -8.9030  -12.8530  -23.0960 N.3   350  PHE350     -0.1227
     55  CA        -9.5180  -11.5310  -23.1400 C.3   350  PHE350      0.1736
     56  C         -8.9870  -10.5920  -22.0420 C.2   350  PHE350      0.2595
     57  O         -8.9600   -9.3800  -22.2140 O.2   350  PHE350     -0.2718
     58  CB       -11.0430  -11.7000  -23.0120 C.3   350  PHE350      0.0547
     59  CG       -11.8610  -10.4510  -23.3150 C.ar  350  PHE350     -0.0202
     60  CD1      -11.9090   -9.9130  -24.5900 C.ar  350  PHE350     -0.0042
     61  CD2      -12.6490   -9.8740  -22.3300 C.ar  350  PHE350     -0.0042
     62  CE1      -12.6910   -8.8000  -24.8660 C.ar  350  PHE350     -0.0003
     63  CE2      -13.4270   -8.7530  -22.6040 C.ar  350  PHE350     -0.0003
     64  CZ       -13.4480   -8.2270  -23.8740 C.ar  350  PHE350     -0.0000
     65  N         -8.5640  -11.1530  -20.9120 N.am  351  PHE351     -0.1976
     66  CA        -8.1990  -10.3110  -19.7650 C.3   351  PHE351      0.1639
     67  C         -6.7200   -9.9180  -19.7530 C.2   351  PHE351      0.2290
     68  O         -6.2360   -9.3260  -18.7880 O.2   351  PHE351     -0.2864
     69  CB        -8.5860  -10.9980  -18.4590 C.3   351  PHE351      0.0560
     70  CG       -10.0650  -11.1600  -18.2950 C.ar  351  PHE351     -0.0200
     71  CD1      -10.8650  -10.0690  -18.0280 C.ar  351  PHE351     -0.0042
     72  CD2      -10.6600  -12.3990  -18.4480 C.ar  351  PHE351     -0.0042
     73  CE1      -12.2430  -10.2110  -17.8960 C.ar  351  PHE351     -0.0003
     74  CE2      -12.0360  -12.5510  -18.3200 C.ar  351  PHE351     -0.0003
     75  CZ       -12.8270  -11.4580  -18.0410 C.ar  351  PHE351     -0.0000
     76  N         -6.0400   -6.0750  -19.0730 N.3   354  ILE354     -0.1245
     77  CA        -6.3270   -5.8250  -17.6590 C.3   354  ILE354      0.1561
     78  C         -5.2090   -6.3800  -16.7800 C.2   354  ILE354      0.2260
     79  O         -4.7090   -5.6980  -15.8750 O.2   354  ILE354     -0.2867
     80  CB        -7.6660   -6.4450  -17.2270 C.3   354  ILE354      0.0252
     81  CG1       -8.8100   -5.4780  -17.5330 C.3   354  ILE354      0.0019
     82  CG2       -7.6590   -6.7450  -15.7380 C.3   354  ILE354      0.0019
     83  CD1       -8.9130   -4.3220  -16.5240 C.3   354  ILE354      0.0001
     84  N        -15.8620  -16.8570  -15.3630 N.3   416  TYR416     -0.1227
     85  CA       -16.7740  -15.9890  -16.0910 C.3   416  TYR416      0.1736
     86  C        -17.7050  -16.7370  -17.0430 C.2   416  TYR416      0.2595
     87  O        -18.8240  -16.2970  -17.2790 O.2   416  TYR416     -0.2718
     88  CB       -15.9920  -14.9300  -16.8610 C.3   416  TYR416      0.0548
     89  CG       -15.3380  -13.9160  -15.9430 C.ar  416  TYR416     -0.0200
     90  CD1      -16.0900  -12.9130  -15.3410 C.ar  416  TYR416     -0.0009
     91  CD2      -13.9770  -13.9670  -15.6720 C.ar  416  TYR416     -0.0009
     92  CE1      -15.5000  -11.9980  -14.4850 C.ar  416  TYR416      0.0417
     93  CE2      -13.3730  -13.0480  -14.8260 C.ar  416  TYR416      0.0417
     94  CZ       -14.1390  -12.0590  -14.2450 C.ar  416  TYR416      0.1957
     95  OH       -13.5590  -11.1430  -13.3950 O.3   416  TYR416     -0.2866
     96  N        -17.2670  -17.8670  -17.5820 N.am  417  PHE417     -0.1976
     97  CA       -18.0320  -18.4610  -18.6840 C.3   417  PHE417      0.1639
     98  C        -18.4150  -19.9280  -18.5030 C.2   417  PHE417      0.2290
     99  O        -19.5920  -20.2360  -18.4680 O.2   417  PHE417     -0.2864
    100  CB       -17.2570  -18.2690  -19.9970 C.3   417  PHE417      0.0560
    101  CG       -16.9880  -16.8320  -20.2830 C.ar  417  PHE417     -0.0200
    102  CD1      -18.0480  -15.9650  -20.5440 C.ar  417  PHE417     -0.0042
    103  CD2      -15.7130  -16.3240  -20.2020 C.ar  417  PHE417     -0.0042
    104  CE1      -17.8170  -14.6000  -20.7730 C.ar  417  PHE417     -0.0003
    105  CE2      -15.4820  -14.9650  -20.4070 C.ar  417  PHE417     -0.0003
    106  CZ       -16.5380  -14.1110  -20.6910 C.ar  417  PHE417     -0.0000
    107  N         -8.3030   -4.1390  -27.7870 N.3   456  MET456     -0.1245
    108  CA        -8.7270   -4.0940  -26.3880 C.3   456  MET456      0.1570
    109  C         -7.9870   -5.1400  -25.5620 C.2   456  MET456      0.2261
    110  O         -7.4350   -4.8270  -24.5120 O.2   456  MET456     -0.2867
    111  CB       -10.2490   -4.3090  -26.2720 C.3   456  MET456      0.0387
    112  CG       -10.7320   -5.0950  -25.0320 C.3   456  MET456      0.0595
    113  SD       -10.3530   -4.3900  -23.4130 S.3   456  MET456     -0.1393
    114  CE       -11.1420   -5.5640  -22.3210 C.3   456  MET456      0.0692
    115  N        -12.2170  -14.6360  -25.8200 N.3   467  HIS467     -0.1241
    116  CA       -13.5430  -14.0060  -25.8010 C.3   467  HIS467      0.1621
    117  C        -13.6430  -12.9730  -26.9250 C.2   467  HIS467      0.2264
    118  O        -12.7170  -12.1760  -27.1000 O.2   467  HIS467     -0.2867
    119  CB       -13.7660  -13.3500  -24.4160 C.3   467  HIS467      0.0745
    120  CG       -15.1610  -12.8830  -24.1610 C.ar  467  HIS467      0.0817
    121  ND1      -16.2330  -13.7490  -24.0620 N.ar  467  HIS467     -0.2268
    122  CD2      -15.6600  -11.6400  -23.9340 C.ar  467  HIS467      0.1154
    123  CE1      -17.3290  -13.0560  -23.7990 C.ar  467  HIS467      0.1986
    124  NE2      -17.0100  -11.7720  -23.7180 N.ar  467  HIS467     -0.2212
@<TRIPOS>BOND
     1   107   108    1
     2   118   117    2
     3   117   116    1
     4   108   111    1
     5   108   109    1
     6   111   112    1
     7   115   116    1
     8   116   119    1
     9   109   110    2
    10    21    22    1
    11   112   113    1
    12    62    60   ar
    13    62    64   ar
    14     1     2    1
    15    60    59   ar
    16   119   120    1
    17     2     3    1
    18   120   121   ar
    19   120   122   ar
    20   121   123   ar
    21    25    22    1
    22    25    26    1
    23   122   124   ar
    24    64    63   ar
    25   123   124   ar
    26    22    23    1
    27   113   114    1
    28    59    58    1
    29    59    61   ar
    30    55    54    1
    31    55    58    1
    32    55    56    1
    33    29    30    2
    34    29    28    1
    35    23    27   am
    36    23    24    2
    37     3     4    2
    38     3     5   am
    39    27    28    1
    40    63    61   ar
    41    16    15    2
    42    15    14    1
    43    57    56    2
    44    28    31    1
    45    56    65   am
    46     5     6    1
    47    13    14    1
    48    14    17    1
    49    65    66    1
    50   104   106   ar
    51   104   102   ar
    52   106   105   ar
    53   102   101   ar
    54     6     7    1
    55     6     9    1
    56   105   103   ar
    57   101   103   ar
    58   101   100    1
    59    18    17    1
    60    18    20    1
    61     7     8    2
    62     9    10    1
    63   100    97    1
    64    17    19    1
    65    66    67    1
    66    66    69    1
    67    67    68    2
    68    45    43   ar
    69    45    44   ar
    70    76    77    1
    71    43    41   ar
    72    44    42   ar
    73    97    98    1
    74    97    96    1
    75    98    99    2
    76    10    11   ar
    77    10    12   ar
    78    69    70    1
    79    72    74   ar
    80    72    70   ar
    81    74    75   ar
    82    70    71   ar
    83    75    73   ar
    84    71    73   ar
    85    41    39   ar
    86    41    40   ar
    87    77    80    1
    88    77    78    1
    89    42    39   ar
    90    96    86   am
    91    81    80    1
    92    81    83    1
    93    87    86    2
    94    80    82    1
    95    86    85    1
    96    39    37   ar
    97    40    38   ar
    98    88    85    1
    99    88    89    1
   100    78    79    2
   101    85    84    1
   102    89    91   ar
   103    89    90   ar
   104    38    37   ar
   105    37    36    1
   106    91    93   ar
   107    90    92   ar
   108    49    48    2
   109    93    94   ar
   110    36    33    1
   111    35    34    2
   112    50    51    1
   113    50    47    1
   114    92    94   ar
   115    34    33    1
   116    94    95    1
   117    52    51    1
   118    52    53    1
   119    48    47    1
   120    33    32    1
   121    47    46    1
