@<TRIPOS>MOLECULE
tmp/5tykA00.pdb
 148 146 0 0 0
SMALL
GASTEIGER

@<TRIPOS>ATOM
      1  N         19.8060    5.8790  -24.6730 N.3   132  GLY132     -0.1210
      2  CA        19.1350    4.6940  -24.1860 C.3   132  GLY132      0.1956
      3  C         19.4000    4.4540  -22.7110 C.2   132  GLY132      0.2612
      4  O         19.3560    3.3130  -22.2590 O.2   132  GLY132     -0.2717
      5  N         19.6640    5.5270  -21.9660 N.am  133  GLY133     -0.1956
      6  CA        19.8130    5.4490  -20.5140 C.3   133  GLY133      0.1869
      7  C         20.9540    4.5670  -20.0250 C.2   133  GLY133      0.2309
      8  O         20.9530    4.1480  -18.8690 O.2   133  GLY133     -0.2863
      9  N         21.2550    1.6680  -20.8670 N.3   135  ILE135     -0.1245
     10  CA        20.7420    0.2940  -20.7560 C.3   135  ILE135      0.1561
     11  C         20.2000   -0.2810  -22.0610 C.2   135  ILE135      0.2260
     12  O         20.0540   -1.4970  -22.1710 O.2   135  ILE135     -0.2867
     13  CB        19.6260    0.1620  -19.6780 C.3   135  ILE135      0.0252
     14  CG1       18.4550    1.1140  -19.9560 C.3   135  ILE135      0.0019
     15  CG2       20.2140    0.3730  -18.2820 C.3   135  ILE135      0.0019
     16  CD1       17.2090    0.7740  -19.1280 C.3   135  ILE135      0.0001
     17  N         20.6490   12.0740  -25.3770 N.3   214  SER214     -0.1202
     18  CA        20.2600   11.4410  -24.1150 C.3   214  SER214      0.2020
     19  C         21.4810   10.8690  -23.4000 C.2   214  SER214      0.2618
     20  O         22.4240   11.6130  -23.1020 O.2   214  SER214     -0.2717
     21  CB        19.1890   10.3610  -24.3460 C.3   214  SER214      0.2103
     22  OG        18.4270   10.1530  -23.1670 O.3   214  SER214     -0.2182
     23  N         21.4810    9.5710  -23.1030 N.am  215  ALA215     -0.1979
     24  CA        22.6890    8.9600  -22.5080 C.3   215  ALA215      0.1597
     25  C         23.9180    9.1200  -23.3990 C.2   215  ALA215      0.2287
     26  O         25.0540    9.0880  -22.9210 O.2   215  ALA215     -0.2864
     27  CB        22.4620    7.4850  -22.2110 C.3   215  ALA215      0.0319
     28  N         20.1520   11.6290  -13.7710 N.3   247  TRP247     -0.1241
     29  CA        20.0450   10.2480  -14.2550 C.3   247  TRP247      0.1605
     30  C         21.3630    9.7380  -14.8640 C.2   247  TRP247      0.2264
     31  O         21.4620    8.5810  -15.2450 O.2   247  TRP247     -0.2867
     32  CB        18.9250   10.1420  -15.2950 C.3   247  TRP247      0.0550
     33  CG        19.0500   11.1700  -16.4040 C.ar  247  TRP247      0.0003
     34  CD1       18.4060   12.3690  -16.4820 C.ar  247  TRP247      0.0946
     35  CD2       19.8850   11.0890  -17.5760 C.ar  247  TRP247      0.0152
     36  NE1       18.7770   13.0380  -17.6240 N.ar  247  TRP247     -0.2442
     37  CE2       19.6880   12.2820  -18.3100 C.ar  247  TRP247      0.0810
     38  CE3       20.7850   10.1340  -18.0650 C.ar  247  TRP247      0.0012
     39  CZ2       20.3400   12.5400  -19.5160 C.ar  247  TRP247      0.0191
     40  CZ3       21.4490   10.3980  -19.2750 C.ar  247  TRP247      0.0001
     41  CH2       21.2260   11.5930  -19.9740 C.ar  247  TRP247      0.0015
     42  N         17.1130    6.6680  -11.3700 N.3   304  MET304     -0.1230
     43  CA        16.4640    6.1510  -12.5690 C.3   304  MET304      0.1702
     44  C         16.9480    4.7530  -12.9330 C.2   304  MET304      0.2592
     45  O         16.1530    3.8800  -13.2710 O.2   304  MET304     -0.2718
     46  CB        16.6840    7.0930  -13.7540 C.3   304  MET304      0.0401
     47  CG        15.8260    6.7400  -14.9560 C.3   304  MET304      0.0596
     48  SD        14.0880    7.1310  -14.6900 S.3   304  MET304     -0.1393
     49  CE        14.0500    8.8460  -15.2040 C.3   304  MET304      0.0692
     50  N         18.2550    4.5440  -12.8660 N.am  305  PHE305     -0.1976
     51  CA        18.8290    3.2670  -13.2750 C.3   305  PHE305      0.1639
     52  C         19.7010    2.7030  -12.1850 C.2   305  PHE305      0.2290
     53  O         20.4090    3.4430  -11.4960 O.2   305  PHE305     -0.2864
     54  CB        19.6490    3.4160  -14.5680 C.3   305  PHE305      0.0560
     55  CG        18.9000    4.0750  -15.6900 C.ar  305  PHE305     -0.0200
     56  CD1       17.9220    3.3830  -16.3810 C.ar  305  PHE305     -0.0042
     57  CD2       19.2070    5.3700  -16.0810 C.ar  305  PHE305     -0.0042
     58  CE1       17.2290    3.9860  -17.4220 C.ar  305  PHE305     -0.0003
     59  CE2       18.5230    5.9730  -17.1240 C.ar  305  PHE305     -0.0003
     60  CZ        17.5370    5.2760  -17.7930 C.ar  305  PHE305     -0.0000
     61  N          8.2140   12.6680  -22.9540 N.3   350  PHE350     -0.1227
     62  CA         8.8000   11.3360  -22.9710 C.3   350  PHE350      0.1736
     63  C          8.2730   10.4420  -21.8340 C.2   350  PHE350      0.2595
     64  O          8.2100    9.2150  -21.9640 O.2   350  PHE350     -0.2718
     65  CB        10.3220   11.4880  -22.8780 C.3   350  PHE350      0.0547
     66  CG        11.1080   10.2460  -23.1910 C.ar  350  PHE350     -0.0202
     67  CD1       11.0810    9.6830  -24.4580 C.ar  350  PHE350     -0.0042
     68  CD2       11.9310    9.6850  -22.2330 C.ar  350  PHE350     -0.0042
     69  CE1       11.8330    8.5590  -24.7440 C.ar  350  PHE350     -0.0003
     70  CE2       12.6870    8.5600  -22.5120 C.ar  350  PHE350     -0.0003
     71  CZ        12.6370    7.9950  -23.7690 C.ar  350  PHE350     -0.0000
     72  N          7.8990   11.0420  -20.7090 N.am  351  PHE351     -0.1976
     73  CA         7.5060   10.2280  -19.5630 C.3   351  PHE351      0.1639
     74  C          6.0240    9.8910  -19.5430 C.2   351  PHE351      0.2290
     75  O          5.5230    9.3550  -18.5560 O.2   351  PHE351     -0.2864
     76  CB         7.9280   10.9170  -18.2630 C.3   351  PHE351      0.0560
     77  CG         9.4090   11.0810  -18.1490 C.ar  351  PHE351     -0.0200
     78  CD1       10.2090   10.0130  -17.8050 C.ar  351  PHE351     -0.0042
     79  CD2       10.0060   12.2910  -18.4350 C.ar  351  PHE351     -0.0042
     80  CE1       11.5820   10.1590  -17.7210 C.ar  351  PHE351     -0.0003
     81  CE2       11.3720   12.4450  -18.3590 C.ar  351  PHE351     -0.0003
     82  CZ        12.1640   11.3710  -17.9990 C.ar  351  PHE351     -0.0000
     83  N          4.5400    7.4310  -21.0540 N.3   353  SER353     -0.1202
     84  CA         4.3660    5.9970  -20.8490 C.3   353  SER353      0.2020
     85  C          4.5170    5.6100  -19.3710 C.2   353  SER353      0.2618
     86  O          3.7210    4.8250  -18.8550 O.2   353  SER353     -0.2717
     87  CB         5.3510    5.2070  -21.7290 C.3   353  SER353      0.2103
     88  OG         6.6840    5.3100  -21.2610 O.3   353  SER353     -0.2182
     89  N          5.5180    6.1730  -18.6970 N.am  354  ILE354     -0.1979
     90  CA         5.7020    5.9630  -17.2590 C.3   354  ILE354      0.1595
     91  C          4.4860    6.4380  -16.4550 C.2   354  ILE354      0.2287
     92  O          4.0560    5.7650  -15.5140 O.2   354  ILE354     -0.2864
     93  CB         6.9620    6.6850  -16.7370 C.3   354  ILE354      0.0276
     94  CG1        8.1870    6.3040  -17.5730 C.3   354  ILE354      0.0022
     95  CG2        7.1930    6.3770  -15.2600 C.3   354  ILE354      0.0022
     96  CD1        8.6150    4.8680  -17.4090 C.3   354  ILE354      0.0001
     97  N         15.1900   16.7540  -15.4290 N.3   416  TYR416     -0.1227
     98  CA        16.0460   15.8320  -16.1430 C.3   416  TYR416      0.1736
     99  C         16.9590   16.4750  -17.1790 C.2   416  TYR416      0.2595
    100  O         18.0040   15.9070  -17.4920 O.2   416  TYR416     -0.2718
    101  CB        15.1860   14.7470  -16.7970 C.3   416  TYR416      0.0548
    102  CG        14.5320   13.8320  -15.7770 C.ar  416  TYR416     -0.0200
    103  CD1       15.3000   12.9800  -14.9940 C.ar  416  TYR416     -0.0009
    104  CD2       13.1600   13.8220  -15.5900 C.ar  416  TYR416     -0.0009
    105  CE1       14.7160   12.1400  -14.0540 C.ar  416  TYR416      0.0417
    106  CE2       12.5660   12.9870  -14.6520 C.ar  416  TYR416      0.0417
    107  CZ        13.3480   12.1430  -13.8910 C.ar  416  TYR416      0.1957
    108  OH        12.7690   11.3050  -12.9550 O.3   416  TYR416     -0.2866
    109  N         16.5970   17.6470  -17.7020 N.am  417  PHE417     -0.1976
    110  CA        17.3600   18.2310  -18.8130 C.3   417  PHE417      0.1639
    111  C         17.7280   19.7110  -18.6660 C.2   417  PHE417      0.2290
    112  O         18.9080   20.0470  -18.7030 O.2   417  PHE417     -0.2864
    113  CB        16.5950   18.0270  -20.1290 C.3   417  PHE417      0.0560
    114  CG        16.2860   16.5860  -20.3990 C.ar  417  PHE417     -0.0200
    115  CD1       17.3030   15.7050  -20.7290 C.ar  417  PHE417     -0.0042
    116  CD2       15.0030   16.1000  -20.2460 C.ar  417  PHE417     -0.0042
    117  CE1       17.0300   14.3830  -20.9390 C.ar  417  PHE417     -0.0003
    118  CE2       14.7220   14.7660  -20.4600 C.ar  417  PHE417     -0.0003
    119  CZ        15.7360   13.9100  -20.8060 C.ar  417  PHE417     -0.0000
    120  N          7.4760    3.4650  -27.9610 N.3   456  MET456     -0.1230
    121  CA         7.8210    3.2590  -26.5530 C.3   456  MET456      0.1702
    122  C          7.2070    4.3090  -25.6310 C.2   456  MET456      0.2592
    123  O          6.6710    3.9810  -24.5710 O.2   456  MET456     -0.2718
    124  CB         9.3440    3.2590  -26.3950 C.3   456  MET456      0.0401
    125  CG         9.8590    3.5410  -24.9950 C.3   456  MET456      0.0596
    126  SD        11.6610    3.6660  -25.0170 S.3   456  MET456     -0.1393
    127  CE        12.1320    2.5510  -23.6960 C.3   456  MET456      0.0692
    128  N          7.2890    5.5720  -26.0360 N.am  457  ARG457     -0.1980
    129  CA         6.7300    6.6600  -25.2380 C.3   457  ARG457      0.1597
    130  C          5.2260    6.7950  -25.4690 C.2   457  ARG457      0.2287
    131  O          4.5870    7.6770  -24.8870 O.2   457  ARG457     -0.2864
    132  CB         7.4420    7.9930  -25.5460 C.3   457  ARG457      0.0334
    133  CG         7.0840    8.6650  -26.8870 C.3   457  ARG457      0.0492
    134  CD         7.8670    9.9740  -27.0510 C.3   457  ARG457      0.2205
    135  NE         7.6080   10.7240  -28.2900 N.pl3 457  ARG457     -0.0865
    136  CZ         6.5390   11.4920  -28.4960 C.cat 457  ARG457      0.5346
    137  NH1        5.5990   11.5970  -27.5630 N.pl3 457  ARG457      0.1354
    138  NH2        6.4030   12.1560  -29.6360 N.pl3 457  ARG457      0.1354
    139  N         11.5350   14.4620  -25.8810 N.3   467  HIS467     -0.1241
    140  CA        12.8140   13.7640  -25.8840 C.3   467  HIS467      0.1621
    141  C         12.8450   12.7260  -27.0100 C.2   467  HIS467      0.2264
    142  O         11.9120   11.9430  -27.1380 O.2   467  HIS467     -0.2867
    143  CB        13.0090   13.0890  -24.5260 C.3   467  HIS467      0.0745
    144  CG        14.4180   12.6840  -24.2300 C.ar  467  HIS467      0.0817
    145  ND1       15.4490   13.5810  -24.1810 N.ar  467  HIS467     -0.2268
    146  CD2       14.9440   11.4690  -23.9340 C.ar  467  HIS467      0.1154
    147  CE1       16.5740   12.9400  -23.8880 C.ar  467  HIS467      0.1986
    148  NE2       16.2890   11.6670  -23.7180 N.ar  467  HIS467     -0.2212
@<TRIPOS>BOND
     1   138   136    1
     2   136   135    2
     3   136   137    1
     4   135   134    1
     5   120   121    1
     6   142   141    2
     7   134   133    1
     8   141   140    1
     9   133   132    1
    10   121   124    1
    11   121   122    1
    12   124   125    1
    13   128   122   am
    14   128   129    1
    15   140   139    1
    16   140   143    1
    17   122   123    2
    18   132   129    1
    19   130   129    1
    20   130   131    2
    21    17    18    1
    22   126   125    1
    23   126   127    1
    24    69    67   ar
    25    69    71   ar
    26     1     2    1
    27   143   144    1
    28    67    66   ar
    29    21    18    1
    30    21    22    1
    31   144   145   ar
    32   144   146   ar
    33     2     3    1
    34   145   147   ar
    35    18    19    1
    36   146   148   ar
    37   147   148   ar
    38    71    70   ar
    39    19    23   am
    40    19    20    2
    41    25    26    2
    42    25    24    1
    43    66    65    1
    44    66    68   ar
    45    23    24    1
    46    62    61    1
    47    62    65    1
    48    62    63    1
    49     3     4    2
    50     3     5   am
    51    70    68   ar
    52    24    27    1
    53    12    11    2
    54    11    10    1
    55     5     6    1
    56    64    63    2
    57    63    72   am
    58    87    88    1
    59    87    84    1
    60    83    84    1
    61   117   119   ar
    62   117   115   ar
    63     9    10    1
    64    84    85    1
    65   119   118   ar
    66    10    13    1
    67   115   114   ar
    68    72    73    1
    69     6     7    1
    70   118   116   ar
    71   114   116   ar
    72   114   113    1
    73   113   110    1
    74     7     8    2
    75    41    39   ar
    76    41    40   ar
    77    14    13    1
    78    14    16    1
    79    13    15    1
    80    73    74    1
    81    73    76    1
    82    74    75    2
    83    39    37   ar
    84    85    86    2
    85    85    89   am
    86    40    38   ar
    87   110   111    1
    88   110   109    1
    89   112   111    2
    90    89    90    1
    91    79    81   ar
    92    79    77   ar
    93    81    82   ar
    94    37    36   ar
    95    37    35   ar
    96    76    77    1
    97    77    78   ar
    98    38    35   ar
    99    82    80   ar
   100    78    80   ar
   101    60    58   ar
   102    60    59   ar
   103   109    99   am
   104    36    34   ar
   105    35    33   ar
   106    94    96    1
   107    94    93    1
   108   100    99    2
   109    58    56   ar
   110    90    93    1
   111    90    91    1
   112    99    98    1
   113    59    57   ar
   114   101    98    1
   115   101   102    1
   116    93    95    1
   117    34    33   ar
   118    91    92    2
   119    33    32    1
   120    56    55   ar
   121    98    97    1
   122    57    55   ar
   123   102   104   ar
   124   102   103   ar
   125    55    54    1
   126   104   106   ar
   127    32    29    1
   128    31    30    2
   129    49    48    1
   130   103   105   ar
   131    47    48    1
   132    47    46    1
   133    30    29    1
   134   106   107   ar
   135    54    51    1
   136    29    28    1
   137   105   107   ar
   138   107   108    1
   139    46    43    1
   140    51    50    1
   141    51    52    1
   142    45    44    2
   143    44    50   am
   144    44    43    1
   145    43    42    1
   146    52    53    2
