@<TRIPOS>MOLECULE
tmp/5tylA00.pdb
 115 115 0 0 0
SMALL
GASTEIGER

@<TRIPOS>ATOM
      1  N        -20.3070   -6.0450  -24.7460 N.3   132  GLY132     -0.1210
      2  CA       -19.6170   -4.8410  -24.3190 C.3   132  GLY132      0.1956
      3  C        -19.8110   -4.5390  -22.8350 C.2   132  GLY132      0.2612
      4  O        -19.7380   -3.3770  -22.3970 O.2   132  GLY132     -0.2717
      5  N        -20.0530   -5.5890  -22.0550 N.am  133  GLY133     -0.1956
      6  CA       -20.2090   -5.4700  -20.6050 C.3   133  GLY133      0.1869
      7  C        -21.3660   -4.6050  -20.1340 C.2   133  GLY133      0.2309
      8  O        -21.4230   -4.2030  -18.9530 O.2   133  GLY133     -0.2863
      9  N        -21.0470  -12.3060  -25.3360 N.3   214  SER214     -0.1202
     10  CA       -20.8120  -11.5990  -24.0700 C.3   214  SER214      0.2020
     11  C        -22.0760  -11.0760  -23.4080 C.2   214  SER214      0.2618
     12  O        -23.0140  -11.8100  -23.1620 O.2   214  SER214     -0.2717
     13  CB       -19.8450  -10.4080  -24.2640 C.3   214  SER214      0.2103
     14  OG       -18.6340  -10.4320  -23.5200 O.3   214  SER214     -0.2182
     15  N        -22.0630   -9.7920  -23.0680 N.am  215  ALA215     -0.1979
     16  CA       -23.2380   -9.1840  -22.4760 C.3   215  ALA215      0.1597
     17  C        -24.4520   -9.3070  -23.4080 C.2   215  ALA215      0.2287
     18  O        -25.5830   -9.2940  -22.9420 O.2   215  ALA215     -0.2864
     19  CB       -22.9720   -7.7010  -22.1310 C.3   215  ALA215      0.0319
     20  N        -20.5830  -11.6590  -13.7480 N.3   247  TRP247     -0.1241
     21  CA       -20.4920  -10.2900  -14.3030 C.3   247  TRP247      0.1605
     22  C        -21.8020   -9.7700  -14.9410 C.2   247  TRP247      0.2264
     23  O        -21.9020   -8.5870  -15.2990 O.2   247  TRP247     -0.2867
     24  CB       -19.3680  -10.2400  -15.3510 C.3   247  TRP247      0.0550
     25  CG       -19.5040  -11.3530  -16.4170 C.ar  247  TRP247      0.0003
     26  CD1      -18.9140  -12.5970  -16.4100 C.ar  247  TRP247      0.0946
     27  CD2      -20.3050  -11.3010  -17.6070 C.ar  247  TRP247      0.0152
     28  NE1      -19.2890  -13.3090  -17.5310 N.ar  247  TRP247     -0.2442
     29  CE2      -20.1410  -12.5400  -18.2820 C.ar  247  TRP247      0.0810
     30  CE3      -21.1460  -10.3230  -18.1670 C.ar  247  TRP247      0.0012
     31  CZ2      -20.7890  -12.8300  -19.4890 C.ar  247  TRP247      0.0191
     32  CZ3      -21.7850  -10.6050  -19.3790 C.ar  247  TRP247      0.0001
     33  CH2      -21.6100  -11.8640  -20.0160 C.ar  247  TRP247      0.0015
     34  N        -17.4280   -6.5810  -11.6410 N.3   304  MET304     -0.1230
     35  CA       -16.7690   -5.9910  -12.8120 C.3   304  MET304      0.1702
     36  C        -17.2810   -4.5850  -13.1600 C.2   304  MET304      0.2592
     37  O        -16.5300   -3.7010  -13.5560 O.2   304  MET304     -0.2718
     38  CB       -16.9380   -6.9260  -14.0190 C.3   304  MET304      0.0401
     39  CG       -16.2400   -8.2760  -13.8200 C.3   304  MET304      0.0596
     40  SD       -14.4540   -8.0750  -13.6240 S.3   304  MET304     -0.1393
     41  CE       -14.2220   -8.8890  -12.0540 C.3   304  MET304      0.0692
     42  N        -18.5750   -4.3850  -13.0020 N.am  305  PHE305     -0.1976
     43  CA       -19.2000   -3.1460  -13.4210 C.3   305  PHE305      0.1639
     44  C        -20.0910   -2.6160  -12.3020 C.2   305  PHE305      0.2290
     45  O        -20.7600   -3.3910  -11.6150 O.2   305  PHE305     -0.2864
     46  CB       -20.0250   -3.3540  -14.6890 C.3   305  PHE305      0.0560
     47  CG       -19.2900   -4.0660  -15.7880 C.ar  305  PHE305     -0.0200
     48  CD1      -18.4210   -3.3780  -16.6340 C.ar  305  PHE305     -0.0042
     49  CD2      -19.5020   -5.4080  -16.0100 C.ar  305  PHE305     -0.0042
     50  CE1      -17.7520   -4.0480  -17.6770 C.ar  305  PHE305     -0.0003
     51  CE2      -18.8260   -6.0760  -17.0340 C.ar  305  PHE305     -0.0003
     52  CZ       -17.9610   -5.3970  -17.8580 C.ar  305  PHE305     -0.0000
     53  N         -8.5150  -13.0600  -23.1330 N.3   350  PHE350     -0.1227
     54  CA        -9.1100  -11.7290  -23.2840 C.3   350  PHE350      0.1736
     55  C         -8.6310  -10.7530  -22.2040 C.2   350  PHE350      0.2595
     56  O         -8.7480   -9.5350  -22.3450 O.2   350  PHE350     -0.2718
     57  CB       -10.6340  -11.9260  -23.2340 C.3   350  PHE350      0.0547
     58  CG       -11.4760  -10.6810  -23.3910 C.ar  350  PHE350     -0.0202
     59  CD1      -11.6640  -10.0780  -24.6370 C.ar  350  PHE350     -0.0042
     60  CD2      -12.1610  -10.1660  -22.2930 C.ar  350  PHE350     -0.0042
     61  CE1      -12.4830   -8.9810  -24.7730 C.ar  350  PHE350     -0.0003
     62  CE2      -12.9740   -9.0480  -22.4240 C.ar  350  PHE350     -0.0003
     63  CZ       -13.1340   -8.4570  -23.6640 C.ar  350  PHE350     -0.0000
     64  N         -8.0720  -11.2990  -21.1290 N.am  351  PHE351     -0.1976
     65  CA        -7.7190  -10.4970  -19.9600 C.3   351  PHE351      0.1639
     66  C         -6.2590  -10.0890  -19.9180 C.2   351  PHE351      0.2290
     67  O         -5.8050   -9.5220  -18.9300 O.2   351  PHE351     -0.2864
     68  CB        -8.0890  -11.2430  -18.6810 C.3   351  PHE351      0.0560
     69  CG        -9.5620  -11.4740  -18.5480 C.ar  351  PHE351     -0.0200
     70  CD1      -10.4200  -10.4070  -18.3490 C.ar  351  PHE351     -0.0042
     71  CD2      -10.0940  -12.7460  -18.6570 C.ar  351  PHE351     -0.0042
     72  CE1      -11.7860  -10.6070  -18.2490 C.ar  351  PHE351     -0.0003
     73  CE2      -11.4570  -12.9490  -18.5570 C.ar  351  PHE351     -0.0003
     74  CZ       -12.3030  -11.8810  -18.3370 C.ar  351  PHE351     -0.0000
     75  N         -5.5220   -6.3420  -19.2370 N.3   354  ILE354     -0.1245
     76  CA        -5.8120   -5.9870  -17.8500 C.3   354  ILE354      0.1561
     77  C         -4.7620   -6.5920  -16.9300 C.2   354  ILE354      0.2260
     78  O         -4.3060   -5.9320  -15.9890 O.2   354  ILE354     -0.2867
     79  CB        -7.2200   -6.4290  -17.4220 C.3   354  ILE354      0.0252
     80  CG1       -8.2420   -5.3800  -17.8700 C.3   354  ILE354      0.0019
     81  CG2       -7.3000   -6.6120  -15.9150 C.3   354  ILE354      0.0019
     82  CD1       -9.6240   -5.5600  -17.2720 C.3   354  ILE354      0.0001
     83  N        -15.6680  -16.8990  -15.4440 N.3   416  TYR416     -0.1227
     84  CA       -16.5520  -16.0020  -16.1510 C.3   416  TYR416      0.1736
     85  C        -17.4340  -16.6780  -17.1880 C.2   416  TYR416      0.2595
     86  O        -18.4470  -16.1000  -17.5890 O.2   416  TYR416     -0.2718
     87  CB       -15.7360  -14.8980  -16.8270 C.3   416  TYR416      0.0548
     88  CG       -15.0140  -13.9620  -15.8690 C.ar  416  TYR416     -0.0200
     89  CD1      -15.7280  -13.1270  -14.9980 C.ar  416  TYR416     -0.0009
     90  CD2      -13.6290  -13.8730  -15.8700 C.ar  416  TYR416     -0.0009
     91  CE1      -15.0750  -12.2640  -14.1340 C.ar  416  TYR416      0.0417
     92  CE2      -12.9680  -12.9970  -15.0230 C.ar  416  TYR416      0.0417
     93  CZ       -13.6980  -12.2000  -14.1560 C.ar  416  TYR416      0.1957
     94  OH       -13.0410  -11.3560  -13.3000 O.3   416  TYR416     -0.2866
     95  N        -17.0760  -17.8880  -17.6420 N.am  417  PHE417     -0.1976
     96  CA       -17.8150  -18.4590  -18.7650 C.3   417  PHE417      0.1639
     97  C        -18.2150  -19.9270  -18.6350 C.2   417  PHE417      0.2290
     98  O        -19.3990  -20.2500  -18.6440 O.2   417  PHE417     -0.2864
     99  CB       -16.9950  -18.2580  -20.0430 C.3   417  PHE417      0.0560
    100  CG       -16.6250  -16.8170  -20.2900 C.ar  417  PHE417     -0.0200
    101  CD1      -17.5920  -15.9000  -20.6710 C.ar  417  PHE417     -0.0042
    102  CD2      -15.3300  -16.3870  -20.1290 C.ar  417  PHE417     -0.0042
    103  CE1      -17.2640  -14.5690  -20.9150 C.ar  417  PHE417     -0.0003
    104  CE2      -15.0010  -15.0520  -20.3590 C.ar  417  PHE417     -0.0003
    105  CZ       -15.9710  -14.1560  -20.7590 C.ar  417  PHE417     -0.0000
    106  N        -11.9990  -14.8100  -25.9260 N.3   467  HIS467     -0.1241
    107  CA       -13.2800  -14.1000  -25.9080 C.3   467  HIS467      0.1621
    108  C        -13.3290  -13.0580  -27.0440 C.2   467  HIS467      0.2264
    109  O        -12.3660  -12.3070  -27.2200 O.2   467  HIS467     -0.2867
    110  CB       -13.4580  -13.3970  -24.5460 C.3   467  HIS467      0.0745
    111  CG       -14.8560  -12.9650  -24.2430 C.ar  467  HIS467      0.0817
    112  ND1      -15.9130  -13.8530  -24.1520 N.ar  467  HIS467     -0.2268
    113  CD2      -15.3690  -11.7390  -23.9770 C.ar  467  HIS467      0.1154
    114  CE1      -17.0120  -13.1830  -23.8580 C.ar  467  HIS467      0.1986
    115  NE2      -16.7120  -11.9000  -23.7410 N.ar  467  HIS467     -0.2212
@<TRIPOS>BOND
     1   109   108    2
     2   108   107    1
     3   106   107    1
     4   107   110    1
     5     9    10    1
     6    61    59   ar
     7    61    63   ar
     8     1     2    1
     9    59    58   ar
    10   110   111    1
    11     2     3    1
    12    13    10    1
    13    13    14    1
    14   111   112   ar
    15   111   113   ar
    16   112   114   ar
    17    10    11    1
    18   113   115   ar
    19   114   115   ar
    20    63    62   ar
    21    11    12    2
    22    11    15   am
    23    17    18    2
    24    17    16    1
    25    58    57    1
    26    58    60   ar
    27    54    57    1
    28    54    53    1
    29    54    55    1
    30    15    16    1
    31     3     4    2
    32     3     5   am
    33    16    19    1
    34    62    60   ar
    35    56    55    2
    36    55    64   am
    37     5     6    1
    38    64    65    1
    39   103   105   ar
    40   103   101   ar
    41   105   104   ar
    42   101   100   ar
    43     6     7    1
    44   104   102   ar
    45   100   102   ar
    46   100    99    1
    47     7     8    2
    48    99    96    1
    49    33    31   ar
    50    33    32   ar
    51    65    66    1
    52    65    68    1
    53    66    67    2
    54    31    29   ar
    55    32    30   ar
    56    75    76    1
    57    96    97    1
    58    96    95    1
    59    68    69    1
    60    71    73   ar
    61    71    69   ar
    62    98    97    2
    63    73    74   ar
    64    69    70   ar
    65    70    72   ar
    66    74    72   ar
    67    29    27   ar
    68    29    28   ar
    69    30    27   ar
    70    80    79    1
    71    80    82    1
    72    52    50   ar
    73    52    51   ar
    74    76    79    1
    75    76    77    1
    76    50    48   ar
    77    95    85   am
    78    27    25   ar
    79    86    85    2
    80    28    26   ar
    81    79    81    1
    82    85    84    1
    83    51    49   ar
    84    77    78    2
    85    87    84    1
    86    87    88    1
    87    48    47   ar
    88    25    26   ar
    89    25    24    1
    90    84    83    1
    91    49    47   ar
    92    90    88   ar
    93    90    92   ar
    94    88    89   ar
    95    47    46    1
    96    24    21    1
    97    23    22    2
    98    92    93   ar
    99    89    91   ar
   100    22    21    1
   101    46    43    1
   102    21    20    1
   103    93    91   ar
   104    93    94    1
   105    38    39    1
   106    38    35    1
   107    39    40    1
   108    40    41    1
   109    37    36    2
   110    43    42    1
   111    43    44    1
   112    36    42   am
   113    36    35    1
   114    35    34    1
   115    44    45    2
