@<TRIPOS>MOLECULE
tmp/5tynA00.pdb
 146 143 0 0 0
SMALL
GASTEIGER

@<TRIPOS>ATOM
      1  N         19.7550    6.1130  -24.8030 N.3   134  GLY134     -0.1210
      2  CA        19.0940    4.9070  -24.3390 C.3   134  GLY134      0.1956
      3  C         19.3370    4.6340  -22.8560 C.2   134  GLY134      0.2612
      4  O         19.3350    3.4790  -22.4190 O.2   134  GLY134     -0.2717
      5  N         19.5500    5.7020  -22.0900 N.am  135  GLY135     -0.1956
      6  CA        19.6860    5.6170  -20.6360 C.3   135  GLY135      0.1869
      7  C         20.8160    4.7320  -20.1110 C.2   135  GLY135      0.2309
      8  O         20.7750    4.3000  -18.9540 O.2   135  GLY135     -0.2863
      9  N         21.1790    1.8470  -21.0420 N.3   137  ILE137     -0.1231
     10  CA        20.6330    0.4940  -20.9370 C.3   137  ILE137      0.1692
     11  C         20.1180   -0.1010  -22.2530 C.2   137  ILE137      0.2591
     12  O         19.9650   -1.3210  -22.3470 O.2   137  ILE137     -0.2718
     13  CB        19.4820    0.4000  -19.8910 C.3   137  ILE137      0.0266
     14  CG1       18.3160    1.3410  -20.2210 C.3   137  ILE137      0.0019
     15  CG2       20.0090    0.6470  -18.4820 C.3   137  ILE137      0.0020
     16  CD1       17.0240    0.9440  -19.4930 C.3   137  ILE137      0.0001
     17  N         19.8640    0.7310  -23.2650 N.am  138  ILE138     -0.1980
     18  CA        19.4630    0.2130  -24.5780 C.3   138  ILE138      0.1595
     19  C         20.1980    1.0100  -25.6410 C.2   138  ILE138      0.2287
     20  O         20.8270    2.0100  -25.3270 O.2   138  ILE138     -0.2864
     21  CB        17.9280    0.2930  -24.8260 C.3   138  ILE138      0.0276
     22  CG1       17.4180    1.7420  -24.7390 C.3   138  ILE138      0.0022
     23  CG2       17.1670   -0.6280  -23.8700 C.3   138  ILE138      0.0022
     24  CD1       15.9230    1.8600  -25.0170 C.3   138  ILE138      0.0001
     25  N         20.5370   12.4200  -25.3620 N.3   216  SER216     -0.1202
     26  CA        20.1390   11.7200  -24.1260 C.3   216  SER216      0.2020
     27  C         21.3740   11.0990  -23.4240 C.2   216  SER216      0.2618
     28  O         22.3190   11.8200  -23.0950 O.2   216  SER216     -0.2717
     29  CB        19.0730   10.6720  -24.4330 C.3   216  SER216      0.2103
     30  OG        18.2810   10.3890  -23.2910 O.3   216  SER216     -0.2182
     31  N         21.4040    9.7850  -23.2000 N.am  217  ALA217     -0.1979
     32  CA        22.5690    9.1990  -22.5320 C.3   217  ALA217      0.1597
     33  C         23.8190    9.3880  -23.4050 C.2   217  ALA217      0.2287
     34  O         24.9410    9.3920  -22.9010 O.2   217  ALA217     -0.2864
     35  CB        22.3470    7.7120  -22.2110 C.3   217  ALA217      0.0319
     36  N         19.6400   11.5950  -13.7840 N.3   249  TRP249     -0.1241
     37  CA        19.5520   10.2410  -14.3170 C.3   249  TRP249      0.1605
     38  C         20.8920    9.7390  -14.8910 C.2   249  TRP249      0.2264
     39  O         21.0210    8.5560  -15.2310 O.2   249  TRP249     -0.2867
     40  CB        18.4660   10.1730  -15.4050 C.3   249  TRP249      0.0550
     41  CG        18.6400   11.2100  -16.4850 C.ar  249  TRP249      0.0003
     42  CD1       18.0700   12.4500  -16.5260 C.ar  249  TRP249      0.0946
     43  CD2       19.4330   11.0950  -17.6770 C.ar  249  TRP249      0.0152
     44  NE1       18.4510   13.1150  -17.6720 N.ar  249  TRP249     -0.2442
     45  CE2       19.2920   12.3040  -18.3910 C.ar  249  TRP249      0.0810
     46  CE3       20.2670   10.0980  -18.2010 C.ar  249  TRP249      0.0012
     47  CZ2       19.9440   12.5330  -19.6000 C.ar  249  TRP249      0.0191
     48  CZ3       20.8980   10.3260  -19.4080 C.ar  249  TRP249      0.0001
     49  CH2       20.7330   11.5290  -20.0930 C.ar  249  TRP249      0.0015
     50  N         16.6650    6.4730  -11.5590 N.3   306  MET306     -0.1230
     51  CA        15.9950    5.9280  -12.7320 C.3   306  MET306      0.1702
     52  C         16.5710    4.5870  -13.1830 C.2   306  MET306      0.2592
     53  O         15.8370    3.7160  -13.6360 O.2   306  MET306     -0.2718
     54  CB        16.0530    6.9320  -13.8820 C.3   306  MET306      0.0401
     55  CG        15.3910    6.4200  -15.1420 C.3   306  MET306      0.0596
     56  SD        15.1710    7.7030  -16.3720 S.3   306  MET306     -0.1393
     57  CE        13.8330    8.6630  -15.6630 C.3   306  MET306      0.0692
     58  N         17.8810    4.4180  -13.0530 N.am  307  PHE307     -0.1976
     59  CA        18.5180    3.1830  -13.4990 C.3   307  PHE307      0.1639
     60  C         19.3570    2.5870  -12.3680 C.2   307  PHE307      0.2290
     61  O         20.0500    3.3190  -11.6710 O.2   307  PHE307     -0.2864
     62  CB        19.3960    3.4420  -14.7310 C.3   307  PHE307      0.0560
     63  CG        18.6880    4.1630  -15.8480 C.ar  307  PHE307     -0.0200
     64  CD1       17.7860    3.4940  -16.6660 C.ar  307  PHE307     -0.0042
     65  CD2       18.9350    5.5120  -16.0940 C.ar  307  PHE307     -0.0042
     66  CE1       17.1260    4.1600  -17.7000 C.ar  307  PHE307     -0.0003
     67  CE2       18.2880    6.1700  -17.1360 C.ar  307  PHE307     -0.0003
     68  CZ        17.3880    5.4870  -17.9360 C.ar  307  PHE307     -0.0000
     69  N          8.0390   12.8970  -23.1050 N.3   352  PHE352     -0.1227
     70  CA         8.6640   11.5790  -23.1480 C.3   352  PHE352      0.1736
     71  C          8.1070   10.6230  -22.0950 C.2   352  PHE352      0.2595
     72  O          8.2160    9.4090  -22.2390 O.2   352  PHE352     -0.2718
     73  CB        10.1720   11.7540  -22.9590 C.3   352  PHE352      0.0547
     74  CG        10.9990   10.5240  -23.2460 C.ar  352  PHE352     -0.0202
     75  CD1       11.0960   10.0200  -24.5360 C.ar  352  PHE352     -0.0042
     76  CD2       11.7500    9.9270  -22.2410 C.ar  352  PHE352     -0.0042
     77  CE1       11.8920    8.9150  -24.8110 C.ar  352  PHE352     -0.0003
     78  CE2       12.5600    8.8150  -22.5130 C.ar  352  PHE352     -0.0003
     79  CZ        12.6240    8.3100  -23.7940 C.ar  352  PHE352     -0.0000
     80  N          7.5320   11.1650  -21.0190 N.am  353  PHE353     -0.1976
     81  CA         7.1100   10.3140  -19.8990 C.3   353  PHE353      0.1639
     82  C          5.6130    9.9990  -19.9310 C.2   353  PHE353      0.2290
     83  O          5.0210    9.5940  -18.9270 O.2   353  PHE353     -0.2864
     84  CB         7.5130   10.9650  -18.5720 C.3   353  PHE353      0.0560
     85  CG         9.0020   11.1030  -18.4150 C.ar  353  PHE353     -0.0200
     86  CD1        9.7960    9.9750  -18.2420 C.ar  353  PHE353     -0.0042
     87  CD2        9.6110   12.3480  -18.4740 C.ar  353  PHE353     -0.0042
     88  CE1       11.1720   10.0860  -18.1150 C.ar  353  PHE353     -0.0003
     89  CE2       10.9890   12.4650  -18.3410 C.ar  353  PHE353     -0.0003
     90  CZ        11.7700   11.3210  -18.1600 C.ar  353  PHE353     -0.0000
     91  N          4.7440    6.2010  -18.9030 N.3   356  ILE356     -0.1245
     92  CA         4.8750    5.9030  -17.4820 C.3   356  ILE356      0.1561
     93  C          3.7160    6.5250  -16.7140 C.2   356  ILE356      0.2260
     94  O          3.1570    5.9060  -15.8020 O.2   356  ILE356     -0.2867
     95  CB         6.2130    6.4000  -16.9220 C.3   356  ILE356      0.0252
     96  CG1        7.3670    5.7750  -17.7090 C.3   356  ILE356      0.0019
     97  CG2        6.3330    6.0520  -15.4490 C.3   356  ILE356      0.0019
     98  CD1        8.7360    6.2710  -17.3070 C.3   356  ILE356      0.0001
     99  N         16.3050   17.7310  -17.5780 N.3   419  PHE419     -0.1241
    100  CA        17.0500   18.3310  -18.6830 C.3   419  PHE419      0.1605
    101  C         17.4160   19.8220  -18.5300 C.2   419  PHE419      0.2264
    102  O         18.6030   20.1470  -18.5130 O.2   419  PHE419     -0.2867
    103  CB        16.2710   18.1040  -19.9830 C.3   419  PHE419      0.0534
    104  CG        15.9760   16.6510  -20.2390 C.ar  419  PHE419     -0.0203
    105  CD1       16.9880   15.7840  -20.5970 C.ar  419  PHE419     -0.0042
    106  CD2       14.7020   16.1510  -20.0650 C.ar  419  PHE419     -0.0042
    107  CE1       16.7350   14.4460  -20.7970 C.ar  419  PHE419     -0.0003
    108  CE2       14.4370   14.8200  -20.2720 C.ar  419  PHE419     -0.0003
    109  CZ        15.4520   13.9590  -20.6330 C.ar  419  PHE419     -0.0000
    110  N         11.2760    5.6850  -30.9220 N.3   455  TYR455     -0.1241
    111  CA        10.9580    6.1860  -29.5860 C.3   455  TYR455      0.1605
    112  C          9.5140    6.6610  -29.4820 C.2   455  TYR455      0.2264
    113  O          8.9470    6.6770  -28.3840 O.2   455  TYR455     -0.2867
    114  CB        11.8900    7.3410  -29.1860 C.3   455  TYR455      0.0534
    115  CG        13.2070    6.9040  -28.6190 C.ar  455  TYR455     -0.0201
    116  CD1       13.2870    6.3460  -27.3390 C.ar  455  TYR455     -0.0009
    117  CD2       14.3830    7.0590  -29.3490 C.ar  455  TYR455     -0.0009
    118  CE1       14.5010    5.9440  -26.8170 C.ar  455  TYR455      0.0417
    119  CE2       15.6030    6.6710  -28.8220 C.ar  455  TYR455      0.0417
    120  CZ        15.6550    6.1060  -27.5610 C.ar  455  TYR455      0.1957
    121  OH        16.8670    5.7090  -27.0320 O.3   455  TYR455     -0.2866
    122  N          7.6460    3.8790  -27.9940 N.3   458  MET458     -0.1245
    123  CA         7.9730    3.7270  -26.5760 C.3   458  MET458      0.1570
    124  C          7.2340    4.7140  -25.6540 C.2   458  MET458      0.2261
    125  O          6.8300    4.3600  -24.5340 O.2   458  MET458     -0.2867
    126  CB         9.4810    3.8850  -26.3810 C.3   458  MET458      0.0387
    127  CG         9.9440    3.6320  -24.9550 C.3   458  MET458      0.0595
    128  SD        11.6460    4.1660  -24.6740 S.3   458  MET458     -0.1393
    129  CE        12.5290    2.9700  -25.6540 C.3   458  MET458      0.0692
    130  N         11.3880   14.8320  -25.9420 N.3   469  HIS469     -0.1226
    131  CA        12.6710   14.1670  -25.8800 C.3   469  HIS469      0.1752
    132  C         12.7460   13.0780  -26.9670 C.2   469  HIS469      0.2596
    133  O         11.8100   12.2840  -27.1090 O.2   469  HIS469     -0.2718
    134  CB        12.8450   13.5580  -24.4970 C.3   469  HIS469      0.0759
    135  CG        14.2290   13.0730  -24.2190 C.ar  469  HIS469      0.0818
    136  ND1       15.3010   13.9310  -24.1030 N.ar  469  HIS469     -0.2268
    137  CD2       14.7150   11.8250  -24.0170 C.ar  469  HIS469      0.1154
    138  CE1       16.3960   13.2270  -23.8530 C.ar  469  HIS469      0.1986
    139  NE2       16.0670   11.9480  -23.7970 N.ar  469  HIS469     -0.2212
    140  N         13.8370   13.0990  -27.7410 N.am  470  THR470     -0.1953
    141  CA        14.1560   12.1770  -28.8700 C.3   470  THR470      0.1897
    142  C         13.4740   12.4800  -30.2030 C.2   470  THR470      0.2313
    143  O         13.7870   11.8380  -31.1920 O.2   470  THR470     -0.2863
    144  CB        13.8440   10.6810  -28.5660 C.3   470  THR470      0.1794
    145  OG1       12.4360   10.4180  -28.6930 O.3   470  THR470     -0.2208
    146  CG2       14.3710   10.2550  -27.1700 C.3   470  THR470      0.0378
@<TRIPOS>BOND
     1   143   142    2
     2   110   111    1
     3   142   141    1
     4   111   112    1
     5   111   114    1
     6   112   113    2
     7   117   119   ar
     8   117   115   ar
     9   114   115    1
    10   141   144    1
    11   141   140    1
    12   119   120   ar
    13   145   144    1
    14   115   116   ar
    15   144   146    1
    16   122   123    1
    17   140   132   am
    18   120   121    1
    19   120   118   ar
    20   116   118   ar
    21   133   132    2
    22   132   131    1
    23   123   126    1
    24   123   124    1
    25   126   127    1
    26   130   131    1
    27   131   134    1
    28   124   125    2
    29   129   128    1
    30    19    20    2
    31    19    18    1
    32    25    26    1
    33    24    22    1
    34   127   128    1
    35    21    22    1
    36    21    18    1
    37    21    23    1
    38    77    75   ar
    39    77    79   ar
    40     1     2    1
    41    18    17    1
    42    75    74   ar
    43   134   135    1
    44    29    26    1
    45    29    30    1
    46     2     3    1
    47   135   136   ar
    48   135   137   ar
    49    26    27    1
    50   136   138   ar
    51   137   139   ar
    52   138   139   ar
    53    79    78   ar
    54    27    31   am
    55    27    28    2
    56    33    34    2
    57    33    32    1
    58    17    11   am
    59    74    73    1
    60    74    76   ar
    61    31    32    1
    62    70    69    1
    63    70    73    1
    64    70    71    1
    65     3     4    2
    66     3     5   am
    67    32    35    1
    68    78    76   ar
    69    12    11    2
    70    11    10    1
    71    72    71    2
    72    71    80   am
    73     5     6    1
    74     9    10    1
    75    80    81    1
    76    10    13    1
    77   107   109   ar
    78   107   105   ar
    79     6     7    1
    80   109   108   ar
    81   105   104   ar
    82   108   106   ar
    83   104   106   ar
    84   104   103    1
    85    14    13    1
    86    14    16    1
    87     7     8    2
    88    49    47   ar
    89    49    48   ar
    90   103   100    1
    91    82    81    1
    92    82    83    2
    93    81    84    1
    94    13    15    1
    95    47    45   ar
    96    48    46   ar
    97    91    92    1
    98   100   101    1
    99   100    99    1
   100    84    85    1
   101   101   102    2
   102    87    85   ar
   103    87    89   ar
   104    85    86   ar
   105    45    43   ar
   106    45    44   ar
   107    89    90   ar
   108    86    88   ar
   109    46    43   ar
   110    90    88   ar
   111    68    66   ar
   112    68    67   ar
   113    96    98    1
   114    96    95    1
   115    66    64   ar
   116    43    41   ar
   117    44    42   ar
   118    92    95    1
   119    92    93    1
   120    67    65   ar
   121    95    97    1
   122    93    94    2
   123    64    63   ar
   124    42    41   ar
   125    41    40    1
   126    56    57    1
   127    56    55    1
   128    65    63   ar
   129    63    62    1
   130    40    37    1
   131    39    38    2
   132    55    54    1
   133    38    37    1
   134    62    59    1
   135    37    36    1
   136    54    51    1
   137    53    52    2
   138    59    58    1
   139    59    60    1
   140    52    58   am
   141    52    51    1
   142    51    50    1
   143    60    61    2
