@<TRIPOS>MOLECULE
tmp/5typA00.pdb
 107 108 0 0 0
SMALL
GASTEIGER

@<TRIPOS>ATOM
      1  N        -20.4110   -5.9840  -24.7250 N.3   132  GLY132     -0.1210
      2  CA       -19.6730   -4.8120  -24.3070 C.3   132  GLY132      0.1956
      3  C        -19.9180   -4.4830  -22.8470 C.2   132  GLY132      0.2612
      4  O        -19.8480   -3.3180  -22.4420 O.2   132  GLY132     -0.2717
      5  N        -20.2200   -5.5020  -22.0500 N.am  133  GLY133     -0.1956
      6  CA       -20.3350   -5.3290  -20.6070 C.3   133  GLY133      0.1869
      7  C        -21.5150   -4.4910  -20.1730 C.2   133  GLY133      0.2309
      8  O        -21.5570   -4.0330  -19.0220 O.2   133  GLY133     -0.2863
      9  N        -21.2950  -12.2640  -25.3440 N.3   214  SER214     -0.1202
     10  CA       -20.9970  -11.5380  -24.0790 C.3   214  SER214      0.2020
     11  C        -22.1990  -10.9680  -23.3840 C.2   214  SER214      0.2618
     12  O        -23.1200  -11.6900  -23.0420 O.2   214  SER214     -0.2717
     13  CB       -20.0120  -10.3780  -24.3120 C.3   214  SER214      0.2103
     14  OG       -18.7910  -10.5010  -23.5970 O.3   214  SER214     -0.2182
     15  N        -22.1790   -9.6590  -23.1320 N.am  215  ALA215     -0.1979
     16  CA       -23.3560   -9.0430  -22.5600 C.3   215  ALA215      0.1597
     17  C        -24.5490   -9.2250  -23.4810 C.2   215  ALA215      0.2287
     18  O        -25.6780   -9.2210  -23.0040 O.2   215  ALA215     -0.2864
     19  CB       -23.1250   -7.5390  -22.2630 C.3   215  ALA215      0.0319
     20  N        -20.7910  -11.6120  -13.7950 N.3   247  TRP247     -0.1241
     21  CA       -20.6360  -10.2680  -14.3450 C.3   247  TRP247      0.1605
     22  C        -21.9200   -9.7440  -14.9940 C.2   247  TRP247      0.2264
     23  O        -21.9600   -8.6050  -15.4490 O.2   247  TRP247     -0.2867
     24  CB       -19.4910  -10.2540  -15.3690 C.3   247  TRP247      0.0550
     25  CG       -19.6360  -11.3170  -16.4450 C.ar  247  TRP247      0.0003
     26  CD1      -19.0320  -12.5530  -16.4740 C.ar  247  TRP247      0.0946
     27  CD2      -20.4520  -11.2510  -17.6270 C.ar  247  TRP247      0.0152
     28  NE1      -19.4140  -13.2480  -17.5980 N.ar  247  TRP247     -0.2442
     29  CE2      -20.2800  -12.4750  -18.3250 C.ar  247  TRP247      0.0810
     30  CE3      -21.3000  -10.2860  -18.1650 C.ar  247  TRP247      0.0012
     31  CZ2      -20.9380  -12.7530  -19.5250 C.ar  247  TRP247      0.0191
     32  CZ3      -21.9420  -10.5600  -19.3670 C.ar  247  TRP247      0.0001
     33  CH2      -21.7660  -11.7900  -20.0230 C.ar  247  TRP247      0.0015
     34  N        -17.5590   -6.3740  -11.5950 N.3   304  MET304     -0.1230
     35  CA       -16.8480   -5.8510  -12.7440 C.3   304  MET304      0.1702
     36  C        -17.4180   -4.5230  -13.2320 C.2   304  MET304      0.2592
     37  O        -16.6800   -3.6610  -13.6750 O.2   304  MET304     -0.2718
     38  CB       -16.8530   -6.8570  -13.8770 C.3   304  MET304      0.0401
     39  CG       -16.1620   -6.2770  -15.0700 C.3   304  MET304      0.0596
     40  SD       -15.5650   -7.5630  -16.1210 S.3   304  MET304     -0.1393
     41  CE       -14.0890   -8.0320  -15.2110 C.3   304  MET304      0.0692
     42  N        -18.7300   -4.3560  -13.1400 N.am  305  PHE305     -0.1976
     43  CA       -19.3380   -3.0870  -13.5260 C.3   305  PHE305      0.1639
     44  C        -20.2160   -2.5570  -12.4040 C.2   305  PHE305      0.2290
     45  O        -20.8260   -3.3430  -11.6710 O.2   305  PHE305     -0.2864
     46  CB       -20.1530   -3.2520  -14.8000 C.3   305  PHE305      0.0560
     47  CG       -19.4420   -4.0200  -15.8780 C.ar  305  PHE305     -0.0200
     48  CD1      -18.5940   -3.3670  -16.7680 C.ar  305  PHE305     -0.0042
     49  CD2      -19.6440   -5.3810  -16.0210 C.ar  305  PHE305     -0.0042
     50  CE1      -17.9380   -4.0750  -17.7710 C.ar  305  PHE305     -0.0003
     51  CE2      -19.0000   -6.0850  -17.0330 C.ar  305  PHE305     -0.0003
     52  CZ       -18.1460   -5.4320  -17.9030 C.ar  305  PHE305     -0.0000
     53  N         -8.8290  -13.0520  -23.1390 N.3   350  PHE350     -0.1227
     54  CA        -9.3530  -11.6880  -23.1910 C.3   350  PHE350      0.1736
     55  C         -8.7660  -10.7890  -22.0860 C.2   350  PHE350      0.2595
     56  O         -8.7900   -9.5860  -22.1920 O.2   350  PHE350     -0.2718
     57  CB       -10.8820  -11.7320  -23.0640 C.3   350  PHE350      0.0547
     58  CG       -11.6010  -10.4340  -23.3890 C.ar  350  PHE350     -0.0202
     59  CD1      -11.8230  -10.0410  -24.7170 C.ar  350  PHE350     -0.0042
     60  CD2      -12.1180   -9.6450  -22.3740 C.ar  350  PHE350     -0.0042
     61  CE1      -12.5000   -8.8830  -25.0220 C.ar  350  PHE350     -0.0003
     62  CE2      -12.8030   -8.4730  -22.6700 C.ar  350  PHE350     -0.0003
     63  CZ       -12.9990   -8.0890  -24.0030 C.ar  350  PHE350     -0.0000
     64  N         -8.2460  -11.3810  -21.0160 N.am  351  PHE351     -0.1976
     65  CA        -7.8270  -10.5810  -19.8650 C.3   351  PHE351      0.1639
     66  C         -6.3460  -10.2280  -19.8450 C.2   351  PHE351      0.2290
     67  O         -5.8500   -9.6950  -18.8470 O.2   351  PHE351     -0.2864
     68  CB        -8.2080  -11.3040  -18.5780 C.3   351  PHE351      0.0560
     69  CG        -9.6820  -11.3770  -18.3810 C.ar  351  PHE351     -0.0200
     70  CD1      -10.3890  -10.2540  -17.9890 C.ar  351  PHE351     -0.0042
     71  CD2      -10.3730  -12.5510  -18.6420 C.ar  351  PHE351     -0.0042
     72  CE1      -11.7650  -10.3010  -17.8310 C.ar  351  PHE351     -0.0003
     73  CE2      -11.7410  -12.6090  -18.4840 C.ar  351  PHE351     -0.0003
     74  CZ       -12.4460  -11.4870  -18.0710 C.ar  351  PHE351     -0.0000
     75  N        -15.7260  -16.8790  -15.4640 N.3   416  TYR416     -0.1227
     76  CA       -16.5780  -15.9440  -16.1780 C.3   416  TYR416      0.1736
     77  C        -17.5120  -16.5910  -17.1960 C.2   416  TYR416      0.2595
     78  O        -18.5460  -16.0020  -17.5220 O.2   416  TYR416     -0.2718
     79  CB       -15.7170  -14.8850  -16.8680 C.3   416  TYR416      0.0548
     80  CG       -15.0530  -13.9420  -15.8850 C.ar  416  TYR416     -0.0200
     81  CD1      -15.7770  -12.9210  -15.2830 C.ar  416  TYR416     -0.0009
     82  CD2      -13.7040  -14.0720  -15.5580 C.ar  416  TYR416     -0.0009
     83  CE1      -15.1730  -12.0470  -14.3700 C.ar  416  TYR416      0.0417
     84  CE2      -13.0990  -13.1990  -14.6580 C.ar  416  TYR416      0.0417
     85  CZ       -13.8400  -12.1940  -14.0720 C.ar  416  TYR416      0.1957
     86  OH       -13.2470  -11.3320  -13.1810 O.3   416  TYR416     -0.2866
     87  N        -17.1600  -17.7890  -17.6970 N.am  417  PHE417     -0.1976
     88  CA       -17.9710  -18.4010  -18.7420 C.3   417  PHE417      0.1639
     89  C        -18.3330  -19.8810  -18.5550 C.2   417  PHE417      0.2290
     90  O        -19.5040  -20.2060  -18.5570 O.2   417  PHE417     -0.2864
     91  CB       -17.2530  -18.1950  -20.0860 C.3   417  PHE417      0.0560
     92  CG       -16.9330  -16.7560  -20.3600 C.ar  417  PHE417     -0.0200
     93  CD1      -17.9300  -15.8710  -20.7360 C.ar  417  PHE417     -0.0042
     94  CD2      -15.6400  -16.2750  -20.1990 C.ar  417  PHE417     -0.0042
     95  CE1      -17.6320  -14.5370  -20.9880 C.ar  417  PHE417     -0.0003
     96  CE2      -15.3420  -14.9340  -20.4330 C.ar  417  PHE417     -0.0003
     97  CZ       -16.3460  -14.0670  -20.8110 C.ar  417  PHE417     -0.0000
     98  N        -11.9940  -14.7420  -25.9610 N.3   467  HIS467     -0.1241
     99  CA       -13.3120  -14.1140  -25.9000 C.3   467  HIS467      0.1621
    100  C        -13.4320  -13.0820  -27.0270 C.2   467  HIS467      0.2264
    101  O        -12.5020  -12.3140  -27.2480 O.2   467  HIS467     -0.2867
    102  CB       -13.4840  -13.4440  -24.5160 C.3   467  HIS467      0.0745
    103  CG       -14.8580  -12.9390  -24.2380 C.ar  467  HIS467      0.0817
    104  ND1      -15.9460  -13.7740  -24.1110 N.ar  467  HIS467     -0.2268
    105  CD2      -15.3140  -11.6810  -24.0210 C.ar  467  HIS467      0.1154
    106  CE1      -17.0200  -13.0450  -23.8510 C.ar  467  HIS467      0.1986
    107  NE2      -16.6650  -11.7740  -23.7920 N.ar  467  HIS467     -0.2212
@<TRIPOS>BOND
     1   101   100    2
     2   100    99    1
     3    98    99    1
     4    99   102    1
     5     9    10    1
     6    61    59   ar
     7    61    63   ar
     8     1     2    1
     9    59    58   ar
    10   102   103    1
    11    13    10    1
    12    13    14    1
    13     2     3    1
    14   103   104   ar
    15   103   105   ar
    16   104   106   ar
    17    10    11    1
    18   105   107   ar
    19    63    62   ar
    20   106   107   ar
    21    17    18    2
    22    17    16    1
    23    58    57    1
    24    58    60   ar
    25    11    15   am
    26    11    12    2
    27    54    53    1
    28    54    57    1
    29    54    55    1
    30    15    16    1
    31     3     4    2
    32     3     5   am
    33    62    60   ar
    34    16    19    1
    35    56    55    2
    36    55    64   am
    37     5     6    1
    38    64    65    1
    39    95    97   ar
    40    95    93   ar
    41    97    96   ar
    42    93    92   ar
    43     6     7    1
    44    96    94   ar
    45    92    94   ar
    46    92    91    1
    47     7     8    2
    48    91    88    1
    49    33    31   ar
    50    33    32   ar
    51    65    66    1
    52    65    68    1
    53    66    67    2
    54    31    29   ar
    55    32    30   ar
    56    88    89    1
    57    88    87    1
    58    71    73   ar
    59    71    69   ar
    60    68    69    1
    61    90    89    2
    62    73    74   ar
    63    69    70   ar
    64    29    27   ar
    65    29    28   ar
    66    30    27   ar
    67    74    72   ar
    68    70    72   ar
    69    52    50   ar
    70    52    51   ar
    71    50    48   ar
    72    87    77   am
    73    27    25   ar
    74    28    26   ar
    75    78    77    2
    76    77    76    1
    77    51    49   ar
    78    79    76    1
    79    79    80    1
    80    48    47   ar
    81    26    25   ar
    82    25    24    1
    83    76    75    1
    84    40    41    1
    85    40    39    1
    86    49    47   ar
    87    80    82   ar
    88    80    81   ar
    89    47    46    1
    90    82    84   ar
    91    23    22    2
    92    24    21    1
    93    81    83   ar
    94    39    38    1
    95    22    21    1
    96    46    43    1
    97    84    85   ar
    98    83    85   ar
    99    21    20    1
   100    85    86    1
   101    38    35    1
   102    37    36    2
   103    43    42    1
   104    43    44    1
   105    36    42   am
   106    36    35    1
   107    35    34    1
   108    44    45    2
