@<TRIPOS>MOLECULE
tmp/5tysB00.pdb
 120 112 0 0 0
SMALL
GASTEIGER

@<TRIPOS>ATOM
      1  N        -21.5090   19.7480    6.4720 N.3     8  ARG8       -0.1245
      2  CA       -20.9040   19.5550    5.1530 C.3     8  ARG8        0.1563
      3  C        -21.7270   20.2680    4.0870 C.2     8  ARG8        0.2260
      4  O        -22.9640   20.1480    4.0860 O.2     8  ARG8       -0.2867
      5  CB       -20.8180   18.0700    4.8000 C.3     8  ARG8        0.0307
      6  CG       -19.6870   17.3450    5.4730 C.3     8  ARG8        0.0489
      7  CD       -19.5720   15.9120    4.9630 C.3     8  ARG8        0.2205
      8  NE       -18.3590   15.3110    5.4990 N.pl3   8  ARG8       -0.0865
      9  CZ       -18.0210   14.0340    5.3660 C.cat   8  ARG8        0.5346
     10  NH1      -18.8250   13.1990    4.7190 N.pl3   8  ARG8        0.1354
     11  NH2      -16.8770   13.5970    5.8940 N.pl3   8  ARG8        0.1354
     12  N        -20.2830   17.0970   -2.5980 N.3    23  LEU23      -0.1245
     13  CA       -19.7080   18.0520   -1.6610 C.3    23  LEU23       0.1561
     14  C        -19.1050   19.2260   -2.4250 C.2    23  LEU23       0.2260
     15  O        -18.2750   19.0250   -3.3270 O.2    23  LEU23      -0.2867
     16  CB       -18.6480   17.3370   -0.8210 C.3    23  LEU23       0.0270
     17  CG       -17.9130   18.0700    0.2960 C.3    23  LEU23       0.0019
     18  CD1      -18.8860   18.4710    1.3820 C.3    23  LEU23       0.0001
     19  CD2      -16.8110   17.1400    0.8780 C.3    23  LEU23       0.0001
     20  N        -16.4320   21.6190   -2.7360 N.3    25  ASP25      -0.1239
     21  CA       -15.0990   21.4310   -2.1670 C.3    25  ASP25       0.1674
     22  C        -14.1070   22.4300   -2.7670 C.2    25  ASP25       0.2266
     23  O        -13.5250   22.1760   -3.8280 O.2    25  ASP25      -0.2867
     24  CB       -14.6610   19.9960   -2.3990 C.3    25  ASP25       0.1410
     25  CG       -13.3750   19.6460   -1.6820 C.2    25  ASP25       0.3668
     26  OD1      -13.0230   18.4610   -1.6720 O.co2  25  ASP25      -0.2456
     27  OD2      -12.7140   20.5480   -1.1290 O.co2  25  ASP25      -0.2456
     28  N        -11.1940   22.9360   -1.7090 N.3    27  GLY27      -0.1210
     29  CA        -9.8740   22.3420   -1.6980 C.3    27  GLY27       0.1956
     30  C         -9.5890   21.3550   -2.8110 C.2    27  GLY27       0.2612
     31  O         -8.5230   20.7320   -2.8280 O.2    27  GLY27      -0.2717
     32  N        -10.5120   21.1900   -3.7490 N.am   28  ALA28      -0.1965
     33  CA       -10.3820   20.2450   -4.8500 C.3    28  ALA28       0.1728
     34  C        -10.2010   21.0260   -6.1500 C.2    28  ALA28       0.2616
     35  O        -11.0800   21.8060   -6.5230 O.2    28  ALA28      -0.2715
     36  CB       -11.6310   19.3650   -4.9410 C.3    28  ALA28       0.0334
     37  N         -9.0790   20.8060   -6.8520 N.am   29  ASP29      -0.1957
     38  CA        -8.9100   21.4650   -8.1530 C.3    29  ASP29       0.1840
     39  C         -9.9310   20.9570   -9.1610 C.2    29  ASP29       0.2622
     40  O        -10.4900   21.7400   -9.9470 O.2    29  ASP29      -0.2715
     41  CB        -7.5050   21.2330   -8.7170 C.3    29  ASP29       0.1450
     42  CG        -6.4010   21.7490   -7.8090 C.2    29  ASP29       0.3671
     43  OD1       -5.2650   21.2660   -7.9590 O.co2  29  ASP29      -0.2456
     44  OD2       -6.6550   22.6440   -6.9680 O.co2  29  ASP29      -0.2456
     45  N        -10.1530   19.6450   -9.1740 N.am   30  ASP30      -0.1971
     46  CA       -10.9810   18.9530  -10.1500 C.3    30  ASP30       0.1709
     47  C        -12.1870   18.3080   -9.4630 C.2    30  ASP30       0.2293
     48  O        -12.2470   18.1640   -8.2340 O.2    30  ASP30      -0.2864
     49  CB       -10.1670   17.8780  -10.8920 C.3    30  ASP30       0.1436
     50  CG        -8.9260   18.4470  -11.5630 C.2    30  ASP30       0.3671
     51  OD1       -9.0470   19.4570  -12.2700 O.co2  30  ASP30      -0.2456
     52  OD2       -7.8320   17.8870  -11.3700 O.co2  30  ASP30      -0.2456
     53  N        -14.4320   15.0610   -8.8230 N.3    32  VAL32      -0.1245
     54  CA       -14.2490   13.6100   -8.7840 C.3    32  VAL32       0.1561
     55  C        -15.5140   12.9660   -8.2310 C.2    32  VAL32       0.2260
     56  O        -15.9530   13.2850   -7.1190 O.2    32  VAL32      -0.2867
     57  CB       -13.0140   13.1830   -7.9680 C.3    32  VAL32       0.0252
     58  CG1      -13.0850   13.6600   -6.5580 C.3    32  VAL32       0.0019
     59  CG2      -12.8470   11.6500   -8.0040 C.3    32  VAL32       0.0019
     60  N         -4.7900   10.5640   -9.8240 N.3    47  ILE47      -0.1231
     61  CA        -4.8200   11.7960   -9.0450 C.3    47  ILE47       0.1692
     62  C         -4.4100   11.5010   -7.6050 C.2    47  ILE47       0.2593
     63  O         -4.5550   10.3790   -7.1160 O.2    47  ILE47      -0.2718
     64  CB        -6.2080   12.4730   -9.0890 C.3    47  ILE47       0.0266
     65  CG1       -7.2670   11.6070   -8.4000 C.3    47  ILE47       0.0019
     66  CG2       -6.6290   12.7520  -10.5260 C.3    47  ILE47       0.0020
     67  CD1       -8.6650   12.1590   -8.5710 C.3    47  ILE47       0.0001
     68  N         -3.9050   12.5230   -6.9260 N.am   48  GLY48      -0.1942
     69  CA        -3.3790   12.3770   -5.5740 C.3    48  GLY48       0.2014
     70  C         -4.1810   13.1570   -4.5460 C.2    48  GLY48       0.2639
     71  O         -4.6600   14.2560   -4.8240 O.2    48  GLY48      -0.2714
     72  N         -4.3260   12.5690   -3.3620 N.am   49  GLY49      -0.1939
     73  CA        -4.9840   13.2040   -2.2360 C.3    49  GLY49       0.2014
     74  C         -4.2790   12.8490   -0.9450 C.2    49  GLY49       0.2638
     75  O         -3.1170   12.4240   -0.9680 O.2    49  GLY49      -0.2714
     76  N         -4.9800   12.9710    0.1820 N.am   50  ILE50      -0.1977
     77  CA        -4.3050   12.9360    1.4770 C.3    50  ILE50       0.1596
     78  C         -3.6130   11.5920    1.7270 C.2    50  ILE50       0.2287
     79  O         -2.5120   11.5520    2.2980 O.2    50  ILE50      -0.2864
     80  CB        -5.2880   13.3080    2.6040 C.3    50  ILE50       0.0276
     81  CG1       -4.5770   14.2000    3.6200 C.3    50  ILE50       0.0022
     82  CG2       -5.8480   12.0800    3.3030 C.3    50  ILE50       0.0022
     83  CD1       -5.5180   14.9100    4.5720 C.3    50  ILE50       0.0001
     84  N        -13.9370   13.4830  -13.2890 N.3    76  LEU76      -0.1245
     85  CA       -13.1350   12.2960  -13.0270 C.3    76  LEU76       0.1561
     86  C        -13.9760   11.2820  -12.2560 C.2    76  LEU76       0.2260
     87  O        -14.7060   11.6420  -11.3290 O.2    76  LEU76      -0.2867
     88  CB       -11.8720   12.6540  -12.2370 C.3    76  LEU76       0.0270
     89  CG       -11.0570   13.8330  -12.7850 C.3    76  LEU76       0.0019
     90  CD1       -9.8260   14.1300  -11.9010 C.3    76  LEU76       0.0001
     91  CD2      -10.6520   13.5470  -14.2210 C.3    76  LEU76       0.0001
     92  N        -13.3320    7.4330   -5.3580 N.3    80  THR80      -0.1204
     93  CA       -13.3760    8.4010   -4.2750 C.3    80  THR80       0.1979
     94  C        -14.4090    7.9760   -3.2330 C.2    80  THR80       0.2460
     95  O        -15.4310    7.3830   -3.5730 O.2    80  THR80      -0.2732
     96  CB       -13.7200    9.7930   -4.8010 C.3    80  THR80       0.1783
     97  OG1      -13.8350   10.6950   -3.6940 O.3    80  THR80      -0.2211
     98  CG2      -15.0160    9.7770   -5.6060 C.3    80  THR80       0.0376
     99  N        -14.1680    8.2530   -1.9500 N.am   81  PRO81      -0.2717
    100  CA       -15.1890    7.9230   -0.9450 C.3    81  PRO81       0.1535
    101  C        -16.3670    8.8810   -0.9190 C.2    81  PRO81       0.2598
    102  O        -17.4220    8.5060   -0.3890 O.2    81  PRO81      -0.2715
    103  CB       -14.4140    7.9640    0.3780 C.3    81  PRO81       0.0310
    104  CG       -13.3190    8.8800    0.1360 C.3    81  PRO81       0.0237
    105  CD       -12.9200    8.7180   -1.3250 C.3    81  PRO81       0.0939
    106  N        -16.2330   10.1010   -1.4530 N.am   82  VAL82      -0.1978
    107  CA       -17.3610   11.0210   -1.5560 C.3    82  VAL82       0.1596
    108  C        -17.3000   11.7490   -2.8950 C.2    82  VAL82       0.2287
    109  O        -16.2230   11.9640   -3.4640 O.2    82  VAL82      -0.2864
    110  CB       -17.4350   12.0290   -0.3640 C.3    82  VAL82       0.0276
    111  CG1      -16.5220   11.6290    0.7910 C.3    82  VAL82       0.0022
    112  CG2      -17.1590   13.4430   -0.8040 C.3    82  VAL82       0.0022
    113  N        -17.1870   14.8320   -5.0820 N.3    84  ILE84      -0.1245
    114  CA       -16.6040   16.1430   -4.8260 C.3    84  ILE84       0.1561
    115  C        -16.7820   17.0240   -6.0520 C.2    84  ILE84       0.2260
    116  O        -16.3570   16.6530   -7.1510 O.2    84  ILE84      -0.2867
    117  CB       -15.1120   16.0350   -4.4790 C.3    84  ILE84       0.0252
    118  CG1      -14.9380   15.4610   -3.0740 C.3    84  ILE84       0.0019
    119  CG2      -14.4460   17.4010   -4.6440 C.3    84  ILE84       0.0019
    120  CD1      -13.9170   14.3360   -3.0660 C.3    84  ILE84       0.0001
@<TRIPOS>BOND
     1    91    89    1
     2    84    85    1
     3    85    86    1
     4    85    88    1
     5    89    88    1
     6    89    90    1
     7    51    50   ar
     8    86    87    2
     9    50    52   ar
    10    50    49    1
    11    49    46    1
    12    66    64    1
    13    46    47    1
    14    46    45    1
    15    40    39    2
    16    60    61    1
    17    47    48    2
    18    45    39   am
    19    39    38    1
    20    64    61    1
    21    64    65    1
    22    61    62    1
    23    53    54    1
    24    54    55    1
    25    54    57    1
    26    41    38    1
    27    41    42    1
    28    67    65    1
    29    55    56    2
    30    38    37    1
    31    59    57    1
    32    57    58    1
    33    43    42   ar
    34    42    44   ar
    35    62    63    2
    36    62    68   am
    37   116   115    2
    38    68    69    1
    39    37    34   am
    40    35    34    2
    41    34    33    1
    42   115   114    1
    43    98    96    1
    44    69    70    1
    45    92    93    1
    46   113   114    1
    47    36    33    1
    48    33    32    1
    49   114   117    1
    50    71    70    2
    51    96    93    1
    52    96    97    1
    53   119   117    1
    54    70    72   am
    55   117   118    1
    56    93    94    1
    57    23    22    2
    58    32    30   am
    59    95    94    2
    60   109   108    2
    61    72    73    1
    62    15    14    2
    63    94    99   am
    64   118   120    1
    65   108   107    1
    66    31    30    2
    67    30    29    1
    68    22    21    1
    69    20    21    1
    70    12    13    1
    71    14    13    1
    72    24    21    1
    73    24    25    1
    74    73    74    1
    75    99   105    1
    76    99   100    1
    77    28    29    1
    78    25    26   ar
    79    25    27   ar
    80    13    16    1
    81   107   106    1
    82   107   110    1
    83   106   101   am
    84   105   104    1
    85    75    74    2
    86    74    76   am
    87   100   101    1
    88   100   103    1
    89   101   102    2
    90    16    17    1
    91   112   110    1
    92   110   111    1
    93   104   103    1
    94    76    77    1
    95    17    19    1
    96    17    18    1
    97    77    78    1
    98    77    80    1
    99    78    79    2
   100    80    82    1
   101    80    81    1
   102    81    83    1
   103     4     3    2
   104     3     2    1
   105    10     9    1
   106     5     2    1
   107     5     6    1
   108     7     6    1
   109     7     8    1
   110     2     1    1
   111     9     8    2
   112     9    11    1
