@<TRIPOS>MOLECULE
tmp/5tz1A01.pdb
 228 223 0 0 0
SMALL
GASTEIGER

@<TRIPOS>ATOM
      1  N         74.9170   55.5480   17.6180 N.3    20  TYR20      -0.1227
      2  CA        74.3620   56.7460   17.0000 C.3    20  TYR20       0.1736
      3  C         73.7540   56.4150   15.6420 C.2    20  TYR20       0.2596
      4  O         72.6710   56.8900   15.2990 O.2    20  TYR20      -0.2718
      5  CB        75.4410   57.8180   16.8310 C.3    20  TYR20       0.0548
      6  CG        75.0280   58.9480   15.9140 C.ar   20  TYR20      -0.0200
      7  CD1       73.9170   59.7310   16.2020 C.ar   20  TYR20      -0.0009
      8  CD2       75.7510   59.2370   14.7640 C.ar   20  TYR20      -0.0009
      9  CE1       73.5260   60.7540   15.3600 C.ar   20  TYR20       0.0417
     10  CE2       75.3730   60.2660   13.9220 C.ar   20  TYR20       0.0417
     11  CZ        74.2590   61.0190   14.2240 C.ar   20  TYR20       0.1957
     12  OH        73.8790   62.0450   13.3880 O.3    20  TYR20      -0.2866
     13  N         74.4390   55.5540   14.8980 N.am   21  GLY21      -0.1957
     14  CA        74.0230   55.1980   13.5450 C.3    21  GLY21       0.1869
     15  C         72.7830   54.3260   13.5050 C.2    21  GLY21       0.2309
     16  O         71.9380   54.4770   12.6230 O.2    21  GLY21      -0.2863
     17  N         82.7230   60.3800   16.6260 N.3    43  LEU43      -0.1245
     18  CA        82.1170   59.7240   15.4670 C.3    43  LEU43       0.1561
     19  C         83.0360   59.7470   14.2470 C.2    43  LEU43       0.2260
     20  O         83.3210   60.8160   13.7060 O.2    43  LEU43      -0.2867
     21  CB        80.8200   60.4570   15.1190 C.3    43  LEU43       0.0270
     22  CG        79.9830   60.0620   13.9050 C.3    43  LEU43       0.0019
     23  CD1       79.4530   58.6520   14.0910 C.3    43  LEU43       0.0001
     24  CD2       78.8280   61.0340   13.7400 C.3    43  LEU43       0.0001
     25  N         78.7790   69.9900    5.1660 N.3    74  TYR74      -0.1241
     26  CA        77.9870   69.3330    4.1300 C.3    74  TYR74       0.1605
     27  C         78.6810   69.2240    2.7730 C.2    74  TYR74       0.2264
     28  O         78.2360   68.4710    1.9060 O.2    74  TYR74      -0.2867
     29  CB        76.6540   70.0690    3.9530 C.3    74  TYR74       0.0534
     30  CG        75.7520   70.0250    5.1670 C.ar   74  TYR74      -0.0201
     31  CD1       75.6480   68.8730    5.9380 C.ar   74  TYR74      -0.0009
     32  CD2       74.8560   71.0560    5.4210 C.ar   74  TYR74      -0.0009
     33  CE1       74.7830   68.8090    7.0150 C.ar   74  TYR74       0.0417
     34  CE2       73.9730   70.9940    6.4830 C.ar   74  TYR74       0.0417
     35  CZ        73.9340   69.8640    7.2700 C.ar   74  TYR74       0.1957
     36  OH        73.0570   69.7990    8.3280 O.3    74  TYR74      -0.2866
     37  N         79.0870   65.9060    1.1420 N.3    77  LEU77      -0.1231
     38  CA        77.8350   65.1660    1.0710 C.3    77  LEU77       0.1693
     39  C         77.0650   65.4790   -0.2090 C.2    77  LEU77       0.2592
     40  O         76.5250   64.5800   -0.8550 O.2    77  LEU77      -0.2718
     41  CB        76.9660   65.5160    2.2820 C.3    77  LEU77       0.0284
     42  CG        75.7540   64.6250    2.5650 C.3    77  LEU77       0.0019
     43  CD1       74.6790   64.8210    1.5080 C.3    77  LEU77       0.0001
     44  CD2       76.1650   63.1630    2.6580 C.3    77  LEU77       0.0001
     45  N         77.1410   66.7330   -0.6400 N.am   78  THR78      -0.1953
     46  CA        76.2470   67.2300   -1.6840 C.3    78  THR78       0.1897
     47  C         76.9530   67.6510   -2.9700 C.2    78  THR78       0.2313
     48  O         76.4060   67.4920   -4.0620 O.2    78  THR78      -0.2863
     49  CB        75.4270   68.4280   -1.1640 C.3    78  THR78       0.1794
     50  OG1       76.3100   69.4760   -0.7470 O.3    78  THR78      -0.2208
     51  CG2       74.5530   68.0080    0.0100 C.3    78  THR78       0.0378
     52  N         75.3300   67.3150   -6.6510 N.3    82  PHE82      -0.1241
     53  CA        74.6440   68.4420   -7.2770 C.3    82  PHE82       0.1605
     54  C         75.4980   69.1250   -8.3400 C.2    82  PHE82       0.2264
     55  O         74.9900   69.5510   -9.3770 O.2    82  PHE82      -0.2867
     56  CB        74.2360   69.4740   -6.2230 C.3    82  PHE82       0.0534
     57  CG        73.3750   68.9130   -5.1280 C.ar   82  PHE82      -0.0203
     58  CD1       72.6240   67.7690   -5.3410 C.ar   82  PHE82      -0.0042
     59  CD2       73.1970   69.6110   -3.9460 C.ar   82  PHE82      -0.0042
     60  CE1       71.8110   67.2600   -4.3460 C.ar   82  PHE82      -0.0003
     61  CE2       72.3680   69.1230   -2.9540 C.ar   82  PHE82      -0.0003
     62  CZ        71.6710   67.9460   -3.1550 C.ar   82  PHE82      -0.0000
     63  N         74.8770   75.9250   -3.6090 N.3    87  ILE87      -0.1231
     64  CA        74.5170   75.2940   -2.3810 C.3    87  ILE87       0.1692
     65  C         75.7590   75.2940   -1.4810 C.2    87  ILE87       0.2592
     66  O         76.1990   76.3450   -1.1350 O.2    87  ILE87      -0.2718
     67  CB        73.7810   73.9640   -2.6250 C.3    87  ILE87       0.0266
     68  CG1       72.7230   74.1820   -3.7160 C.3    87  ILE87       0.0019
     69  CG2       73.1450   73.4690   -1.3490 C.3    87  ILE87       0.0020
     70  CD1       72.0880   72.9490   -4.2520 C.3    87  ILE87       0.0001
     71  N         76.2170   74.1540   -1.0190 N.am   88  TYR88      -0.1976
     72  CA        77.3750   74.1340   -0.1530 C.3    88  TYR88       0.1639
     73  C         78.7380   74.3650   -0.7570 C.2    88  TYR88       0.2290
     74  O         79.6830   74.4750   -0.0590 O.2    88  TYR88      -0.2864
     75  CB        77.3020   72.8790    0.7020 C.3    88  TYR88       0.0560
     76  CG        76.0030   72.8060    1.4390 C.ar   88  TYR88      -0.0198
     77  CD1       75.5890   73.8650    2.1910 C.ar   88  TYR88      -0.0009
     78  CD2       75.1870   71.7130    1.3600 C.ar   88  TYR88      -0.0009
     79  CE1       74.3950   73.8460    2.8480 C.ar   88  TYR88       0.0417
     80  CE2       73.9870   71.6770    2.0270 C.ar   88  TYR88       0.0417
     81  CZ        73.6060   72.7530    2.7650 C.ar   88  TYR88       0.1957
     82  OH        72.4500   72.7880    3.4170 O.3    88  TYR88      -0.2866
     83  N         73.8040   59.6960   -3.7200 N.3   184  PHE184     -0.1241
     84  CA        73.3610   60.6200   -2.6790 C.3   184  PHE184      0.1605
     85  C         73.2120   59.8510   -1.3680 C.2   184  PHE184      0.2264
     86  O         72.1120   59.4510   -0.9870 O.2   184  PHE184     -0.2867
     87  CB        72.0380   61.2720   -3.0860 C.3   184  PHE184      0.0534
     88  CG        71.6710   62.4730   -2.2610 C.ar  184  PHE184     -0.0203
     89  CD1       72.6240   63.4310   -1.9580 C.ar  184  PHE184     -0.0042
     90  CD2       70.3430   62.7560   -1.9930 C.ar  184  PHE184     -0.0042
     91  CE1       72.2800   64.5710   -1.2550 C.ar  184  PHE184     -0.0003
     92  CE2       69.9870   63.9010   -1.3050 C.ar  184  PHE184     -0.0003
     93  CZ        70.9580   64.8110   -0.9360 C.ar  184  PHE184     -0.0000
     94  N         74.8940   59.0660    2.8720 N.3   186  PRO186     -0.2116
     95  CA        75.7120   59.4980    4.0010 C.3   186  PRO186      0.1372
     96  C         77.1280   58.9360    3.9140 C.2   186  PRO186      0.2244
     97  O         77.9990   59.3150    4.6960 O.2   186  PRO186     -0.2868
     98  CB        74.9770   58.9140    5.2080 C.3   186  PRO186      0.0268
     99  CG        73.5510   58.8590    4.7770 C.3   186  PRO186      0.0207
    100  CD        73.5820   58.5550    3.3050 C.3   186  PRO186      0.0892
    101  N         79.9690   61.4730    3.2730 N.3   189  PHE189     -0.1241
    102  CA        80.6350   62.0980    4.4110 C.3   189  PHE189      0.1605
    103  C         82.0020   61.4580    4.6170 C.2   189  PHE189      0.2264
    104  O         82.9820   62.1310    4.9370 O.2   189  PHE189     -0.2867
    105  CB        79.8070   61.9340    5.6860 C.3   189  PHE189      0.0534
    106  CG        78.6630   62.9000    5.7900 C.ar  189  PHE189     -0.0203
    107  CD1       78.9010   64.2630    5.8500 C.ar  189  PHE189     -0.0042
    108  CD2       77.3710   62.4430    5.9900 C.ar  189  PHE189     -0.0042
    109  CE1       77.8560   65.1580    5.9750 C.ar  189  PHE189     -0.0003
    110  CE2       76.3230   63.3310    6.1370 C.ar  189  PHE189     -0.0003
    111  CZ        76.5650   64.6910    6.1290 C.ar  189  PHE189     -0.0000
    112  N         70.1060   70.0870   -7.1460 N.3   259  GLY259     -0.1210
    113  CA        70.0090   70.1860   -5.6940 C.3   259  GLY259      0.1956
    114  C         68.5710   70.2930   -5.2230 C.2   259  GLY259      0.2611
    115  O         68.1450   69.5730   -4.3190 O.2   259  GLY259     -0.2717
    116  N         67.8230   71.2020   -5.8380 N.am  260  ILE260     -0.1979
    117  CA        66.4450   71.4640   -5.4340 C.3   260  ILE260      0.1595
    118  C         65.5710   70.2330   -5.6530 C.2   260  ILE260      0.2287
    119  O         64.8980   69.7680   -4.7330 O.2   260  ILE260     -0.2864
    120  CB        65.8500   72.6630   -6.1960 C.3   260  ILE260      0.0276
    121  CG1       66.5950   73.9480   -5.8270 C.3   260  ILE260      0.0022
    122  CG2       64.3670   72.8080   -5.8900 C.3   260  ILE260      0.0022
    123  CD1       66.6580   74.2120   -4.3380 C.3   260  ILE260      0.0001
    124  N         66.8050   67.1640   -3.2220 N.3   263  GLY263     -0.1210
    125  CA        66.3860   67.4110   -1.8470 C.3   263  GLY263      0.1956
    126  C         64.8860   67.2540   -1.6920 C.2   263  GLY263      0.2612
    127  O         64.4110   66.4500   -0.8910 O.2   263  GLY263     -0.2717
    128  N         64.1430   67.9760   -2.5250 N.am  264  GLY264     -0.1956
    129  CA        62.6850   67.9700   -2.4620 C.3   264  GLY264      0.1869
    130  C         62.0880   66.5900   -2.6560 C.2   264  GLY264      0.2309
    131  O         61.2080   66.1700   -1.9060 O.2   264  GLY264     -0.2863
    132  N         63.4980   63.6130   -2.3230 N.3   266  HIS266     -0.1226
    133  CA        63.8820   62.6860   -1.2620 C.3   266  HIS266      0.1752
    134  C         63.0400   62.8870   -0.0070 C.2   266  HIS266      0.2596
    135  O         62.4250   61.9480    0.4990 O.2   266  HIS266     -0.2718
    136  CB        65.3680   62.8380   -0.9270 C.3   266  HIS266      0.0759
    137  CG        66.2610   61.9550   -1.7410 C.ar  266  HIS266      0.0818
    138  ND1       66.5460   62.2030   -3.0660 N.ar  266  HIS266     -0.2268
    139  CD2       66.8790   60.7900   -1.4350 C.ar  266  HIS266      0.1154
    140  CE1       67.3200   61.2400   -3.5350 C.ar  266  HIS266      0.1986
    141  NE2       67.5400   60.3720   -2.5650 N.ar  266  HIS266     -0.2212
    142  N         63.0390   64.1120    0.5050 N.am  267  THR267     -0.1953
    143  CA        62.2790   64.4390    1.7080 C.3   267  THR267      0.1897
    144  C         60.8020   64.1100    1.5250 C.2   267  THR267      0.2313
    145  O         60.1260   63.6800    2.4600 O.2   267  THR267     -0.2863
    146  CB        62.4070   65.9280    2.0790 C.3   267  THR267      0.1794
    147  OG1       62.1180   66.7370    0.9320 O.3   267  THR267     -0.2208
    148  CG2       63.8100   66.2370    2.5770 C.3   267  THR267      0.0378
    149  N         65.3340   64.3640    8.1010 N.3   332  LEU332     -0.1231
    150  CA        66.6720   64.5510    8.6460 C.3   332  LEU332      0.1693
    151  C         66.6400   64.2910   10.1460 C.2   332  LEU332      0.2592
    152  O         65.9850   65.0210   10.8910 O.2   332  LEU332     -0.2718
    153  CB        67.1820   65.9710    8.4010 C.3   332  LEU332      0.0284
    154  CG        67.2840   66.4720    6.9600 C.3   332  LEU332      0.0019
    155  CD1       68.2630   67.6350    6.9090 C.3   332  LEU332      0.0001
    156  CD2       67.7140   65.3660    6.0090 C.3   332  LEU332      0.0001
    157  N         67.3910   63.2930   10.5980 N.am  333  HIS333     -0.1962
    158  CA        67.4610   63.0050   12.0280 C.3   333  HIS333      0.1787
    159  C         68.5070   63.8770   12.7160 C.2   333  HIS333      0.2620
    160  O         68.3840   64.1860   13.9010 O.2   333  HIS333     -0.2715
    161  CB        67.7560   61.5250   12.2870 C.3   333  HIS333      0.0785
    162  CG        69.0600   61.0550   11.7200 C.ar  333  HIS333      0.0821
    163  ND1       70.2700   61.3150   12.3280 N.ar  333  HIS333     -0.2267
    164  CD2       69.3280   60.2050   10.7010 C.ar  333  HIS333      0.1154
    165  CE1       71.2350   60.7140   11.6570 C.ar  333  HIS333      0.1986
    166  NE2       70.6900   60.0290   10.6670 N.ar  333  HIS333     -0.2212
    167  N         69.4780   64.3520   11.9440 N.am  334  SER334     -0.1950
    168  CA        70.5460   65.1880   12.4810 C.3   334  SER334      0.1924
    169  C         70.9000   66.3320   11.5360 C.2   334  SER334      0.2314
    170  O         70.9200   66.1640   10.3170 O.2   334  SER334     -0.2863
    171  CB        71.7920   64.3450   12.7570 C.3   334  SER334      0.2116
    172  OG        71.5750   63.4580   13.8410 O.3   334  SER334     -0.2180
    173  N         73.9390   69.2860   11.0260 N.3   336  PHE336     -0.1241
    174  CA        75.2920   69.6280   11.4510 C.3   336  PHE336      0.1605
    175  C         75.7310   71.0330   11.0580 C.2   336  PHE336      0.2264
    176  O         75.3830   71.5390    9.9910 O.2   336  PHE336     -0.2867
    177  CB        76.2990   68.6450   10.8470 C.3   336  PHE336      0.0534
    178  CG        75.8950   67.2050   10.9740 C.ar  336  PHE336     -0.0203
    179  CD1       75.7620   66.6210   12.2210 C.ar  336  PHE336     -0.0042
    180  CD2       75.7920   66.4040    9.8500 C.ar  336  PHE336     -0.0042
    181  CE1       75.4200   65.2880   12.3430 C.ar  336  PHE336     -0.0003
    182  CE2       75.4660   65.0660    9.9630 C.ar  336  PHE336     -0.0003
    183  CZ        75.2820   64.5060   11.2120 C.ar  336  PHE336     -0.0000
    184  N         64.4950   75.5920    5.5760 N.3   426  CYS426     -0.1235
    185  CA        63.9200   75.0910    4.3320 C.3   426  CYS426      0.1677
    186  C         63.1270   76.1780    3.6100 C.2   426  CYS426      0.2270
    187  O         62.4780   77.0080    4.2450 O.2   426  CYS426     -0.2867
    188  CB        62.9940   73.9080    4.6180 C.3   426  CYS426      0.0956
    189  SG        62.5360   72.9480    3.1560 S.3   426  CYS426     -0.0801
    190  N         67.9600   54.4640    9.5090 N.3   461  TYR461     -0.1227
    191  CA        68.6300   55.7400    9.7480 C.3   461  TYR461      0.1736
    192  C         69.9780   55.8410    9.0410 C.2   461  TYR461      0.2596
    193  O         70.7660   56.7440    9.3210 O.2   461  TYR461     -0.2718
    194  CB        68.8280   55.9590   11.2500 C.3   461  TYR461      0.0548
    195  CG        67.5400   56.1710   12.0140 C.ar  461  TYR461     -0.0200
    196  CD1       66.8700   57.3860   11.9610 C.ar  461  TYR461     -0.0009
    197  CD2       67.0210   55.1740   12.8310 C.ar  461  TYR461     -0.0009
    198  CE1       65.6970   57.5880   12.6640 C.ar  461  TYR461      0.0417
    199  CE2       65.8520   55.3690   13.5420 C.ar  461  TYR461      0.0417
    200  CZ        65.1950   56.5770   13.4550 C.ar  461  TYR461      0.1957
    201  OH        64.0290   56.7750   14.1570 O.3   461  TYR461     -0.2866
    202  N         70.2180   54.9410    8.0940 N.am  462  SER462     -0.1938
    203  CA        71.4940   54.9040    7.3870 C.3   462  SER462      0.2055
    204  C         71.4160   55.6650    6.0680 C.2   462  SER462      0.2644
    205  O         72.4360   55.9730    5.4520 O.2   462  SER462     -0.2714
    206  CB        71.9110   53.4580    7.1130 C.3   462  SER462      0.2130
    207  OG        71.1650   52.9050    6.0420 O.3   462  SER462     -0.2179
    208  N         70.1950   56.0000    5.6670 N.am  463  SER463     -0.1935
    209  CA        69.9500   56.6720    4.3960 C.3   463  SER463      0.2055
    210  C         70.1020   58.1850    4.5140 C.2   463  SER463      0.2643
    211  O         70.3750   58.7090    5.5940 O.2   463  SER463     -0.2714
    212  CB        68.5460   56.3370    3.8870 C.3   463  SER463      0.2130
    213  OG        67.6410   56.1810    4.9680 O.3   463  SER463     -0.2179
    214  N         69.9650   58.8760    3.3880 N.am  464  MET464     -0.1962
    215  CA        70.0000   60.3350    3.3740 C.3   464  MET464      0.1736
    216  C         68.7880   60.8790    4.1240 C.2   464  MET464      0.2616
    217  O         68.8620   61.9220    4.7740 O.2   464  MET464     -0.2715
    218  CB        70.0270   60.8760    1.9430 C.3   464  MET464      0.0427
    219  CG        71.4200   60.9480    1.3390 C.3   464  MET464      0.0599
    220  SD        72.5600   61.9520    2.3130 S.3   464  MET464     -0.1393
    221  CE        71.9370   63.5990    1.9840 C.3   464  MET464      0.0692
    222  N         67.6490   60.2240    3.9290 N.am  465  VAL465     -0.1977
    223  CA        66.4580   60.5080    4.7200 C.3   465  VAL465      0.1596
    224  C         66.0310   59.2490    5.4670 C.2   465  VAL465      0.2287
    225  O         66.4390   58.1410    5.1200 O.2   465  VAL465     -0.2864
    226  CB        65.2900   61.0110    3.8530 C.3   465  VAL465      0.0276
    227  CG1       65.6260   62.3660    3.2510 C.3   465  VAL465      0.0022
    228  CG2       64.9550   60.0000    2.7680 C.3   465  VAL465      0.0022
@<TRIPOS>BOND
     1    55    54    2
     2    54    53    1
     3    53    52    1
     4    53    56    1
     5   112   113    1
     6    56    57    1
     7   120   122    1
     8   120   121    1
     9   120   117    1
    10   116   117    1
    11   116   114   am
    12   121   123    1
    13   113   114    1
    14   118   117    1
    15   118   119    2
    16    58    57   ar
    17    58    60   ar
    18   114   115    2
    19    57    59   ar
    20    60    62   ar
    21    70    68    1
    22    48    47    2
    23    59    61   ar
    24    83    84    1
    25    68    67    1
    26    63    64    1
    27   140   138   ar
    28   140   141   ar
    29   124   125    1
    30    62    61   ar
    31    87    84    1
    32    87    88    1
    33   138   137   ar
    34    47    46    1
    35    84    85    1
    36   130   129    1
    37   130   131    2
    38    67    64    1
    39    67    69    1
    40   141   139   ar
    41   128   129    1
    42   128   126   am
    43    64    65    1
    44   132   133    1
    45    88    90   ar
    46    88    89   ar
    47    90    92   ar
    48    89    91   ar
    49   125   126    1
    50   137   139   ar
    51   137   136    1
    52   126   127    2
    53    46    49    1
    54    46    45    1
    55    65    66    2
    56    65    71   am
    57    85    86    2
    58    92    93   ar
    59   133   136    1
    60   133   134    1
    61    91    93   ar
    62    49    50    1
    63    49    51    1
    64    71    72    1
    65    40    39    2
    66    73    72    1
    67    73    74    2
    68    45    39   am
    69    39    38    1
    70    72    75    1
    71   134   135    2
    72   134   142   am
    73   142   143    1
    74    75    76    1
    75   147   146    1
    76    38    37    1
    77    38    41    1
    78   219   218    1
    79   219   220    1
    80    78    76   ar
    81    78    80   ar
    82    76    77   ar
    83    43    42    1
    84   144   143    1
    85   144   145    2
    86   143   146    1
    87    28    27    2
    88   218   215    1
    89   221   220    1
    90    80    81   ar
    91   146   148    1
    92    77    79   ar
    93    41    42    1
    94    42    44    1
    95    81    79   ar
    96    81    82    1
    97   228   226    1
    98    27    26    1
    99    94   100    1
   100    94    95    1
   101   189   188    1
   102   227   226    1
   103   101   102    1
   104   100    99    1
   105   215   214    1
   106   215   216    1
   107   214   210   am
   108   186   187    2
   109   186   185    1
   110   226   223    1
   111   212   209    1
   112   212   213    1
   113    96    95    1
   114    96    97    2
   115   222   216   am
   116   222   223    1
   117    29    26    1
   118    29    30    1
   119    95    98    1
   120   216   217    2
   121    26    25    1
   122   185   188    1
   123   185   184    1
   124   209   210    1
   125   209   208    1
   126   102   103    1
   127   102   105    1
   128   210   211    2
   129   103   104    2
   130   223   224    1
   131    99    98    1
   132   225   224    2
   133    30    32   ar
   134    30    31   ar
   135    32    34   ar
   136   205   204    2
   137   208   204   am
   138   105   106    1
   139   106   107   ar
   140   106   108   ar
   141   107   109   ar
   142    31    33   ar
   143   109   111   ar
   144   108   110   ar
   145   156   154    1
   146   207   206    1
   147   204   203    1
   148   111   110   ar
   149    34    35   ar
   150   155   154    1
   151   154   153    1
   152    33    35   ar
   153   206   203    1
   154    35    36    1
   155   203   202    1
   156   202   192   am
   157   149   150    1
   158   153   150    1
   159   150   151    1
   160   192   193    2
   161   192   191    1
   162   190   191    1
   163   191   194    1
   164   180   182   ar
   165   180   178   ar
   166   182   183   ar
   167   176   175    2
   168   151   157   am
   169   151   152    2
   170   170   169    2
   171   157   158    1
   172   166   164   ar
   173   166   165   ar
   174   164   162   ar
   175   177   178    1
   176   177   174    1
   177   178   179   ar
   178   173   174    1
   179   175   174    1
   180   183   181   ar
   181   194   195    1
   182   169   168    1
   183   165   163   ar
   184   162   161    1
   185   162   163   ar
   186   167   168    1
   187   167   159   am
   188   196   195   ar
   189   196   198   ar
   190   195   197   ar
   191   158   161    1
   192   158   159    1
   193   179   181   ar
   194   168   171    1
   195    16    15    2
   196   198   200   ar
   197   159   160    2
   198   171   172    1
   199   197   199   ar
   200    12    11    1
   201   200   199   ar
   202   200   201    1
   203    15    14    1
   204    14    13    1
   205    20    19    2
   206    24    22    1
   207    22    23    1
   208    22    21    1
   209    10    11   ar
   210    10     8   ar
   211    11     9   ar
   212    19    18    1
   213     8     6   ar
   214    13     3   am
   215    21    18    1
   216     4     3    2
   217     9     7   ar
   218    18    17    1
   219     3     2    1
   220     6     7   ar
   221     6     5    1
   222     5     2    1
   223     2     1    1
