@<TRIPOS>MOLECULE
tmp/5tz3D00.pdb
 174 168 0 0 0
SMALL
GASTEIGER

@<TRIPOS>ATOM
      1  N         36.0140  -40.7320    6.5590 N.3    66  TYR66      -0.1227
      2  CA        34.8660  -39.8320    6.4840 C.3    66  TYR66       0.1736
      3  C         34.0560  -39.9610    5.1950 C.2    66  TYR66       0.2595
      4  O         32.8280  -40.0430    5.2330 O.2    66  TYR66      -0.2718
      5  CB        35.3350  -38.3820    6.6400 C.3    66  TYR66       0.0548
      6  CG        34.1960  -37.3910    6.5570 C.ar   66  TYR66      -0.0200
      7  CD1       33.3310  -37.2010    7.6380 C.ar   66  TYR66      -0.0009
      8  CD2       33.9850  -36.6520    5.4080 C.ar   66  TYR66      -0.0009
      9  CE1       32.2830  -36.2980    7.5650 C.ar   66  TYR66       0.0417
     10  CE2       32.9380  -35.7460    5.3240 C.ar   66  TYR66       0.0417
     11  CZ        32.0890  -35.5800    6.4060 C.ar   66  TYR66       0.1957
     12  OH        31.0610  -34.6760    6.3200 O.3    66  TYR66      -0.2866
     13  N         34.7450  -39.9330    4.0610 N.am   67  HIS67      -0.1975
     14  CA        34.0720  -39.8710    2.7540 C.3    67  HIS67       0.1656
     15  C         33.6490  -41.2630    2.2950 C.2    67  HIS67       0.2291
     16  O         34.1320  -41.7780    1.2880 O.2    67  HIS67      -0.2864
     17  CB        34.9840  -39.2050    1.7280 C.3    67  HIS67       0.0771
     18  CG        35.0390  -37.7160    1.8630 C.ar   67  HIS67       0.0820
     19  ND1       36.1310  -37.0470    2.3750 N.ar   67  HIS67      -0.2267
     20  CD2       34.1120  -36.7690    1.5870 C.ar   67  HIS67       0.1154
     21  CE1       35.8870  -35.7410    2.3670 C.ar   67  HIS67       0.1986
     22  NE2       34.6620  -35.5520    1.8970 N.ar   67  HIS67      -0.2212
     23  N         29.6470  -29.3620   -5.1480 N.3   179  THR179     -0.1218
     24  CA        30.1420  -29.8800   -3.8800 C.3   179  THR179      0.1862
     25  C         31.6310  -29.5910   -3.6930 C.2   179  THR179      0.2287
     26  O         32.1460  -29.7170   -2.5870 O.2   179  THR179     -0.2866
     27  CB        29.9340  -31.4050   -3.7300 C.3   179  THR179      0.1770
     28  OG1       30.6050  -32.0920   -4.7890 O.3   179  THR179     -0.2211
     29  CG2       28.4510  -31.7660   -3.7230 C.3   179  THR179      0.0375
     30  N         34.3130  -27.4690   -2.6340 N.3   181  LEU181     -0.1245
     31  CA        34.2780  -26.2760   -1.8080 C.3   181  LEU181      0.1561
     32  C         34.8750  -25.0830   -2.5520 C.2   181  LEU181      0.2260
     33  O         34.5060  -23.9460   -2.2900 O.2   181  LEU181     -0.2867
     34  CB        35.0140  -26.5060   -0.4910 C.3   181  LEU181      0.0270
     35  CG        34.7970  -25.4070    0.5450 C.3   181  LEU181      0.0019
     36  CD1       33.3590  -25.4150    1.0410 C.3   181  LEU181      0.0001
     37  CD2       35.7840  -25.5630    1.6980 C.3   181  LEU181      0.0001
     38  N         25.9480  -31.2440    2.5020 N.3   219  ASP219     -0.1225
     39  CA        27.3020  -31.8130    2.5480 C.3   219  ASP219      0.1805
     40  C         27.9830  -31.5450    3.8940 C.2   219  ASP219      0.2597
     41  O         28.7960  -32.3460    4.3690 O.2   219  ASP219     -0.2718
     42  CB        28.1570  -31.2330    1.4040 C.3   219  ASP219      0.1424
     43  CG        29.2950  -32.1740    0.9520 C.2   219  ASP219      0.3668
     44  OD1       29.5050  -33.2460    1.5470 O.co2 219  ASP219     -0.2456
     45  OD2       29.9820  -31.8400   -0.0280 O.co2 219  ASP219     -0.2456
     46  N         27.6530  -30.4040    4.4930 N.am  220  LEU220     -0.1979
     47  CA        28.2490  -29.9830    5.7560 C.3   220  LEU220      0.1596
     48  C         27.3300  -30.2340    6.9380 C.2   220  LEU220      0.2287
     49  O         27.6290  -29.8110    8.0510 O.2   220  LEU220     -0.2864
     50  CB        28.6130  -28.4890    5.7030 C.3   220  LEU220      0.0297
     51  CG        29.6520  -28.0050    4.6750 C.3   220  LEU220      0.0022
     52  CD1       30.2820  -26.6930    5.0930 C.3   220  LEU220      0.0001
     53  CD2       30.7100  -29.0340    4.4200 C.3   220  LEU220      0.0001
     54  N         26.6620  -32.4630    9.0000 N.3   222  ASP222     -0.1225
     55  CA        27.1350  -33.0600   10.2600 C.3   222  ASP222      0.1805
     56  C         27.2680  -31.9890   11.3370 C.2   222  ASP222      0.2597
     57  O         27.0770  -32.2520   12.5250 O.2   222  ASP222     -0.2718
     58  CB        28.4820  -33.7620   10.0800 C.3   222  ASP222      0.1424
     59  CG        28.3620  -35.1180    9.4070 C.2   222  ASP222      0.3668
     60  OD1       27.3380  -35.8030    9.6050 O.co2 222  ASP222     -0.2456
     61  OD2       29.3090  -35.5040    8.6870 O.co2 222  ASP222     -0.2456
     62  N         27.5940  -30.7730   10.9100 N.am  223  GLN223     -0.1979
     63  CA        27.8560  -29.6870   11.8400 C.3   223  GLN223      0.1601
     64  C         26.5900  -29.0940   12.4450 C.2   223  GLN223      0.2287
     65  O         26.6690  -28.2670   13.3450 O.2   223  GLN223     -0.2864
     66  CB        28.6580  -28.5840   11.1540 C.3   223  GLN223      0.0394
     67  CG        30.1050  -28.9710   10.7940 C.3   223  GLN223      0.0908
     68  CD        30.9340  -29.3970   11.9950 C.2   223  GLN223      0.2608
     69  OE1       30.6310  -29.0520   13.1410 O.2   223  GLN223     -0.2717
     70  NE2       31.9910  -30.1550   11.7330 N.am  223  GLN223     -0.0878
     71  N         32.8930  -36.4670   14.0900 N.3   233  ILE233     -0.1231
     72  CA        33.1080  -36.1240   12.6870 C.3   233  ILE233      0.1692
     73  C         34.4710  -35.4680   12.4710 C.2   233  ILE233      0.2591
     74  O         35.1770  -35.8130   11.5190 O.2   233  ILE233     -0.2718
     75  CB        31.9890  -35.2040   12.1590 C.3   233  ILE233      0.0266
     76  CG1       30.7030  -36.0060   12.0280 C.3   233  ILE233      0.0019
     77  CG2       32.3660  -34.5950   10.8090 C.3   233  ILE233      0.0020
     78  CD1       30.8890  -37.3430   11.3570 C.3   233  ILE233      0.0001
     79  N         34.8550  -34.5490   13.3590 N.am  234  ALA234     -0.1980
     80  CA        36.2070  -33.9680   13.3140 C.3   234  ALA234      0.1597
     81  C         37.3040  -35.0390   13.3700 C.2   234  ALA234      0.2287
     82  O         38.2960  -34.9430   12.6460 O.2   234  ALA234     -0.2864
     83  CB        36.4000  -32.9670   14.4500 C.3   234  ALA234      0.0319
     84  N         37.3870  -36.7570    9.9270 N.3   237  ILE237     -0.1231
     85  CA        37.9020  -35.8510    8.9160 C.3   237  ILE237      0.1692
     86  C         39.4090  -35.6440    9.0830 C.2   237  ILE237      0.2592
     87  O         40.1620  -35.7490    8.1150 O.2   237  ILE237     -0.2718
     88  CB        37.1750  -34.5040    8.9480 C.3   237  ILE237      0.0266
     89  CG1       35.7630  -34.6890    8.3890 C.3   237  ILE237      0.0019
     90  CG2       37.9320  -33.4670    8.1230 C.3   237  ILE237      0.0020
     91  CD1       34.9610  -33.4310    8.3160 C.3   237  ILE237      0.0001
     92  N         39.8650  -35.3970   10.3040 N.am  238  TYR238     -0.1976
     93  CA        41.3020  -35.1770   10.4760 C.3   238  TYR238      0.1639
     94  C         42.0970  -36.4750   10.2880 C.2   238  TYR238      0.2290
     95  O         43.1910  -36.4340    9.7250 O.2   238  TYR238     -0.2864
     96  CB        41.5940  -34.4920   11.8240 C.3   238  TYR238      0.0560
     97  CG        41.2430  -33.0220   11.7160 C.ar  238  TYR238     -0.0198
     98  CD1       42.0520  -32.1470   11.0020 C.ar  238  TYR238     -0.0009
     99  CD2       40.0520  -32.5270   12.2480 C.ar  238  TYR238     -0.0009
    100  CE1       41.7100  -30.8010   10.8600 C.ar  238  TYR238      0.0417
    101  CE2       39.6960  -31.1870   12.1080 C.ar  238  TYR238      0.0417
    102  CZ        40.5280  -30.3290   11.4110 C.ar  238  TYR238      0.1957
    103  OH        40.1670  -29.0000   11.2630 O.3   238  TYR238     -0.2866
    104  N         42.4670  -36.3590    6.6310 N.3   241  PHE241     -0.1241
    105  CA        43.4240  -35.3080    6.2780 C.3   241  PHE241      0.1605
    106  C         44.8860  -35.7330    6.5600 C.2   241  PHE241      0.2264
    107  O         45.7490  -35.6550    5.6970 O.2   241  PHE241     -0.2867
    108  CB        43.1420  -34.0080    7.0590 C.3   241  PHE241      0.0534
    109  CG        41.9650  -33.2020    6.5580 C.ar  241  PHE241     -0.0203
    110  CD1       41.2530  -33.5740    5.4310 C.ar  241  PHE241     -0.0042
    111  CD2       41.5910  -32.0430    7.2270 C.ar  241  PHE241     -0.0042
    112  CE1       40.1580  -32.8070    4.9800 C.ar  241  PHE241     -0.0003
    113  CE2       40.5150  -31.2770    6.7890 C.ar  241  PHE241     -0.0003
    114  CZ        39.8020  -31.6580    5.6610 C.ar  241  PHE241     -0.0000
    115  N         46.3440  -27.8500    7.5540 N.3   258  MET258     -0.1245
    116  CA        45.3210  -28.6640    8.1930 C.3   258  MET258      0.1570
    117  C         45.4820  -30.1570    7.9210 C.2   258  MET258      0.2261
    118  O         44.7930  -30.9680    8.5440 O.2   258  MET258     -0.2867
    119  CB        43.9250  -28.1980    7.7640 C.3   258  MET258      0.0387
    120  CG        43.4510  -28.6820    6.4010 C.3   258  MET258      0.0595
    121  SD        41.8290  -27.9580    6.0700 S.3   258  MET258     -0.1393
    122  CE        42.2930  -26.2430    5.8140 C.3   258  MET258      0.0692
    123  N         41.5190  -24.6830   13.8630 N.3   269  LEU269     -0.1231
    124  CA        41.0960  -25.0080   12.5130 C.3   269  LEU269      0.1693
    125  C         39.5860  -25.1400   12.4840 C.2   269  LEU269      0.2591
    126  O         38.9310  -24.5890   11.6050 O.2   269  LEU269     -0.2718
    127  CB        41.7580  -26.2910   12.0170 C.3   269  LEU269      0.0284
    128  CG        43.2510  -26.1580   11.7070 C.3   269  LEU269      0.0019
    129  CD1       43.8580  -27.5180   11.4050 C.3   269  LEU269      0.0001
    130  CD2       43.4720  -25.1880   10.5510 C.3   269  LEU269      0.0001
    131  N         39.0290  -25.8570   13.4560 N.am  270  GLN270     -0.1979
    132  CA        37.5790  -26.0580   13.4800 C.3   270  GLN270      0.1601
    133  C         36.8160  -24.7740   13.7310 C.2   270  GLN270      0.2287
    134  O         35.7620  -24.5400   13.1230 O.2   270  GLN270     -0.2864
    135  CB        37.1950  -27.1020   14.5300 C.3   270  GLN270      0.0394
    136  CG        37.4980  -28.5360   14.1090 C.3   270  GLN270      0.0908
    137  CD        37.0380  -28.8420   12.6940 C.2   270  GLN270      0.2608
    138  OE1       37.7260  -28.5240   11.7190 O.2   270  GLN270     -0.2717
    139  NE2       35.8710  -29.4720   12.5730 N.am  270  GLN270     -0.0878
    140  N         37.7720  -21.8040   12.8990 N.3   272  SER272     -0.1202
    141  CA        37.8590  -21.0760   11.6370 C.3   272  SER272      0.2020
    142  C         36.8960  -21.6300   10.5890 C.2   272  SER272      0.2618
    143  O         36.1470  -20.8730    9.9570 O.2   272  SER272     -0.2717
    144  CB        39.2900  -21.1120   11.1030 C.3   272  SER272      0.2103
    145  OG        39.4020  -20.3170    9.9360 O.3   272  SER272     -0.2182
    146  N         36.9080  -22.9480   10.4110 N.am  273  PHE273     -0.1975
    147  CA        35.9980  -23.5910    9.4760 C.3   273  PHE273      0.1639
    148  C         34.5470  -23.2790    9.8320 C.2   273  PHE273      0.2290
    149  O         33.7320  -22.9670    8.9640 O.2   273  PHE273     -0.2864
    150  CB        36.1990  -25.1010    9.4690 C.3   273  PHE273      0.0560
    151  CG        35.1780  -25.8450    8.6490 C.ar  273  PHE273     -0.0200
    152  CD1       35.2750  -25.8750    7.2650 C.ar  273  PHE273     -0.0042
    153  CD2       34.1280  -26.5190    9.2590 C.ar  273  PHE273     -0.0042
    154  CE1       34.3360  -26.5620    6.5020 C.ar  273  PHE273     -0.0003
    155  CE2       33.1930  -27.2060    8.4940 C.ar  273  PHE273     -0.0003
    156  CZ        33.3070  -27.2250    7.1230 C.ar  273  PHE273     -0.0000
    157  N         33.8310  -19.2550    9.4750 N.3   276  HIS276     -0.1226
    158  CA        34.0670  -18.5850    8.1980 C.3   276  HIS276      0.1752
    159  C         33.6570  -19.3840    6.9730 C.2   276  HIS276      0.2595
    160  O         33.5910  -18.8380    5.8690 O.2   276  HIS276     -0.2718
    161  CB        35.5430  -18.1970    8.1040 C.3   276  HIS276      0.0759
    162  CG        36.0030  -17.3620    9.2560 C.ar  276  HIS276      0.0818
    163  ND1       35.3480  -16.2140    9.6450 N.ar  276  HIS276     -0.2268
    164  CD2       37.0420  -17.5100   10.1140 C.ar  276  HIS276      0.1154
    165  CE1       35.9650  -15.6860   10.6880 C.ar  276  HIS276      0.1986
    166  NE2       36.9960  -16.4530   10.9920 N.ar  276  HIS276     -0.2212
    167  N         33.4060  -20.6770    7.1560 N.am  277  ILE277     -0.1980
    168  CA        32.8660  -21.4940    6.0720 C.3   277  ILE277      0.1595
    169  C         31.4280  -21.9200    6.4100 C.2   277  ILE277      0.2287
    170  O         30.4880  -21.5840    5.6890 O.2   277  ILE277     -0.2864
    171  CB        33.7200  -22.7530    5.7970 C.3   277  ILE277      0.0276
    172  CG1       35.1680  -22.3700    5.4750 C.3   277  ILE277      0.0022
    173  CG2       33.1160  -23.5760    4.6580 C.3   277  ILE277      0.0022
    174  CD1       35.3270  -21.6200    4.1920 C.3   277  ILE277      0.0001
@<TRIPOS>BOND
     1    23    24    1
     2    28    27    1
     3    24    27    1
     4    24    25    1
     5    27    29    1
     6    25    26    2
     7    30    31    1
     8    32    33    2
     9    32    31    1
    10    31    34    1
    11    34    35    1
    12    45    43   ar
    13    35    36    1
    14    35    37    1
    15    43    42    1
    16    43    44   ar
    17    16    15    2
    18    42    39    1
    19    20    18   ar
    20    20    22   ar
    21    17    18    1
    22    17    14    1
    23    18    19   ar
    24    22    21   ar
    25    15    14    1
    26    21    19   ar
    27    38    39    1
    28    39    40    1
    29    14    13    1
    30    40    41    2
    31    40    46   am
    32    13     3   am
    33   174   172    1
    34    53    51    1
    35    46    47    1
    36   173   171    1
    37    51    52    1
    38    51    50    1
    39   112   110   ar
    40   112   114   ar
    41     3     4    2
    42     3     2    1
    43    10     8   ar
    44    10    11   ar
    45     8     6   ar
    46   110   109   ar
    47   172   171    1
    48   114   113   ar
    49   170   169    2
    50   107   106    2
    51    50    47    1
    52    47    48    1
    53   171   168    1
    54   122   121    1
    55   160   159    2
    56   121   120    1
    57   168   169    1
    58   168   167    1
    59   105   106    1
    60   105   104    1
    61   105   108    1
    62    12    11    1
    63   120   119    1
    64    11     9   ar
    65     2     1    1
    66     2     5    1
    67   154   156   ar
    68   154   152   ar
    69     6     5    1
    70     6     7   ar
    71   109   108    1
    72   109   111   ar
    73   113   111   ar
    74    48    49    2
    75   159   167   am
    76   159   158    1
    77   156   155   ar
    78   152   151   ar
    79   115   116    1
    80     9     7   ar
    81   119   116    1
    82   117   116    1
    83   117   118    2
    84   161   158    1
    85   161   162    1
    86    87    86    2
    87    90    88    1
    88   158   157    1
    89    91    89    1
    90    89    88    1
    91   155   153   ar
    92   151   153   ar
    93   151   150    1
    94    61    59   ar
    95    85    88    1
    96    85    86    1
    97    85    84    1
    98   149   148    2
    99    54    55    1
   100    86    92   am
   101   162   163   ar
   102   162   164   ar
   103    59    60   ar
   104    59    58    1
   105   150   147    1
   106   147   148    1
   107   147   146    1
   108   163   165   ar
   109    95    94    2
   110   145   144    1
   111   143   142    2
   112    58    55    1
   113   164   166   ar
   114    55    56    1
   115    94    93    1
   116    92    93    1
   117   146   142   am
   118    93    96    1
   119   130   128    1
   120   142   141    1
   121   165   166   ar
   122    67    66    1
   123    67    68    1
   124    77    75    1
   125   100    98   ar
   126   100   102   ar
   127    62    56   am
   128    62    63    1
   129    98    97   ar
   130   144   141    1
   131    66    63    1
   132   103   102    1
   133    56    57    2
   134    78    76    1
   135   129   128    1
   136   102   101   ar
   137    74    73    2
   138   126   125    2
   139   141   140    1
   140   128   127    1
   141    97    96    1
   142    97    99   ar
   143   138   137    2
   144    70    68   am
   145    63    64    1
   146    68    69    2
   147   127   124    1
   148    76    75    1
   149   101    99   ar
   150    75    72    1
   151    64    65    2
   152    73    72    1
   153    73    79   am
   154   125   124    1
   155   125   131   am
   156   124   123    1
   157   139   137   am
   158    82    81    2
   159    72    71    1
   160   137   136    1
   161   134   133    2
   162    80    79    1
   163    80    81    1
   164    80    83    1
   165   131   132    1
   166   132   133    1
   167   132   135    1
   168   136   135    1
