@<TRIPOS>MOLECULE
tmp/5tz6A00.pdb
 163 157 0 0 0
SMALL
GASTEIGER

@<TRIPOS>ATOM
      1  N        -25.2790   -2.9440    9.2090 N.3    36  PHE36      -0.1241
      2  CA       -24.8300   -3.9040    8.2090 C.3    36  PHE36       0.1605
      3  C        -25.1890   -5.2860    8.7460 C.2    36  PHE36       0.2264
      4  O        -24.4130   -5.8860    9.4940 O.2    36  PHE36      -0.2867
      5  CB       -23.3210   -3.7700    7.9120 C.3    36  PHE36       0.0534
      6  CG       -22.9130   -4.4080    6.6150 C.ar   36  PHE36      -0.0203
      7  CD1      -22.6710   -5.7720    6.5360 C.ar   36  PHE36      -0.0042
      8  CD2      -22.8210   -3.6520    5.4590 C.ar   36  PHE36      -0.0042
      9  CE1      -22.3160   -6.3650    5.3280 C.ar   36  PHE36      -0.0003
     10  CE2      -22.4700   -4.2350    4.2480 C.ar   36  PHE36      -0.0003
     11  CZ       -22.2210   -5.5930    4.1820 C.ar   36  PHE36      -0.0000
     12  N        -26.2550   -9.1640    8.0590 N.3    38  VAL38      -0.1245
     13  CA       -26.2100  -10.2670    7.1000 C.3    38  VAL38       0.1561
     14  C        -26.8260  -11.4910    7.7640 C.2    38  VAL38       0.2260
     15  O        -26.3210  -11.9650    8.7900 O.2    38  VAL38      -0.2867
     16  CB       -24.7790  -10.5600    6.6260 C.3    38  VAL38       0.0252
     17  CG1      -24.7890  -11.6320    5.5520 C.3    38  VAL38       0.0019
     18  CG2      -24.1240   -9.2870    6.1080 C.3    38  VAL38       0.0019
     19  N        -22.2350   -7.8280   10.9700 N.3    43  VAL43      -0.1231
     20  CA       -21.0400   -8.2080   10.2310 C.3    43  VAL43       0.1692
     21  C        -20.2650   -6.9510    9.8820 C.2    43  VAL43       0.2592
     22  O        -20.8490   -5.9320    9.4930 O.2    43  VAL43      -0.2718
     23  CB       -21.3840   -9.0070    8.9570 C.3    43  VAL43       0.0266
     24  CG1      -20.1510   -9.1450    8.0700 C.3    43  VAL43       0.0020
     25  CG2      -21.9220  -10.3790    9.3220 C.3    43  VAL43       0.0020
     26  N        -18.9420   -7.0190   10.0260 N.am   44  VAL44      -0.1966
     27  CA       -18.0460   -5.9430    9.6430 C.3    44  VAL44       0.1712
     28  C        -17.5740   -6.2170    8.2200 C.2    44  VAL44       0.2458
     29  O        -16.8360   -7.2000    8.0130 O.2    44  VAL44      -0.2730
     30  CB       -16.8560   -5.8280   10.6000 C.3    44  VAL44       0.0289
     31  CG1      -15.9190   -4.7310   10.1310 C.3    44  VAL44       0.0023
     32  CG2      -17.3380   -5.5700   12.0160 C.3    44  VAL44       0.0023
     33  N        -17.9370   -5.4090    7.2360 N.am   45  PRO45      -0.2716
     34  CA       -17.4800   -5.6530    5.8690 C.3    45  PRO45       0.1536
     35  C        -16.0080   -5.2990    5.6910 C.2    45  PRO45       0.2599
     36  O        -15.4120   -4.5680    6.4860 O.2    45  PRO45      -0.2715
     37  CB       -18.3810   -4.7410    5.0310 C.3    45  PRO45       0.0310
     38  CG       -18.7250   -3.6180    5.9580 C.3    45  PRO45       0.0237
     39  CD       -18.8390   -4.2400    7.3230 C.3    45  PRO45       0.0939
     40  N        -15.4260   -5.8390    4.6150 N.am   46  GLY46      -0.1955
     41  CA       -14.0230   -5.5650    4.3170 C.3    46  GLY46       0.1869
     42  C        -13.7200   -4.0780    4.2320 C.2    46  GLY46       0.2309
     43  O        -12.7060   -3.6000    4.7590 O.2    46  GLY46      -0.2863
     44  N        -14.6230  -13.2910    7.1770 N.3    76  ALA76      -0.1245
     45  CA       -15.4860  -12.1990    7.6030 C.3    76  ALA76       0.1562
     46  C        -15.5460  -12.1180    9.1230 C.2    76  ALA76       0.2260
     47  O        -15.4600  -13.1270    9.8280 O.2    76  ALA76      -0.2867
     48  CB       -16.8970  -12.3800    7.0440 C.3    76  ALA76       0.0290
     49  N        -29.7040   -6.0150   -2.6740 N.3   154  LEU154     -0.1245
     50  CA       -28.9900   -6.5710   -1.5340 C.3   154  LEU154      0.1561
     51  C        -29.9640   -7.1390   -0.5140 C.2   154  LEU154      0.2260
     52  O        -29.7190   -8.2110    0.0540 O.2   154  LEU154     -0.2867
     53  CB       -28.0920   -5.5000   -0.9060 C.3   154  LEU154      0.0270
     54  CG       -26.8790   -5.0870   -1.7490 C.3   154  LEU154      0.0019
     55  CD1      -26.1650   -3.9180   -1.1060 C.3   154  LEU154      0.0001
     56  CD2      -25.9100   -6.2570   -1.9430 C.3   154  LEU154      0.0001
     57  N        -28.8590   -9.2190    2.8100 N.3   159  ILE159     -0.1245
     58  CA       -27.9230   -8.1770    3.2090 C.3   159  ILE159      0.1561
     59  C        -28.7570   -6.9250    3.4480 C.2   159  ILE159      0.2260
     60  O        -29.0880   -6.1880    2.5140 O.2   159  ILE159     -0.2867
     61  CB       -26.8220   -7.9560    2.1690 C.3   159  ILE159      0.0252
     62  CG1      -26.0130   -9.2400    1.9840 C.3   159  ILE159      0.0019
     63  CG2      -25.9010   -6.8380    2.6170 C.3   159  ILE159      0.0019
     64  CD1      -25.0380   -9.1880    0.8350 C.3   159  ILE159      0.0001
     65  N        -17.7230    1.2630    1.8550 N.3   202  ASP202     -0.1239
     66  CA       -18.6680    0.2280    1.4730 C.3   202  ASP202      0.1674
     67  C        -19.5730    0.7080    0.3540 C.2   202  ASP202      0.2266
     68  O        -19.8030   -0.0210   -0.6140 O.2   202  ASP202     -0.2867
     69  CB       -19.5000   -0.2210    2.6660 C.3   202  ASP202      0.1410
     70  CG       -20.1960   -1.5400    2.4080 C.2   202  ASP202      0.3668
     71  OD1      -19.5150   -2.5860    2.4660 O.co2 202  ASP202     -0.2456
     72  OD2      -21.4170   -1.5290    2.1280 O.co2 202  ASP202     -0.2456
     73  N        -17.9670    0.2260   -2.8760 N.3   205  PHE205     -0.1227
     74  CA       -18.0830   -1.1480   -3.3640 C.3   205  PHE205      0.1736
     75  C        -19.5050   -1.4890   -3.8090 C.2   205  PHE205      0.2595
     76  O        -19.6860   -2.3100   -4.7170 O.2   205  PHE205     -0.2718
     77  CB       -17.6110   -2.1350   -2.2980 C.3   205  PHE205      0.0547
     78  CG       -16.1700   -1.9650   -1.9100 C.ar  205  PHE205     -0.0202
     79  CD1      -15.3030   -1.2390   -2.7130 C.ar  205  PHE205     -0.0042
     80  CD2      -15.6750   -2.5470   -0.7520 C.ar  205  PHE205     -0.0042
     81  CE1      -13.9760   -1.0760   -2.3590 C.ar  205  PHE205     -0.0003
     82  CE2      -14.3500   -2.3960   -0.3930 C.ar  205  PHE205     -0.0003
     83  CZ       -13.4990   -1.6570   -1.1980 C.ar  205  PHE205     -0.0000
     84  N        -20.5220   -0.8650   -3.1990 N.am  206  GLN206     -0.1979
     85  CA       -21.9080   -1.1360   -3.5740 C.3   206  GLN206      0.1601
     86  C        -22.2070   -0.6570   -4.9820 C.2   206  GLN206      0.2287
     87  O        -23.1220   -1.1770   -5.6310 O.2   206  GLN206     -0.2864
     88  CB       -22.8810   -0.4570   -2.6140 C.3   206  GLN206      0.0394
     89  CG       -22.7830   -0.8630   -1.1670 C.3   206  GLN206      0.0908
     90  CD       -23.5750    0.0800   -0.2870 C.2   206  GLN206      0.2608
     91  OE1      -24.4900    0.7480   -0.7590 O.2   206  GLN206     -0.2717
     92  NE2      -23.2140    0.1590    0.9880 N.am  206  GLN206     -0.0878
     93  N        -20.8650   -1.2820   -7.6570 N.3   208  ILE208     -0.1231
     94  CA       -20.7450   -2.3000   -8.6970 C.3   208  ILE208      0.1692
     95  C        -22.0450   -3.0640   -8.8500 C.2   208  ILE208      0.2591
     96  O        -22.3300   -3.5900   -9.9320 O.2   208  ILE208     -0.2718
     97  CB       -19.5900   -3.2890   -8.4320 C.3   208  ILE208      0.0266
     98  CG1      -20.0660   -4.4390   -7.5470 C.3   208  ILE208      0.0019
     99  CG2      -18.3740   -2.5820   -7.8360 C.3   208  ILE208      0.0020
    100  CD1      -19.5670   -5.7900   -8.0140 C.3   208  ILE208      0.0001
    101  N        -22.8600   -3.1160   -7.7970 N.am  209  ILE209     -0.1980
    102  CA       -24.1260   -3.8270   -7.8880 C.3   209  ILE209      0.1595
    103  C        -24.9550   -3.2720   -9.0340 C.2   209  ILE209      0.2287
    104  O        -25.7580   -3.9940   -9.6380 O.2   209  ILE209     -0.2864
    105  CB       -24.8870   -3.7270   -6.5520 C.3   209  ILE209      0.0276
    106  CG1      -24.1890   -4.5490   -5.4660 C.3   209  ILE209      0.0022
    107  CG2      -26.3520   -4.1410   -6.7300 C.3   209  ILE209      0.0022
    108  CD1      -24.0020   -6.0110   -5.8260 C.3   209  ILE209      0.0001
    109  N        -24.7070  -13.0590   -4.4210 N.3   222  THR222     -0.1203
    110  CA       -24.3290  -11.7730   -4.9830 C.3   222  THR222      0.1994
    111  C        -22.8110  -11.7080   -5.0450 C.2   222  THR222      0.2618
    112  O        -22.1130  -12.5550   -4.4800 O.2   222  THR222     -0.2717
    113  CB       -24.8990  -10.6110   -4.1550 C.3   222  THR222      0.1784
    114  OG1      -24.6620   -9.3730   -4.8370 O.3   222  THR222     -0.2211
    115  CG2      -24.2660  -10.5750   -2.7670 C.3   222  THR222      0.0376
    116  N        -22.2930  -10.6920   -5.7360 N.am  223  PHE223     -0.1961
    117  CA       -20.8490  -10.4920   -5.8100 C.3   223  PHE223      0.1771
    118  C        -20.3760   -9.8590   -4.5060 C.2   223  PHE223      0.2619
    119  O        -20.8170   -8.7650   -4.1480 O.2   223  PHE223     -0.2715
    120  CB       -20.4780   -9.6170   -7.0090 C.3   223  PHE223      0.0574
    121  CG       -20.6960  -10.2860   -8.3440 C.ar  223  PHE223     -0.0200
    122  CD1      -19.7920  -11.2220   -8.8230 C.ar  223  PHE223     -0.0042
    123  CD2      -21.8070   -9.9820   -9.1190 C.ar  223  PHE223     -0.0042
    124  CE1      -19.9900  -11.8460  -10.0470 C.ar  223  PHE223     -0.0003
    125  CE2      -22.0130  -10.6030  -10.3440 C.ar  223  PHE223     -0.0003
    126  CZ       -21.1000  -11.5380  -10.8080 C.ar  223  PHE223     -0.0000
    127  N        -19.4850  -10.5440   -3.7990 N.am  224  VAL224     -0.1964
    128  CA       -18.9470  -10.0390   -2.5380 C.3   224  VAL224      0.1712
    129  C        -17.5020   -9.5960   -2.7470 C.2   224  VAL224      0.2458
    130  O        -16.7530  -10.2490   -3.4890 O.2   224  VAL224     -0.2730
    131  CB       -19.0590  -11.0870   -1.4230 C.3   224  VAL224      0.0289
    132  CG1      -18.6000  -10.4940   -0.0980 C.3   224  VAL224      0.0023
    133  CG2      -20.4940  -11.5710   -1.3200 C.3   224  VAL224      0.0023
    134  N        -17.0830   -8.4760   -2.1620 N.am  225  PRO225     -0.2727
    135  CA       -15.6970   -8.0270   -2.3450 C.3   225  PRO225      0.1402
    136  C        -14.7210   -9.1050   -1.9090 C.2   225  PRO225      0.2269
    137  O        -14.8100   -9.6420   -0.8020 O.2   225  PRO225     -0.2865
    138  CB       -15.6090   -6.7860   -1.4550 C.3   225  PRO225      0.0296
    139  CG       -17.0090   -6.2500   -1.4480 C.3   225  PRO225      0.0237
    140  CD       -17.9140   -7.4600   -1.4910 C.3   225  PRO225      0.0939
    141  N        -23.9010  -15.0200    1.1060 N.3   285  PRO285     -0.2116
    142  CA       -23.3440  -14.4140    2.3260 C.3   285  PRO285      0.1372
    143  C        -23.4670  -15.3060    3.5420 C.2   285  PRO285      0.2244
    144  O        -22.6390  -15.2010    4.4680 O.2   285  PRO285     -0.2868
    145  CB       -24.1640  -13.1250    2.4800 C.3   285  PRO285      0.0268
    146  CG       -24.6040  -12.8010    1.0800 C.3   285  PRO285      0.0207
    147  CD       -24.8910  -14.1450    0.4550 C.3   285  PRO285      0.0892
    148  N        -20.1980  -17.1530    3.8230 N.3   288  LEU288     -0.1231
    149  CA       -19.1410  -16.2910    4.3330 C.3   288  LEU288      0.1693
    150  C        -19.2460  -16.1360    5.8400 C.2   288  LEU288      0.2591
    151  O        -18.2220  -16.0320    6.5230 O.2   288  LEU288     -0.2718
    152  CB       -19.1740  -14.9240    3.6520 C.3   288  LEU288      0.0284
    153  CG       -18.3290  -14.7840    2.3800 C.3   288  LEU288      0.0019
    154  CD1      -18.6260  -15.8990    1.3830 C.3   288  LEU288      0.0001
    155  CD2      -18.5430  -13.4140    1.7430 C.3   288  LEU288      0.0001
    156  N        -20.4660  -16.1150    6.3810 N.am  289  LEU289     -0.1980
    157  CA       -20.6090  -15.8110    7.8000 C.3   289  LEU289      0.1596
    158  C        -20.2410  -16.9750    8.7140 C.2   289  LEU289      0.2287
    159  O        -20.3290  -16.8170    9.9370 O.2   289  LEU289     -0.2864
    160  CB       -22.0350  -15.3550    8.0990 C.3   289  LEU289      0.0297
    161  CG       -22.4030  -14.0910    7.3310 C.3   289  LEU289      0.0022
    162  CD1      -23.6660  -13.4690    7.9030 C.3   289  LEU289      0.0001
    163  CD2      -21.2310  -13.1150    7.3610 C.3   289  LEU289      0.0001
@<TRIPOS>BOND
     1   126   125   ar
     2   126   124   ar
     3   125   123   ar
     4   124   122   ar
     5    96    95    2
     6   104   103    2
     7   123   121   ar
     8   103   102    1
     9    95    94    1
    10    95   101   am
    11   122   121   ar
    12    94    97    1
    13    94    93    1
    14    97    99    1
    15    97    98    1
    16   121   120    1
    17   100    98    1
    18   102   101    1
    19   102   105    1
    20   120   117    1
    21   107   105    1
    22   105   106    1
    23   108   106    1
    24   117   116    1
    25   117   118    1
    26   116   111   am
    27    87    86    2
    28   111   110    1
    29   111   112    2
    30   110   109    1
    31   110   113    1
    32    86    85    1
    33   114   113    1
    34    76    75    2
    35   118   119    2
    36   118   127   am
    37   113   115    1
    38    75    74    1
    39    75    84   am
    40   127   128    1
    41    85    84    1
    42    85    88    1
    43   130   129    2
    44    74    73    1
    45    74    77    1
    46   129   128    1
    47   129   134   am
    48    79    81   ar
    49    79    78   ar
    50    49    50    1
    51    88    89    1
    52   128   131    1
    53    81    83   ar
    54   135   134    1
    55   135   136    1
    56   135   138    1
    57    77    78    1
    58   134   140    1
    59    56    54    1
    60    78    80   ar
    61   136   137    2
    62    54    55    1
    63    54    53    1
    64    50    53    1
    65    50    51    1
    66   140   139    1
    67   138   139    1
    68   131   133    1
    69   131   132    1
    70    83    82   ar
    71    89    90    1
    72    91    90    2
    73    80    82   ar
    74    68    67    2
    75    51    52    2
    76    90    92   am
    77    67    66    1
    78   147   146    1
    79   147   141    1
    80    64    62    1
    81   146   145    1
    82   141   142    1
    83   154   153    1
    84    66    65    1
    85    66    69    1
    86   155   153    1
    87    62    61    1
    88    72    70   ar
    89    61    63    1
    90    61    58    1
    91   142   145    1
    92   142   143    1
    93   153   152    1
    94    70    71   ar
    95    70    69    1
    96    60    59    2
    97    57    58    1
    98    58    59    1
    99   143   144    2
   100   152   149    1
   101   148   149    1
   102    11    10   ar
   103    11     9   ar
   104    42    41    1
   105    42    43    2
   106    10     8   ar
   107    41    40    1
   108   149   150    1
   109    40    35   am
   110    37    34    1
   111    37    38    1
   112     9     7   ar
   113     8     6   ar
   114    17    16    1
   115    35    34    1
   116    35    36    2
   117   150   156   am
   118   150   151    2
   119    34    33    1
   120    38    39    1
   121    18    16    1
   122   156   157    1
   123     7     6   ar
   124     6     5    1
   125    16    13    1
   126    48    45    1
   127    13    14    1
   128    13    12    1
   129    44    45    1
   130    33    39    1
   131    33    28   am
   132   161   163    1
   133   161   162    1
   134   161   160    1
   135    45    46    1
   136    14    15    2
   137   157   160    1
   138   157   158    1
   139     5     2    1
   140    29    28    2
   141    24    23    1
   142     2     3    1
   143     2     1    1
   144    28    27    1
   145   158   159    2
   146     3     4    2
   147    23    25    1
   148    23    20    1
   149    46    47    2
   150    22    21    2
   151    27    26    1
   152    27    30    1
   153    21    26   am
   154    21    20    1
   155    31    30    1
   156    20    19    1
   157    30    32    1
