@<TRIPOS>MOLECULE
tmp/5tzaC00.pdb
 157 151 0 0 0
SMALL
GASTEIGER

@<TRIPOS>ATOM
      1  N         37.9590  -42.9040  -40.6230 N.3    67  TYR67      -0.1227
      2  CA        39.0810  -41.9680  -40.6770 C.3    67  TYR67       0.1736
      3  C         39.8980  -41.8890  -39.3860 C.2    67  TYR67       0.2595
      4  O         41.1230  -42.0200  -39.4260 O.2    67  TYR67      -0.2718
      5  CB        38.6120  -40.5520  -41.0610 C.3    67  TYR67       0.0548
      6  CG        39.7710  -39.5790  -41.1600 C.ar   67  TYR67      -0.0200
      7  CD1       40.6330  -39.6010  -42.2590 C.ar   67  TYR67      -0.0009
      8  CD2       40.0250  -38.6640  -40.1420 C.ar   67  TYR67      -0.0009
      9  CE1       41.7000  -38.7290  -42.3460 C.ar   67  TYR67       0.0417
     10  CE2       41.0900  -37.7780  -40.2190 C.ar   67  TYR67       0.0417
     11  CZ        41.9240  -37.8130  -41.3220 C.ar   67  TYR67       0.1957
     12  OH        42.9840  -36.9250  -41.3710 O.3    67  TYR67      -0.2866
     13  N         39.2360  -41.6520  -38.2490 N.am   68  HIS68      -0.1975
     14  CA        39.9800  -41.4070  -37.0030 C.3    68  HIS68       0.1656
     15  C         40.4210  -42.7080  -36.3120 C.2    68  HIS68       0.2291
     16  O         39.9790  -43.0330  -35.2110 O.2    68  HIS68      -0.2864
     17  CB        39.1430  -40.5350  -36.0570 C.3    68  HIS68       0.0771
     18  CG        39.0130  -39.1080  -36.5080 C.ar   68  HIS68       0.0820
     19  ND1       37.8710  -38.6140  -37.1060 N.ar   68  HIS68      -0.2267
     20  CD2       39.8870  -38.0760  -36.4570 C.ar   68  HIS68       0.1154
     21  CE1       38.0470  -37.3360  -37.3960 C.ar   68  HIS68       0.1986
     22  NE2       39.2660  -36.9880  -37.0230 N.ar   68  HIS68      -0.2212
     23  N         39.8560  -28.3290  -33.9290 N.3   182  LEU182     -0.1245
     24  CA        39.8630  -27.2420  -34.9270 C.3   182  LEU182      0.1561
     25  C         39.2510  -25.9560  -34.3750 C.2   182  LEU182      0.2260
     26  O         39.6250  -24.8660  -34.7990 O.2   182  LEU182     -0.2867
     27  CB        39.1460  -27.6500  -36.2230 C.3   182  LEU182      0.0270
     28  CG        40.0490  -28.3920  -37.2130 C.3   182  LEU182      0.0019
     29  CD1       39.2730  -28.8800  -38.4270 C.3   182  LEU182      0.0001
     30  CD2       41.2500  -27.5380  -37.6400 C.3   182  LEU182      0.0001
     31  N         48.1030  -32.9700  -38.2360 N.3   220  ASP220     -0.1225
     32  CA        46.7390  -33.5140  -38.2520 C.3   220  ASP220      0.1805
     33  C         46.1260  -33.4920  -39.6580 C.2   220  ASP220      0.2597
     34  O         45.3810  -34.4050  -40.0300 O.2   220  ASP220     -0.2718
     35  CB        45.8270  -32.7390  -37.2740 C.3   220  ASP220      0.1424
     36  CG        44.7930  -33.6310  -36.5840 C.2   220  ASP220      0.3668
     37  OD1       44.6400  -34.8240  -36.9290 O.co2 220  ASP220     -0.2456
     38  OD2       44.1330  -33.1280  -35.6660 O.co2 220  ASP220     -0.2456
     39  N         46.4170  -32.4420  -40.4240 N.am  221  LEU221     -0.1979
     40  CA        45.8090  -32.2610  -41.7510 C.3   221  LEU221      0.1596
     41  C         46.7220  -32.7240  -42.8880 C.2   221  LEU221      0.2287
     42  O         46.4060  -32.5260  -44.0620 O.2   221  LEU221     -0.2864
     43  CB        45.4410  -30.7930  -41.9570 C.3   221  LEU221      0.0297
     44  CG        44.3830  -30.2890  -40.9700 C.3   221  LEU221      0.0022
     45  CD1       43.8640  -28.9070  -41.3460 C.3   221  LEU221      0.0001
     46  CD2       43.2120  -31.2480  -40.8530 C.3   221  LEU221      0.0001
     47  N         47.4870  -35.3350  -44.5190 N.3   223  ASP223     -0.1225
     48  CA        46.9950  -36.1310  -45.6580 C.3   223  ASP223      0.1805
     49  C         46.8070  -35.2490  -46.8930 C.2   223  ASP223      0.2597
     50  O         46.9950  -35.6900  -48.0350 O.2   223  ASP223     -0.2718
     51  CB        45.6620  -36.8080  -45.3400 C.3   223  ASP223      0.1424
     52  CG        45.7910  -38.0070  -44.4220 C.2   223  ASP223      0.3668
     53  OD1       46.8060  -38.7390  -44.4680 O.co2 223  ASP223     -0.2456
     54  OD2       44.8150  -38.2480  -43.6840 O.co2 223  ASP223     -0.2456
     55  N         46.4300  -33.9930  -46.6670 N.am  224  GLN224     -0.1979
     56  CA        46.1490  -33.0910  -47.7780 C.3   224  GLN224      0.1601
     57  C         47.4150  -32.5710  -48.4620 C.2   224  GLN224      0.2287
     58  O         47.3250  -31.8920  -49.4840 O.2   224  GLN224     -0.2864
     59  CB        45.2980  -31.9070  -47.3140 C.3   224  GLN224      0.0394
     60  CG        43.9370  -32.2880  -46.7970 C.3   224  GLN224      0.0908
     61  CD        43.0880  -33.0000  -47.8400 C.2   224  GLN224      0.2608
     62  OE1       43.3400  -32.9030  -49.0440 O.2   224  GLN224     -0.2717
     63  NE2       42.0790  -33.7320  -47.3730 N.am  224  GLN224     -0.0878
     64  N         41.0990  -40.0520  -48.7640 N.3   234  ILE234     -0.1231
     65  CA        40.8180  -39.5150  -47.4340 C.3   234  ILE234      0.1692
     66  C         39.4370  -38.8440  -47.4290 C.2   234  ILE234      0.2591
     67  O         38.7030  -38.9210  -46.4460 O.2   234  ILE234     -0.2718
     68  CB        41.9380  -38.5370  -46.9740 C.3   234  ILE234      0.0266
     69  CG1       43.0150  -39.2920  -46.1930 C.3   234  ILE234      0.0019
     70  CG2       41.3840  -37.4630  -46.0550 C.3   234  ILE234      0.0020
     71  CD1       43.5310  -40.5450  -46.8560 C.3   234  ILE234      0.0001
     72  N         39.0630  -38.2110  -48.5370 N.am  235  ALA235     -0.1980
     73  CA        37.7210  -37.6410  -48.6420 C.3   235  ALA235      0.1597
     74  C         36.6830  -38.7490  -48.5120 C.2   235  ALA235      0.2287
     75  O         35.6730  -38.5960  -47.8360 O.2   235  ALA235     -0.2864
     76  CB        37.5400  -36.9060  -49.9590 C.3   235  ALA235      0.0319
     77  N         36.6220  -39.6570  -44.7240 N.3   238  ILE238     -0.1231
     78  CA        36.0470  -38.5670  -43.9360 C.3   238  ILE238      0.1692
     79  C         34.5240  -38.5120  -44.1290 C.2   238  ILE238      0.2592
     80  O         33.7670  -38.4180  -43.1520 O.2   238  ILE238     -0.2718
     81  CB        36.6600  -37.2090  -44.3420 C.3   238  ILE238      0.0266
     82  CG1       38.1180  -37.1050  -43.8870 C.3   238  ILE238      0.0019
     83  CG2       35.8440  -36.0520  -43.7980 C.3   238  ILE238      0.0020
     84  CD1       38.2760  -36.6910  -42.4400 C.3   238  ILE238      0.0001
     85  N         34.0660  -38.5580  -45.3790 N.am  239  TYR239     -0.1976
     86  CA        32.6340  -38.4110  -45.6010 C.3   239  TYR239      0.1639
     87  C         31.8740  -39.6740  -45.1790 C.2   239  TYR239      0.2290
     88  O         30.7650  -39.5620  -44.6680 O.2   239  TYR239     -0.2864
     89  CB        32.3510  -37.9900  -47.0550 C.3   239  TYR239      0.0560
     90  CG        32.7540  -36.5320  -47.2330 C.ar  239  TYR239     -0.0198
     91  CD1       32.0440  -35.5170  -46.5920 C.ar  239  TYR239     -0.0009
     92  CD2       33.8870  -36.1800  -47.9550 C.ar  239  TYR239     -0.0009
     93  CE1       32.4320  -34.1830  -46.7020 C.ar  239  TYR239      0.0417
     94  CE2       34.2800  -34.8570  -48.0740 C.ar  239  TYR239      0.0417
     95  CZ        33.5530  -33.8660  -47.4400 C.ar  239  TYR239      0.1957
     96  OH        33.9410  -32.5520  -47.5600 O.3   239  TYR239     -0.2866
     97  N         31.6560  -38.9840  -41.4810 N.3   242  PHE242     -0.1241
     98  CA        30.7190  -37.8840  -41.2780 C.3   242  PHE242      0.1605
     99  C         29.2660  -38.2910  -41.5280 C.2   242  PHE242      0.2264
    100  O         28.3800  -37.9830  -40.7330 O.2   242  PHE242     -0.2867
    101  CB        31.0500  -36.7060  -42.1980 C.3   242  PHE242      0.0534
    102  CG        32.1730  -35.8420  -41.7270 C.ar  242  PHE242     -0.0203
    103  CD1       32.8990  -36.1490  -40.5880 C.ar  242  PHE242     -0.0042
    104  CD2       32.4770  -34.6850  -42.4200 C.ar  242  PHE242     -0.0042
    105  CE1       33.9330  -35.3200  -40.1580 C.ar  242  PHE242     -0.0003
    106  CE2       33.4940  -33.8540  -42.0010 C.ar  242  PHE242     -0.0003
    107  CZ        34.2270  -34.1690  -40.8690 C.ar  242  PHE242     -0.0000
    108  N         27.6660  -30.9140  -44.0860 N.3   259  MET259     -0.1245
    109  CA        28.7420  -31.8070  -44.4890 C.3   259  MET259      0.1570
    110  C         28.5740  -33.2070  -43.8890 C.2   259  MET259      0.2261
    111  O         29.2790  -34.1310  -44.2830 O.2   259  MET259     -0.2867
    112  CB        30.1000  -31.2290  -44.1030 C.3   259  MET259      0.0387
    113  CG        30.3820  -31.2470  -42.6130 C.3   259  MET259      0.0595
    114  SD        31.9860  -30.5170  -42.2740 S.3   259  MET259     -0.1393
    115  CE        32.1460  -30.7960  -40.5200 C.3   259  MET259      0.0692
    116  N         32.2680  -28.7630  -50.7970 N.3   270  LEU270     -0.1231
    117  CA        32.6530  -28.8920  -49.3920 C.3   270  LEU270      0.1693
    118  C         34.1650  -29.0420  -49.2720 C.2   270  LEU270      0.2591
    119  O         34.8030  -28.3830  -48.4420 O.2   270  LEU270     -0.2718
    120  CB        31.9620  -30.0860  -48.7360 C.3   270  LEU270      0.0284
    121  CG        30.4590  -29.9040  -48.5010 C.3   270  LEU270      0.0019
    122  CD1       29.8170  -31.1920  -48.0330 C.3   270  LEU270      0.0001
    123  CD2       30.2210  -28.7880  -47.4980 C.3   270  LEU270      0.0001
    124  N         34.7360  -29.9080  -50.1040 N.am  271  GLN271     -0.1979
    125  CA        36.1780  -30.1160  -50.0780 C.3   271  GLN271      0.1601
    126  C         36.9160  -28.8530  -50.4900 C.2   271  GLN271      0.2287
    127  O         37.9230  -28.4980  -49.8900 O.2   271  GLN271     -0.2864
    128  CB        36.5860  -31.2710  -50.9860 C.3   271  GLN271      0.0394
    129  CG        36.5290  -32.6260  -50.3380 C.3   271  GLN271      0.0908
    130  CD        37.1280  -32.6300  -48.9550 C.2   271  GLN271      0.2608
    131  OE1       36.4270  -32.3870  -47.9800 O.2   271  GLN271     -0.2717
    132  NE2       38.4240  -32.8860  -48.8610 N.am  271  GLN271     -0.0878
    133  N         35.9360  -25.8560  -50.1230 N.3   273  SER273     -0.1202
    134  CA        35.8120  -24.9180  -49.0190 C.3   273  SER273      0.2020
    135  C         36.7860  -25.2570  -47.8990 C.2   273  SER273      0.2618
    136  O         37.4550  -24.3710  -47.3620 O.2   273  SER273     -0.2717
    137  CB        34.3760  -24.9040  -48.4890 C.3   273  SER273      0.2103
    138  OG        34.2390  -23.9920  -47.4100 O.3   273  SER273     -0.2182
    139  N         36.8660  -26.5360  -47.5410 N.am  274  PHE274     -0.1975
    140  CA        37.7940  -26.9530  -46.4910 C.3   274  PHE274      0.1639
    141  C         39.2260  -26.6270  -46.8780 C.2   274  PHE274      0.2290
    142  O         40.0040  -26.0980  -46.0760 O.2   274  PHE274     -0.2864
    143  CB        37.6820  -28.4470  -46.2020 C.3   274  PHE274      0.0560
    144  CG        38.6770  -28.9260  -45.1760 C.ar  274  PHE274     -0.0200
    145  CD1       38.5170  -28.5920  -43.8360 C.ar  274  PHE274     -0.0042
    146  CD2       39.7710  -29.6890  -45.5550 C.ar  274  PHE274     -0.0042
    147  CE1       39.4380  -29.0150  -42.8840 C.ar  274  PHE274     -0.0003
    148  CE2       40.6930  -30.1140  -44.6130 C.ar  274  PHE274     -0.0003
    149  CZ        40.5220  -29.7800  -43.2850 C.ar  274  PHE274     -0.0000
    150  N         40.4450  -23.4560  -44.7170 N.3   278  ILE278     -0.1245
    151  CA        41.0540  -24.0160  -43.5190 C.3   278  ILE278      0.1561
    152  C         42.4470  -24.5880  -43.7930 C.2   278  ILE278      0.2260
    153  O         43.4150  -24.1680  -43.1660 O.2   278  ILE278     -0.2867
    154  CB        40.1660  -25.0970  -42.8900 C.3   278  ILE278      0.0252
    155  CG1       38.8430  -24.4550  -42.4430 C.3   278  ILE278      0.0019
    156  CG2       40.8770  -25.7540  -41.6970 C.3   278  ILE278      0.0019
    157  CD1       37.9860  -25.3260  -41.5670 C.3   278  ILE278      0.0001
@<TRIPOS>BOND
     1   128   129    1
     2   128   125    1
     3   116   117    1
     4   126   125    1
     5   126   127    2
     6   129   130    1
     7   133   134    1
     8   124   125    1
     9   124   118   am
    10    76    73    1
    11    58    57    2
    12   117   118    1
    13   117   120    1
    14   118   119    2
    15    62    61    2
    16   134   137    1
    17   134   135    1
    18   130   132   am
    19   130   131    2
    20    64    65    1
    21   120   121    1
    22    73    72    1
    23    73    74    1
    24    72    66   am
    25    74    75    2
    26   121   122    1
    27   121   123    1
    28   137   138    1
    29    57    56    1
    30    94    92   ar
    31    94    95   ar
    32    50    49    2
    33    92    90   ar
    34   135   139   am
    35   135   136    2
    36    61    63   am
    37    61    60    1
    38    56    59    1
    39    56    55    1
    40    96    95    1
    41   139   140    1
    42    95    93   ar
    43    65    66    1
    44    65    68    1
    45    66    67    2
    46    59    60    1
    47    90    89    1
    48    90    91   ar
    49    89    86    1
    50    68    69    1
    51    68    70    1
    52    49    55   am
    53    49    48    1
    54   141   140    1
    55   141   142    2
    56    71    69    1
    57    93    91   ar
    58   140   143    1
    59   143   144    1
    60    48    51    1
    61    48    47    1
    62    86    85    1
    63    86    87    1
    64   146   144   ar
    65   146   148   ar
    66    85    79   am
    67    51    52    1
    68    87    88    2
    69   144   145   ar
    70    77    78    1
    71   150   151    1
    72   148   149   ar
    73   109   112    1
    74   109   108    1
    75   109   110    1
    76    53    52   ar
    77    52    54   ar
    78    81    78    1
    79    81    82    1
    80    81    83    1
    81   111   110    2
    82    79    78    1
    83    79    80    2
    84   112   113    1
    85    42    41    2
    86    82    84    1
    87   145   147   ar
    88   152   151    1
    89   152   153    2
    90   151   154    1
    91   149   147   ar
    92   154   155    1
    93   154   156    1
    94    41    40    1
    95   113   114    1
    96   155   157    1
    97   104   106   ar
    98   104   102   ar
    99     9     7   ar
   100     9    11   ar
   101   114   115    1
   102     7     6   ar
   103   101   102    1
   104   101    98    1
   105   106   107   ar
   106    43    40    1
   107    43    44    1
   108    40    39    1
   109   102   103   ar
   110    99    98    1
   111    99   100    2
   112    97    98    1
   113    12    11    1
   114    45    44    1
   115    11    10   ar
   116     6     5    1
   117     6     8   ar
   118     5     2    1
   119    44    46    1
   120   107   105   ar
   121     2     1    1
   122     2     3    1
   123   103   105   ar
   124    39    33   am
   125    10     8   ar
   126    34    33    2
   127    33    32    1
   128     4     3    2
   129     3    13   am
   130    29    28    1
   131    32    31    1
   132    32    35    1
   133    13    14    1
   134    30    28    1
   135    21    19   ar
   136    21    22   ar
   137    35    36    1
   138    28    27    1
   139    19    18   ar
   140    22    20   ar
   141    14    15    1
   142    14    17    1
   143    37    36   ar
   144    36    38   ar
   145    18    20   ar
   146    18    17    1
   147    15    16    2
   148    27    24    1
   149    24    25    1
   150    24    23    1
   151    26    25    2
