@<TRIPOS>MOLECULE
tmp/5tzkA00.pdb
 126 122 0 0 0
SMALL
GASTEIGER

@<TRIPOS>ATOM
      1  N        -92.9640 -110.5990    4.0350 N.3     8  PRO8       -0.2102
      2  CA       -94.2740 -110.2690    3.4540 C.3     8  PRO8        0.1504
      3  C        -94.4230 -108.7530    3.3210 C.2     8  PRO8        0.2576
      4  O        -94.1760 -108.0070    4.2730 O.2     8  PRO8       -0.2718
      5  CB       -95.2610 -110.8430    4.4780 C.3     8  PRO8        0.0282
      6  CG       -94.5410 -110.6190    5.8010 C.3     8  PRO8        0.0208
      7  CD       -93.0390 -110.7690    5.4970 C.3     8  PRO8        0.0893
      8  N        -94.8210 -108.2840    2.1410 N.am    9  THR9       -0.1939
      9  CA       -94.9760 -106.8490    1.9410 C.3     9  THR9        0.2028
     10  C        -96.4000 -106.4970    1.5410 C.2     9  THR9        0.2642
     11  O        -97.1170 -107.3040    0.9440 O.2     9  THR9       -0.2714
     12  CB       -94.0160 -106.3090    0.8760 C.3     9  THR9        0.1808
     13  OG1      -94.2150 -107.0170   -0.3540 O.3     9  THR9       -0.2208
     14  CG2      -92.5600 -106.4170    1.3420 C.3     9  THR9        0.0379
     15  N        -96.7990 -105.2700    1.8750 N.am   10  TYR10      -0.1973
     16  CA       -98.0900 -104.7490    1.4290 C.3    10  TYR10       0.1639
     17  C        -98.0490 -103.2310    1.5380 C.2    10  TYR10       0.2290
     18  O        -98.0700 -102.6930    2.6530 O.2    10  TYR10      -0.2864
     19  CB       -99.2490 -105.3230    2.2380 C.3    10  TYR10       0.0560
     20  CG      -100.5730 -104.7370    1.8000 C.ar   10  TYR10      -0.0198
     21  CD1     -100.9990 -104.8430    0.4770 C.ar   10  TYR10      -0.0009
     22  CD2     -101.3900 -104.0750    2.6950 C.ar   10  TYR10      -0.0009
     23  CE1     -102.2230 -104.3000    0.0600 C.ar   10  TYR10       0.0417
     24  CE2     -102.6040 -103.5260    2.2900 C.ar   10  TYR10       0.0417
     25  CZ      -103.0160 -103.6410    0.9730 C.ar   10  TYR10       0.1957
     26  OH      -104.2220 -103.0900    0.5960 O.3    10  TYR10      -0.2866
     27  N        -95.6250 -101.2200    1.1370 N.3    12  SER12      -0.1217
     28  CA       -94.4850 -100.9480    2.0000 C.3    12  SER12       0.1889
     29  C        -93.4910  -99.9780    1.3670 C.2    12  SER12       0.2288
     30  O        -92.3310  -99.9190    1.7840 O.2    12  SER12      -0.2866
     31  CB       -93.7860 -102.2620    2.3580 C.3    12  SER12       0.2089
     32  OG       -94.7220 -103.2190    2.8260 O.3    12  SER12      -0.2183
     33  N        -91.1250  -97.4160    3.4290 N.3    15  TYR15      -0.1241
     34  CA       -90.2000  -97.8440    4.4630 C.3    15  TYR15       0.1605
     35  C        -89.4310  -99.1180    4.1290 C.2    15  TYR15       0.2264
     36  O        -88.6180  -99.5500    4.9520 O.2    15  TYR15      -0.2867
     37  CB       -90.9560  -98.0240    5.7960 C.3    15  TYR15       0.0534
     38  CG       -92.2490  -98.7990    5.6740 C.ar   15  TYR15      -0.0201
     39  CD1      -92.2330 -100.1860    5.5700 C.ar   15  TYR15      -0.0009
     40  CD2      -93.4890  -98.1480    5.6570 C.ar   15  TYR15      -0.0009
     41  CE1      -93.4110 -100.9140    5.4610 C.ar   15  TYR15       0.0417
     42  CE2      -94.6770  -98.8660    5.5430 C.ar   15  TYR15       0.0417
     43  CZ       -94.6300 -100.2570    5.4450 C.ar   15  TYR15       0.1957
     44  OH       -95.7850 -101.0170    5.3310 O.3    15  TYR15      -0.2866
     45  N        -98.2510 -108.7940   -0.9470 N.3    40  ASP40      -0.1239
     46  CA       -99.6840 -109.0590   -0.7860 C.3    40  ASP40       0.1674
     47  C       -100.5360 -108.1800   -1.6990 C.2    40  ASP40       0.2266
     48  O       -101.4610 -107.5040   -1.2540 O.2    40  ASP40      -0.2867
     49  CB      -100.0910 -108.8840    0.6700 C.3    40  ASP40       0.1410
     50  CG      -101.2390 -109.8070    1.0670 C.2    40  ASP40       0.3668
     51  OD1     -101.8580 -110.4200    0.1730 O.co2  40  ASP40      -0.2456
     52  OD2     -101.5110 -109.9490    2.2760 O.co2  40  ASP40      -0.2456
     53  N       -105.2010 -109.3820   -2.4480 N.3    67  ASN67      -0.1240
     54  CA      -104.6730 -109.1270   -1.1150 C.3    67  ASN67       0.1653
     55  C       -105.2600 -110.1180   -0.1200 C.2    67  ASN67       0.2266
     56  O       -106.4810 -110.2180    0.0190 O.2    67  ASN67      -0.2867
     57  CB      -104.9690 -107.7080   -0.6570 C.3    67  ASN67       0.1155
     58  CG      -104.6170 -107.5170    0.8110 C.2    67  ASN67       0.2627
     59  OD1     -105.4870 -107.5980    1.6890 O.2    67  ASN67      -0.2716
     60  ND2     -103.3200 -107.3330    1.0900 N.am   67  ASN67      -0.0877
     61  N       -104.9930 -109.9380    3.0880 N.3    69  GLY69      -0.1210
     62  CA      -105.3520 -109.2340    4.3060 C.3    69  GLY69       0.1956
     63  C       -104.4480 -109.4680    5.4950 C.2    69  GLY69       0.2612
     64  O       -104.7760 -109.0110    6.5960 O.2    69  GLY69      -0.2717
     65  N       -103.3280 -110.1610    5.3260 N.am   70  GLY70      -0.1942
     66  CA      -102.4550 -110.4410    6.4400 C.3    70  GLY70       0.1998
     67  C       -101.2080 -111.1730    6.0080 C.2    70  GLY70       0.2480
     68  O       -101.1050 -111.6520    4.8740 O.2    70  GLY70      -0.2729
     69  N       -100.2300 -111.2760    6.9130 N.am   71  PRO71      -0.2726
     70  CA       -98.9290 -111.8440    6.5340 C.3    71  PRO71       0.1402
     71  C        -98.9090 -113.3600    6.4070 C.2    71  PRO71       0.2269
     72  O        -97.9170 -113.8980    5.8870 O.2    71  PRO71      -0.2865
     73  CB       -98.0070 -111.3820    7.6700 C.3    71  PRO71       0.0296
     74  CG       -98.9350 -111.2340    8.8510 C.3    71  PRO71       0.0237
     75  CD      -100.2330 -110.7440    8.2890 C.3    71  PRO71       0.0939
     76  N        -98.8500 -114.7500    2.5350 N.3    74  PRO74      -0.2102
     77  CA       -97.5330 -114.3630    1.9970 C.3    74  PRO74       0.1504
     78  C        -96.3830 -115.1590    2.5900 C.2    74  PRO74       0.2575
     79  O        -95.5350 -115.6720    1.8400 O.2    74  PRO74      -0.2718
     80  CB       -97.4450 -112.8760    2.3570 C.3    74  PRO74       0.0282
     81  CG       -98.8530 -112.4070    2.3600 C.3    74  PRO74       0.0208
     82  CD       -99.6790 -113.5650    2.8720 C.3    74  PRO74       0.0893
     83  N        -96.3280 -115.2800    3.9250 N.am   75  ARG75      -0.1980
     84  CA       -95.2190 -115.9940    4.5450 C.3    75  ARG75       0.1597
     85  C        -95.2330 -117.4660    4.1760 C.2    75  ARG75       0.2287
     86  O        -94.1680 -118.0670    3.9840 O.2    75  ARG75      -0.2864
     87  CB       -95.2420 -115.8470    6.0680 C.3    75  ARG75       0.0334
     88  CG       -94.8400 -114.4880    6.6180 C.3    75  ARG75       0.0492
     89  CD       -95.1540 -114.4670    8.1170 C.3    75  ARG75       0.2205
     90  NE       -94.9590 -113.1530    8.7140 N.pl3  75  ARG75      -0.0865
     91  CZ       -95.6070 -112.7400    9.7970 C.cat  75  ARG75       0.5346
     92  NH1      -96.4950 -113.5410   10.3810 N.pl3  75  ARG75       0.1354
     93  NH2      -95.3840 -111.5230   10.2850 N.pl3  75  ARG75       0.1354
     94  N        -90.5260 -108.4040    9.1130 N.3    91  ASP91      -0.1225
     95  CA       -91.6540 -107.6840    8.5400 C.3    91  ASP91       0.1805
     96  C        -91.1610 -106.4680    7.7700 C.2    91  ASP91       0.2598
     97  O        -90.0770 -105.9360    8.0280 O.2    91  ASP91      -0.2718
     98  CB       -92.6490 -107.2450    9.6190 C.3    91  ASP91       0.1424
     99  CG       -93.4640 -108.4050   10.1960 C.2    91  ASP91       0.3668
    100  OD1      -93.4610 -109.5280    9.6220 O.co2  91  ASP91      -0.2456
    101  OD2      -94.1180 -108.1840   11.2390 O.co2  91  ASP91      -0.2456
    102  N        -92.0020 -105.9980    6.8380 N.am   92  SER92      -0.1938
    103  CA       -91.5370 -105.0330    5.8430 C.3    92  SER92       0.2055
    104  C        -91.1540 -103.7010    6.4640 C.2    92  SER92       0.2643
    105  O        -90.3660 -102.9550    5.8690 O.2    92  SER92      -0.2714
    106  CB       -92.6030 -104.8260    4.7740 C.3    92  SER92       0.2130
    107  OG       -93.7720 -104.2670    5.3440 O.3    92  SER92      -0.2179
    108  N        -91.6740 -103.3890    7.6510 N.am   93  ASP93      -0.1971
    109  CA       -91.3850 -102.1200    8.3000 C.3    93  ASP93       0.1709
    110  C        -90.3300 -102.2520    9.3890 C.2    93  ASP93       0.2293
    111  O        -90.0920 -101.2950   10.1220 O.2    93  ASP93      -0.2864
    112  CB       -92.6720 -101.5140    8.8690 C.3    93  ASP93       0.1436
    113  CG       -93.3140 -102.4050    9.9070 C.2    93  ASP93       0.3671
    114  OD1      -92.9120 -103.5750   10.0060 O.co2  93  ASP93      -0.2456
    115  OD2      -94.2360 -101.9510   10.6000 O.co2  93  ASP93      -0.2456
    116  N        -92.0920  -98.2990   19.9860 N.3   126  ARG126     -0.1245
    117  CA       -92.5620  -99.6810   19.9830 C.3   126  ARG126      0.1563
    118  C        -91.8520 -100.5040   21.0590 C.2   126  ARG126      0.2260
    119  O        -90.6730 -100.2890   21.3460 O.2   126  ARG126     -0.2867
    120  CB       -92.3310 -100.2860   18.5920 C.3   126  ARG126      0.0307
    121  CG       -92.4490 -101.8000   18.4760 C.3   126  ARG126      0.0489
    122  CD       -93.8880 -102.2620   18.5690 C.3   126  ARG126      0.2205
    123  NE       -94.5420 -102.3230   17.2710 N.pl3 126  ARG126     -0.0865
    124  CZ       -94.4930 -103.3840   16.4710 C.cat 126  ARG126      0.5346
    125  NH1      -93.8190 -104.4670   16.8420 N.pl3 126  ARG126      0.1354
    126  NH2      -95.1220 -103.3680   15.3060 N.pl3 126  ARG126      0.1354
@<TRIPOS>BOND
     1    53    54    1
     2    47    48    2
     3    47    46    1
     4    54    57    1
     5    54    55    1
     6    45    46    1
     7    46    49    1
     8    57    58    1
     9    13    12    1
    10    55    56    2
    11    23    21   ar
    12    23    25   ar
    13    51    50   ar
    14    21    20   ar
    15    26    25    1
    16    49    50    1
    17    58    60   am
    18    58    59    2
    19    12    14    1
    20    12     9    1
    21    11    10    2
    22    25    24   ar
    23    50    52   ar
    24    27    28    1
    25    29    30    2
    26    29    28    1
    27    16    17    1
    28    16    15    1
    29    16    19    1
    30    17    18    2
    31    10    15   am
    32    10     9    1
    33    20    19    1
    34    20    22   ar
    35    79    78    2
    36     9     8    1
    37    77    80    1
    38    77    76    1
    39    77    78    1
    40    28    31    1
    41     8     3   am
    42    24    22   ar
    43    80    81    1
    44    31    32    1
    45    81    82    1
    46    76    82    1
    47    78    83   am
    48    61    62    1
    49     3     2    1
    50     3     4    2
    51    33    34    1
    52     2     1    1
    53     2     5    1
    54    83    84    1
    55    86    85    2
    56     1     7    1
    57    35    34    1
    58    35    36    2
    59    85    84    1
    60    62    63    1
    61    34    37    1
    62     5     6    1
    63    84    87    1
    64   106   107    1
    65   106   103    1
    66    68    67    2
    67    65    63   am
    68    65    66    1
    69    44    43    1
    70    43    41   ar
    71    43    42   ar
    72    41    39   ar
    73    63    64    2
    74     7     6    1
    75    42    40   ar
    76    39    38   ar
    77    40    38   ar
    78    38    37    1
    79   103   104    1
    80   103   102    1
    81   105   104    2
    82    72    71    2
    83    67    66    1
    84    67    69   am
    85    87    88    1
    86    71    70    1
    87   104   108   am
    88    70    69    1
    89    70    73    1
    90    88    89    1
    91   102    96   am
    92    69    75    1
    93   108   109    1
    94    73    74    1
    95    96    97    2
    96    96    95    1
    97    89    90    1
    98    75    74    1
    99   109   112    1
   100   109   110    1
   101    95    94    1
   102    95    98    1
   103    90    91    2
   104   112   113    1
   105   110   111    2
   106    98    99    1
   107   100    99   ar
   108    91    93    1
   109    91    92    1
   110   113   114   ar
   111   113   115   ar
   112    99   101   ar
   113   126   124    1
   114   124   125    1
   115   124   123    2
   116   123   122    1
   117   121   122    1
   118   121   120    1
   119   120   117    1
   120   117   116    1
   121   117   118    1
   122   118   119    2
