@<TRIPOS>MOLECULE
tmp/5tzlB00.pdb
 77 70 0 0 0
SMALL
GASTEIGER

@<TRIPOS>ATOM
      1  N         -2.2280  -11.3280  -32.6090 N.3     3  MET3       -0.1245
      2  CA        -1.0340  -10.4920  -32.7360 C.3     3  MET3        0.1570
      3  C         -0.5610  -10.1840  -31.3260 C.2     3  MET3        0.2261
      4  O         -1.3580  -10.0830  -30.4030 O.2     3  MET3       -0.2867
      5  CB        -1.4060   -9.2010  -33.5190 C.3     3  MET3        0.0387
      6  CG        -1.9510   -9.5000  -34.8900 C.3     3  MET3        0.0595
      7  SD        -2.4200   -8.0580  -35.7910 S.3     3  MET3       -0.1393
      8  CE        -1.8170   -6.6640  -34.8330 C.3     3  MET3        0.0692
      9  N          2.1390   -7.4530  -29.2610 N.3     5  LYS5       -0.1245
     10  CA         2.9770   -6.2270  -29.3460 C.3     5  LYS5        0.1561
     11  C          3.6090   -5.9950  -27.9690 C.2     5  LYS5        0.2260
     12  O          2.9020   -5.9930  -26.9760 O.2     5  LYS5       -0.2867
     13  CB         2.1430   -5.0060  -29.7760 C.3     5  LYS5        0.0271
     14  CG         3.0390   -3.7650  -29.9600 C.3     5  LYS5        0.0035
     15  CD         2.3100   -2.6620  -30.7230 C.3     5  LYS5        0.0206
     16  CE         3.2090   -1.4890  -31.1090 C.3     5  LYS5        0.1093
     17  NZ         2.4000   -0.5900  -32.0120 N.3     5  LYS5       -0.1314
     18  N          6.3390   -3.5280  -25.7160 N.3     7  LEU7       -0.1245
     19  CA         6.9630   -2.2370  -25.5760 C.3     7  LEU7        0.1561
     20  C          7.8380   -2.1930  -24.3140 C.2     7  LEU7        0.2260
     21  O          7.6020   -2.9080  -23.3160 O.2     7  LEU7       -0.2867
     22  CB         5.8790   -1.1510  -25.4300 C.3     7  LEU7        0.0270
     23  CG         4.9470   -0.9990  -26.6300 C.3     7  LEU7        0.0019
     24  CD1        3.8380    0.0050  -26.3230 C.3     7  LEU7        0.0001
     25  CD2        5.6790   -0.7130  -27.8840 C.3     7  LEU7        0.0001
     26  N         -5.3020   -8.5840  -30.2140 N.3    96  THR96      -0.1218
     27  CA        -3.9400   -8.0930  -29.9850 C.3    96  THR96       0.1862
     28  C         -3.6430   -8.0800  -28.5120 C.2    96  THR96       0.2287
     29  O         -4.3740   -7.4790  -27.7300 O.2    96  THR96      -0.2866
     30  CB        -3.7280   -6.6720  -30.5800 C.3    96  THR96       0.1770
     31  OG1       -3.9900   -6.7440  -31.9730 O.3    96  THR96      -0.2211
     32  CG2       -2.2460   -6.1730  -30.3200 C.3    96  THR96       0.0375
     33  N         -1.0680   -6.8660  -25.9100 N.3    98  ALA98      -0.1231
     34  CA        -0.0130   -5.8910  -25.7520 C.3    98  ALA98       0.1694
     35  C          0.5700   -5.9540  -24.3660 C.2    98  ALA98       0.2592
     36  O         -0.1470   -6.1440  -23.3900 O.2    98  ALA98      -0.2718
     37  CB        -0.5370   -4.4830  -26.0150 C.3    98  ALA98       0.0304
     38  N          1.8890   -5.7760  -24.2760 N.am   99  ALA99      -0.1966
     39  CA         2.5760   -5.8150  -22.9980 C.3    99  ALA99       0.1728
     40  C          3.5740   -4.6620  -22.9680 C.2    99  ALA99       0.2616
     41  O          4.2890   -4.4400  -23.9320 O.2    99  ALA99      -0.2715
     42  CB         3.2440   -7.1530  -22.7460 C.3    99  ALA99       0.0334
     43  N          3.6020   -3.9900  -21.8250 N.am  100  LEU100     -0.1977
     44  CA         4.5010   -2.8790  -21.5530 C.3   100  LEU100      0.1596
     45  C          5.4080   -3.3280  -20.4110 C.2   100  LEU100      0.2287
     46  O          4.9520   -3.5980  -19.2840 O.2   100  LEU100     -0.2864
     47  CB         3.6910   -1.6430  -21.1470 C.3   100  LEU100      0.0297
     48  CG         4.5380   -0.4530  -20.7670 C.3   100  LEU100      0.0022
     49  CD1        5.3750    0.0530  -21.9280 C.3   100  LEU100      0.0001
     50  CD2        3.6350    0.6740  -20.2790 C.3   100  LEU100      0.0001
     51  N          2.6200   -4.4660  -17.5690 N.3   107  SER107     -0.1202
     52  CA         1.2030   -4.2620  -17.7510 C.3   107  SER107      0.2020
     53  C          0.8340   -4.8770  -19.0850 C.2   107  SER107      0.2619
     54  O          1.6410   -4.9090  -20.0260 O.2   107  SER107     -0.2717
     55  CB         0.8270   -2.7780  -17.6310 C.3   107  SER107      0.2103
     56  OG         1.5900   -1.9470  -18.4810 O.3   107  SER107     -0.2182
     57  N         -0.3790   -5.4680  -19.1210 N.am  108  THR108     -0.1938
     58  CA        -0.8120   -6.0780  -20.3410 C.3   108  THR108      0.2028
     59  C         -2.2570   -5.6880  -20.5830 C.2   108  THR108      0.2642
     60  O         -2.9990   -5.5580  -19.6100 O.2   108  THR108     -0.2714
     61  CB        -0.6030   -7.5930  -20.3120 C.3   108  THR108      0.1808
     62  OG1       -0.8730   -8.1280  -21.6110 O.3   108  THR108     -0.2208
     63  CG2       -1.3890   -8.3280  -19.2600 C.3   108  THR108      0.0379
     64  N         -2.6160   -5.5730  -21.8320 N.am  109  THR109     -0.1950
     65  CA        -4.0090   -5.3350  -22.2200 C.3   109  THR109      0.1897
     66  C         -4.3340   -6.1410  -23.4560 C.2   109  THR109      0.2313
     67  O         -3.4430   -6.6300  -24.1560 O.2   109  THR109     -0.2863
     68  CB        -4.3390   -3.8220  -22.4520 C.3   109  THR109      0.1794
     69  OG1       -5.7630   -3.6630  -22.3770 O.3   109  THR109     -0.2208
     70  CG2       -3.7450   -3.3300  -23.7360 C.3   109  THR109      0.0378
     71  N         -6.6330   -5.8520  -27.0020 N.3   111  VAL111     -0.1245
     72  CA        -7.3630   -5.0260  -27.9490 C.3   111  VAL111      0.1561
     73  C         -8.0290   -6.0260  -28.8890 C.2   111  VAL111      0.2260
     74  O         -7.3550   -6.7390  -29.6280 O.2   111  VAL111     -0.2867
     75  CB        -6.4590   -4.0000  -28.6830 C.3   111  VAL111      0.0252
     76  CG1       -7.2920   -3.1080  -29.5960 C.3   111  VAL111      0.0019
     77  CG2       -5.6220   -3.1950  -27.6570 C.3   111  VAL111      0.0019
@<TRIPOS>BOND
     1     7     6    1
     2     7     8    1
     3     6     5    1
     4     5     2    1
     5     2     1    1
     6     2     3    1
     7    17    16    1
     8    31    30    1
     9     3     4    2
    10    16    15    1
    11    15    14    1
    12    30    32    1
    13    30    27    1
    14    26    27    1
    15    27    28    1
    16    14    13    1
    17    13    10    1
    18    74    73    2
    19    76    75    1
    20    10     9    1
    21    10    11    1
    22    73    72    1
    23    75    72    1
    24    75    77    1
    25    28    29    2
    26    11    12    2
    27    72    71    1
    28    25    23    1
    29    23    24    1
    30    23    22    1
    31    37    34    1
    32    33    34    1
    33    34    35    1
    34    18    19    1
    35    19    22    1
    36    19    20    1
    37    35    38   am
    38    35    36    2
    39    20    21    2
    40    38    39    1
    41    67    66    2
    42    41    40    2
    43    70    68    1
    44    66    65    1
    45    39    40    1
    46    39    42    1
    47    40    43   am
    48    68    69    1
    49    68    65    1
    50    65    64    1
    51    49    48    1
    52    64    59   am
    53    43    44    1
    54    62    61    1
    55    44    47    1
    56    44    45    1
    57    47    48    1
    58    48    50    1
    59    59    58    1
    60    59    60    2
    61    45    46    2
    62    58    61    1
    63    58    57    1
    64    61    63    1
    65    54    53    2
    66    57    53   am
    67    53    52    1
    68    56    55    1
    69    52    55    1
    70    52    51    1
