@<TRIPOS>MOLECULE
tmp/5tzoA00.pdb
 106 107 0 0 0
SMALL
GASTEIGER

@<TRIPOS>ATOM
      1  N        -24.2920    0.3320  -17.0800 N.3    63  TRP63      -0.1241
      2  CA       -24.0510    1.4590  -16.1770 C.3    63  TRP63       0.1605
      3  C        -23.3960    0.9690  -14.8900 C.2    63  TRP63       0.2264
      4  O        -23.9430    1.0550  -13.7970 O.2    63  TRP63      -0.2867
      5  CB       -25.3430    2.2180  -15.8760 C.3    63  TRP63       0.0550
      6  CG       -25.0960    3.6420  -15.4250 C.ar   63  TRP63       0.0003
      7  CD1      -24.3200    4.0500  -14.3740 C.ar   63  TRP63       0.0946
      8  CD2      -25.6370    4.8370  -16.0080 C.ar   63  TRP63       0.0152
      9  NE1      -24.3420    5.4250  -14.2710 N.ar   63  TRP63      -0.2442
     10  CE2      -25.1410    5.9300  -15.2620 C.ar   63  TRP63       0.0810
     11  CE3      -26.4880    5.0900  -17.0950 C.ar   63  TRP63       0.0012
     12  CZ2      -25.4700    7.2550  -15.5640 C.ar   63  TRP63       0.0191
     13  CZ3      -26.8090    6.4050  -17.3900 C.ar   63  TRP63       0.0001
     14  CH2      -26.2990    7.4700  -16.6280 C.ar   63  TRP63       0.0015
     15  N        -24.7900    7.4290  -20.0610 N.3    89  ARG89      -0.1231
     16  CA       -25.1260    8.6910  -20.7230 C.3    89  ARG89       0.1694
     17  C        -25.4490    9.7440  -19.6660 C.2    89  ARG89       0.2592
     18  O        -26.6000    9.9340  -19.2700 O.2    89  ARG89      -0.2718
     19  CB       -26.2870    8.4660  -21.6860 C.3    89  ARG89       0.0321
     20  CG       -26.6070    9.6410  -22.5860 C.3    89  ARG89       0.0489
     21  CD       -27.6490    9.2680  -23.6310 C.3    89  ARG89       0.2205
     22  NE       -27.1580    8.2470  -24.5520 N.pl3  89  ARG89      -0.0865
     23  CZ       -26.5800    8.4880  -25.7240 C.cat  89  ARG89       0.5346
     24  NH1      -26.4060    9.7290  -26.1560 N.pl3  89  ARG89       0.1354
     25  NH2      -26.1590    7.4750  -26.4680 N.pl3  89  ARG89       0.1354
     26  N        -24.4150   10.4620  -19.2300 N.am   90  TRP90      -0.1962
     27  CA       -24.5540   11.4330  -18.1540 C.3    90  TRP90       0.1771
     28  C        -25.3840   12.6350  -18.6020 C.2    90  TRP90       0.2620
     29  O        -25.2210   13.1420  -19.7090 O.2    90  TRP90      -0.2715
     30  CB       -23.1640   11.8860  -17.6930 C.3    90  TRP90       0.0590
     31  CG       -22.2030   10.7380  -17.4800 C.ar   90  TRP90       0.0006
     32  CD1      -21.2570   10.3010  -18.3470 C.ar   90  TRP90       0.0946
     33  CD2      -22.1220    9.8790  -16.3330 C.ar   90  TRP90       0.0152
     34  NE1      -20.5820    9.2330  -17.8200 N.ar   90  TRP90      -0.2442
     35  CE2      -21.0890    8.9550  -16.5800 C.ar   90  TRP90       0.0810
     36  CE3      -22.8170    9.8070  -15.1230 C.ar   90  TRP90       0.0012
     37  CZ2      -20.7420    7.9570  -15.6740 C.ar   90  TRP90       0.0191
     38  CZ3      -22.4600    8.8300  -14.2160 C.ar   90  TRP90       0.0001
     39  CH2      -21.4270    7.9120  -14.4970 C.ar   90  TRP90       0.0015
     40  N        -26.3000   13.0790  -17.7400 N.am   91  THR91      -0.1951
     41  CA       -27.1850   14.1820  -18.1020 C.3    91  THR91       0.1897
     42  C        -27.7910   14.7750  -16.8420 C.2    91  THR91       0.2313
     43  O        -28.0350   14.0660  -15.8640 O.2    91  THR91      -0.2863
     44  CB       -28.2780   13.7170  -19.0880 C.3    91  THR91       0.1794
     45  OG1      -29.1470   14.8120  -19.4340 O.3    91  THR91      -0.2208
     46  CG2      -29.0980   12.5640  -18.5190 C.3    91  THR91       0.0378
     47  N        -21.9510   17.7760  -12.1920 N.3   108  TYR108     -0.1241
     48  CA       -23.4020   17.7150  -12.2640 C.3   108  TYR108      0.1605
     49  C        -24.0110   17.6900  -10.8730 C.2   108  TYR108      0.2264
     50  O        -23.3540   17.3640   -9.8900 O.2   108  TYR108     -0.2867
     51  CB       -23.8890   16.4620  -12.9910 C.3   108  TYR108      0.0534
     52  CG       -23.3490   16.2470  -14.3740 C.ar  108  TYR108     -0.0201
     53  CD1      -23.8960   16.8970  -15.4630 C.ar  108  TYR108     -0.0009
     54  CD2      -22.3200   15.3570  -14.5920 C.ar  108  TYR108     -0.0009
     55  CE1      -23.4120   16.6850  -16.7400 C.ar  108  TYR108      0.0417
     56  CE2      -21.8310   15.1310  -15.8560 C.ar  108  TYR108      0.0417
     57  CZ       -22.3740   15.7970  -16.9290 C.ar  108  TYR108      0.1957
     58  OH       -21.8860   15.5610  -18.1960 O.3   108  TYR108     -0.2866
     59  N        -27.8820   16.2330   -9.2280 N.3   110  THR110     -0.1203
     60  CA       -29.1650   15.5860   -9.4530 C.3   110  THR110      0.1994
     61  C        -29.9040   15.4630   -8.1290 C.2   110  THR110      0.2619
     62  O        -29.3250   15.5960   -7.0510 O.2   110  THR110     -0.2717
     63  CB       -29.0130   14.1920  -10.0900 C.3   110  THR110      0.1784
     64  OG1      -28.1580   13.3840   -9.2760 O.3   110  THR110     -0.2211
     65  CG2      -28.4330   14.3010  -11.4890 C.3   110  THR110      0.0376
     66  N        -31.2050   15.2260   -8.2220 N.am  111  THR111     -0.1938
     67  CA       -32.0510   15.0780   -7.0500 C.3   111  THR111      0.2028
     68  C        -32.7620   13.7340   -7.1140 C.2   111  THR111      0.2642
     69  O        -33.1350   13.2710   -8.1930 O.2   111  THR111     -0.2714
     70  CB       -33.0650   16.2140   -6.9630 C.3   111  THR111      0.1808
     71  OG1      -32.3820   17.4760   -6.9540 O.3   111  THR111     -0.2208
     72  CG2      -33.9090   16.0830   -5.7010 C.3   111  THR111      0.0379
     73  N        -32.9360   13.1050   -5.9550 N.am  112  ARG112     -0.1977
     74  CA       -33.6650   11.8490   -5.8590 C.3   112  ARG112      0.1597
     75  C        -34.7210   11.9580   -4.7710 C.2   112  ARG112      0.2287
     76  O        -34.4990   12.5950   -3.7380 O.2   112  ARG112     -0.2864
     77  CB       -32.7210   10.6850   -5.5540 C.3   112  ARG112      0.0334
     78  CG       -31.7940   10.3370   -6.7070 C.3   112  ARG112      0.0492
     79  CD       -32.5020    9.5430   -7.8060 C.3   112  ARG112      0.2205
     80  NE       -32.3560    8.0990   -7.6190 N.pl3 112  ARG112     -0.0865
     81  CZ       -33.3520    7.2340   -7.4300 C.cat 112  ARG112      0.5346
     82  NH1      -33.0780    5.9460   -7.2710 N.pl3 112  ARG112      0.1354
     83  NH2      -34.6170    7.6310   -7.4120 N.pl3 112  ARG112      0.1354
     84  N        -27.5580   14.7730   -5.0980 N.3   127  GLN127     -0.1245
     85  CA       -26.3460   14.0720   -5.5020 C.3   127  GLN127      0.1566
     86  C        -25.4160   15.0640   -6.1880 C.2   127  GLN127      0.2260
     87  O        -25.8480   15.8150   -7.0740 O.2   127  GLN127     -0.2867
     88  CB       -26.6670   12.9090   -6.4490 C.3   127  GLN127      0.0367
     89  CG       -27.7170   11.9300   -5.9130 C.3   127  GLN127      0.0905
     90  CD       -28.2240   10.9480   -6.9610 C.2   127  GLN127      0.2608
     91  OE1      -28.8390   11.3400   -7.9520 O.2   127  GLN127     -0.2717
     92  NE2      -28.0030    9.6630   -6.7230 N.am  127  GLN127     -0.0878
     93  N        -21.8540   15.3600   -8.4720 N.3   129  TRP129     -0.1241
     94  CA       -21.0680   14.5240   -9.3740 C.3   129  TRP129      0.1605
     95  C        -19.8760   15.2800   -9.9350 C.2   129  TRP129      0.2264
     96  O        -19.9930   16.4380  -10.3340 O.2   129  TRP129     -0.2867
     97  CB       -21.8700   14.0250  -10.5770 C.3   129  TRP129      0.0550
     98  CG       -23.1490   13.3300  -10.2600 C.ar  129  TRP129      0.0003
     99  CD1      -24.3140   13.9170   -9.8770 C.ar  129  TRP129      0.0946
    100  CD2      -23.4130   11.9240  -10.3300 C.ar  129  TRP129      0.0152
    101  NE1      -25.2850   12.9720   -9.6900 N.ar  129  TRP129     -0.2442
    102  CE2      -24.7580   11.7370   -9.9620 C.ar  129  TRP129      0.0810
    103  CE3      -22.6450   10.8060  -10.6660 C.ar  129  TRP129      0.0012
    104  CZ2      -25.3470   10.4790   -9.9110 C.ar  129  TRP129      0.0191
    105  CZ3      -23.2400    9.5570  -10.6090 C.ar  129  TRP129      0.0001
    106  CH2      -24.5690    9.4070  -10.2290 C.ar  129  TRP129      0.0015
@<TRIPOS>BOND
     1    25    23    1
     2    24    23    1
     3    23    22    2
     4    22    21    1
     5    21    20    1
     6    20    19    1
     7    19    16    1
     8    16    15    1
     9    16    17    1
    10    29    28    2
    11    17    18    2
    12    17    26   am
    13    45    44    1
    14    26    27    1
    15    44    46    1
    16    44    41    1
    17    28    27    1
    18    28    40   am
    19    32    34   ar
    20    32    31   ar
    21    58    57    1
    22    27    30    1
    23    41    40    1
    24    41    42    1
    25    34    35   ar
    26    30    31    1
    27    31    33   ar
    28    13    11   ar
    29    13    14   ar
    30    11     8   ar
    31     1     2    1
    32    57    55   ar
    33    57    56   ar
    34    42    43    2
    35    55    53   ar
    36    14    12   ar
    37    35    33   ar
    38    35    37   ar
    39    33    36   ar
    40     2     5    1
    41     2     3    1
    42     8     6   ar
    43     8    10   ar
    44     5     6    1
    45    56    54   ar
    46    37    39   ar
    47    12    10   ar
    48    53    52   ar
    49     6     7   ar
    50    10     9   ar
    51    36    38   ar
    52     3     4    2
    53    54    52   ar
    54    39    38   ar
    55     7     9   ar
    56    52    51    1
    57    51    48    1
    58    48    47    1
    59    48    49    1
    60    65    63    1
    61    49    50    2
    62   103   105   ar
    63   103   100   ar
    64   105   106   ar
    65    97    98    1
    66    97    94    1
    67    96    95    2
    68   100    98   ar
    69   100   102   ar
    70    98    99   ar
    71   106   104   ar
    72    63    60    1
    73    63    64    1
    74   102   104   ar
    75   102   101   ar
    76    95    94    1
    77    99   101   ar
    78    60    59    1
    79    60    61    1
    80    94    93    1
    81    66    61   am
    82    66    67    1
    83    69    68    2
    84    61    62    2
    85    91    90    2
    86    79    80    1
    87    79    78    1
    88    80    81    2
    89    81    83    1
    90    81    82    1
    91    68    67    1
    92    68    73   am
    93    87    86    2
    94    67    70    1
    95    70    71    1
    96    70    72    1
    97    90    92   am
    98    90    89    1
    99    78    77    1
   100    88    89    1
   101    88    85    1
   102    86    85    1
   103    73    74    1
   104    74    77    1
   105    74    75    1
   106    85    84    1
   107    75    76    2
