@<TRIPOS>MOLECULE
tmp/5tzoB01.pdb
 106 107 0 0 0
SMALL
GASTEIGER

@<TRIPOS>ATOM
      1  N        -31.7280  -14.1640    5.4100 N.3    63  TRP63      -0.1241
      2  CA       -30.7390  -13.8360    6.4370 C.3    63  TRP63       0.1605
      3  C        -30.9450  -14.7260    7.6660 C.2    63  TRP63       0.2264
      4  O        -31.3730  -14.2930    8.7380 O.2    63  TRP63      -0.2867
      5  CB       -30.7910  -12.3630    6.8210 C.3    63  TRP63       0.0550
      6  CG       -29.5300  -11.9170    7.5050 C.ar   63  TRP63       0.0003
      7  CD1      -28.9710  -12.4520    8.6320 C.ar   63  TRP63       0.0946
      8  CD2      -28.6650  -10.8450    7.1020 C.ar   63  TRP63       0.0152
      9  NE1      -27.8110  -11.7840    8.9490 N.ar   63  TRP63      -0.2442
     10  CE2      -27.6040  -10.7920    8.0280 C.ar   63  TRP63       0.0810
     11  CE3      -28.6850   -9.9320    6.0520 C.ar   63  TRP63       0.0012
     12  CZ2      -26.5710   -9.8570    7.9300 C.ar   63  TRP63       0.0191
     13  CZ3      -27.6570   -9.0010    5.9580 C.ar   63  TRP63       0.0001
     14  CH2      -26.6160   -8.9780    6.8890 C.ar   63  TRP63       0.0015
     15  N        -25.5940  -10.0900    3.4670 N.3    89  ARG89      -0.1231
     16  CA       -24.5960   -9.1900    2.9070 C.3    89  ARG89       0.1694
     17  C        -23.9350   -8.4780    4.0820 C.2    89  ARG89       0.2592
     18  O        -24.4730   -7.5080    4.6180 O.2    89  ARG89      -0.2718
     19  CB       -25.2470   -8.2220    1.9240 C.3    89  ARG89       0.0321
     20  CG       -24.3050   -7.6760    0.8770 C.3    89  ARG89       0.0489
     21  CD       -25.0640   -7.1580   -0.3370 C.3    89  ARG89       0.2205
     22  NE       -25.5330   -8.2280   -1.2180 N.pl3  89  ARG89      -0.0865
     23  CZ       -24.7960   -8.8100   -2.1640 C.cat  89  ARG89       0.5346
     24  NH1      -23.5330   -8.4480   -2.3530 N.pl3  89  ARG89       0.1354
     25  NH2      -25.3250   -9.7580   -2.9240 N.pl3  89  ARG89       0.1354
     26  N        -22.7700   -8.9760    4.4910 N.am   90  TRP90      -0.1962
     27  CA       -22.0440   -8.3760    5.5990 C.3    90  TRP90       0.1771
     28  C        -21.3870   -7.0670    5.1740 C.2    90  TRP90       0.2620
     29  O        -20.7320   -7.0020    4.1260 O.2    90  TRP90      -0.2715
     30  CB       -20.9990   -9.3700    6.1140 C.3    90  TRP90       0.0590
     31  CG       -21.5850  -10.7610    6.2940 C.ar   90  TRP90       0.0006
     32  CD1      -21.4620  -11.8300    5.4470 C.ar   90  TRP90       0.0946
     33  CD2      -22.4180  -11.2020    7.3740 C.ar   90  TRP90       0.0152
     34  NE1      -22.1560  -12.9120    5.9450 N.ar   90  TRP90      -0.2442
     35  CE2      -22.7500  -12.5530    7.1250 C.ar   90  TRP90       0.0810
     36  CE3      -22.9000  -10.5940    8.5340 C.ar   90  TRP90       0.0012
     37  CZ2      -23.5420  -13.2960    7.9900 C.ar   90  TRP90       0.0191
     38  CZ3      -23.6940  -11.3330    9.3870 C.ar   90  TRP90       0.0001
     39  CH2      -23.9990  -12.6720    9.1160 C.ar   90  TRP90       0.0015
     40  N        -21.5760   -6.0190    5.9820 N.am   91  THR91      -0.1951
     41  CA       -21.0830   -4.6890    5.6330 C.3    91  THR91       0.1897
     42  C        -20.9280   -3.8530    6.9070 C.2    91  THR91       0.2313
     43  O        -21.7150   -3.9950    7.8430 O.2    91  THR91      -0.2863
     44  CB       -22.0340   -4.0180    4.6110 C.3    91  THR91       0.1794
     45  OG1      -21.5640   -2.7120    4.2550 O.3    91  THR91      -0.2208
     46  CG2      -23.4510   -3.8900    5.1490 C.3    91  THR91       0.0378
     47  N        -15.6540   -7.3730   12.0670 N.3   108  TYR108     -0.1241
     48  CA       -16.4300   -6.1390   11.9590 C.3   108  TYR108      0.1605
     49  C        -16.8630   -5.6610   13.3390 C.2   108  TYR108      0.2264
     50  O        -16.9590   -6.4370   14.2870 O.2   108  TYR108     -0.2867
     51  CB       -17.6980   -6.3000   11.1090 C.3   108  TYR108      0.0534
     52  CG       -17.5100   -6.8530    9.7320 C.ar  108  TYR108     -0.0201
     53  CD1      -17.1860   -6.0270    8.6620 C.ar  108  TYR108     -0.0009
     54  CD2      -17.6810   -8.2090    9.4910 C.ar  108  TYR108     -0.0009
     55  CE1      -17.0300   -6.5370    7.3960 C.ar  108  TYR108      0.0417
     56  CE2      -17.5140   -8.7310    8.2360 C.ar  108  TYR108      0.0417
     57  CZ       -17.1920   -7.8960    7.1860 C.ar  108  TYR108      0.1957
     58  OH       -17.0290   -8.4140    5.9260 O.3   108  TYR108     -0.2866
     59  N        -20.0490   -3.1200   14.9840 N.3   110  THR110     -0.1203
     60  CA       -21.2740   -2.3750   14.7270 C.3   110  THR110      0.1994
     61  C        -21.8360   -1.8900   16.0630 C.2   110  THR110      0.2619
     62  O        -21.3220   -2.2050   17.1360 O.2   110  THR110     -0.2717
     63  CB       -22.3270   -3.2240   13.9900 C.3   110  THR110      0.1784
     64  OG1      -22.6550   -4.3600   14.7930 O.3   110  THR110     -0.2211
     65  CG2      -21.8310   -3.6970   12.6210 C.3   110  THR110      0.0376
     66  N        -22.9090   -1.1150   15.9930 N.am  111  THR111     -0.1938
     67  CA       -23.6000   -0.6450   17.1810 C.3   111  THR111      0.2028
     68  C        -25.0910   -0.8070   16.9430 C.2   111  THR111      0.2642
     69  O        -25.5700   -0.5490   15.8380 O.2   111  THR111     -0.2714
     70  CB       -23.2900    0.8350   17.4830 C.3   111  THR111      0.1808
     71  OG1      -21.9160    0.9990   17.8280 O.3   111  THR111     -0.2208
     72  CG2      -24.1380    1.3470   18.6240 C.3   111  THR111      0.0379
     73  N        -25.8190   -1.2460   17.9670 N.am  112  ARG112     -0.1977
     74  CA       -27.2800   -1.2330   17.9390 C.3   112  ARG112      0.1597
     75  C        -27.8160   -0.1660   18.8820 C.2   112  ARG112      0.2287
     76  O        -27.3020    0.0110   19.9890 O.2   112  ARG112     -0.2864
     77  CB       -27.8710   -2.5830   18.3410 C.3   112  ARG112      0.0334
     78  CG       -27.6250   -3.7200   17.3670 C.3   112  ARG112      0.0492
     79  CD       -28.1800   -3.4610   15.9850 C.3   112  ARG112      0.2205
     80  NE       -29.5800   -3.0690   16.0190 N.pl3 112  ARG112     -0.0865
     81  CZ       -30.5990   -3.9070   16.1790 C.cat 112  ARG112      0.5346
     82  NH1      -30.3930   -5.2080   16.3360 N.pl3 112  ARG112      0.1354
     83  NH2      -31.8350   -3.4350   16.1870 N.pl3 112  ARG112      0.1354
     84  N        -21.3930   -4.2180   19.0760 N.3   127  GLN127     -0.1245
     85  CA       -21.3480   -5.6070   18.6380 C.3   127  GLN127      0.1566
     86  C        -19.9930   -5.9110   18.0030 C.2   127  GLN127      0.2260
     87  O        -19.4880   -5.1200   17.1910 O.2   127  GLN127     -0.2867
     88  CB       -22.4580   -5.9050   17.6310 C.3   127  GLN127      0.0367
     89  CG       -23.8660   -5.6210   18.1270 C.3   127  GLN127      0.0905
     90  CD       -24.8750   -5.6510   16.9940 C.2   127  GLN127      0.2608
     91  OE1      -24.8090   -4.8390   16.0630 O.2   127  GLN127     -0.2717
     92  NE2      -25.8100   -6.5820   17.0630 N.am  127  GLN127     -0.0878
     93  N        -17.9400   -8.8200   15.6850 N.3   129  TRP129     -0.1241
     94  CA       -18.2350   -9.8380   14.6780 C.3   129  TRP129      0.1605
     95  C        -16.9620  -10.4870   14.1710 C.2   129  TRP129      0.2264
     96  O        -15.9980   -9.7900   13.8340 O.2   129  TRP129     -0.2867
     97  CB       -18.9700   -9.2640   13.4550 C.3   129  TRP129      0.0550
     98  CG       -20.2630   -8.5930   13.7500 C.ar  129  TRP129      0.0003
     99  CD1      -20.4340   -7.3100   14.1780 C.ar  129  TRP129      0.0946
    100  CD2      -21.5760   -9.1460   13.5910 C.ar  129  TRP129      0.0152
    101  NE1      -21.7750   -7.0320   14.3130 N.ar  129  TRP129     -0.2442
    102  CE2      -22.4970   -8.1380   13.9450 C.ar  129  TRP129      0.0810
    103  CE3      -22.0610  -10.3880   13.1700 C.ar  129  TRP129      0.0012
    104  CZ2      -23.8720   -8.3420   13.9190 C.ar  129  TRP129      0.0191
    105  CZ3      -23.4330  -10.5890   13.1520 C.ar  129  TRP129      0.0001
    106  CH2      -24.3190   -9.5660   13.5190 C.ar  129  TRP129      0.0015
@<TRIPOS>BOND
     1    25    23    1
     2    24    23    1
     3    23    22    2
     4    22    21    1
     5    21    20    1
     6    20    19    1
     7    19    16    1
     8    16    15    1
     9    16    17    1
    10    17    26   am
    11    17    18    2
    12    29    28    2
    13    45    44    1
    14    26    27    1
    15    44    46    1
    16    44    41    1
    17    28    27    1
    18    28    40   am
    19     1     2    1
    20    32    34   ar
    21    32    31   ar
    22    27    30    1
    23    41    40    1
    24    41    42    1
    25    58    57    1
    26    34    35   ar
    27    13    11   ar
    28    13    14   ar
    29    11     8   ar
    30    30    31    1
    31    31    33   ar
    32     2     5    1
    33     2     3    1
    34     5     6    1
    35    14    12   ar
    36    42    43    2
    37     8     6   ar
    38     8    10   ar
    39    35    33   ar
    40    35    37   ar
    41    57    55   ar
    42    57    56   ar
    43    33    36   ar
    44    55    53   ar
    45     6     7   ar
    46     3     4    2
    47    12    10   ar
    48    37    39   ar
    49    10     9   ar
    50    56    54   ar
    51    36    38   ar
    52     7     9   ar
    53    53    52   ar
    54    39    38   ar
    55    54    52   ar
    56    52    51    1
    57    51    48    1
    58    48    47    1
    59    48    49    1
    60    65    63    1
    61   105   103   ar
    62   105   106   ar
    63   103   100   ar
    64    49    50    2
    65    97    98    1
    66    97    94    1
    67   106   104   ar
    68   100    98   ar
    69   100   102   ar
    70    98    99   ar
    71    96    95    2
    72   104   102   ar
    73   102   101   ar
    74    63    60    1
    75    63    64    1
    76    95    94    1
    77    99   101   ar
    78    94    93    1
    79    60    59    1
    80    60    61    1
    81    69    68    2
    82    79    80    1
    83    79    78    1
    84    66    61   am
    85    66    67    1
    86    80    81    2
    87    61    62    2
    88    91    90    2
    89    81    83    1
    90    81    82    1
    91    68    67    1
    92    68    73   am
    93    90    92   am
    94    90    89    1
    95    67    70    1
    96    87    86    2
    97    78    77    1
    98    70    71    1
    99    70    72    1
   100    88    89    1
   101    88    85    1
   102    74    73    1
   103    74    77    1
   104    74    75    1
   105    86    85    1
   106    85    84    1
   107    75    76    2
