@<TRIPOS>MOLECULE
tmp/5tzoB00.pdb
 213 211 0 0 0
SMALL
GASTEIGER

@<TRIPOS>ATOM
      1  N        -31.5380  -20.8490   24.7570 N.3     7  LEU7       -0.1245
      2  CA       -31.8750  -19.5220   24.2700 C.3     7  LEU7        0.1561
      3  C        -33.0360  -19.6360   23.2970 C.2     7  LEU7        0.2260
      4  O        -32.9600  -20.3860   22.3210 O.2     7  LEU7       -0.2867
      5  CB       -30.6620  -18.8940   23.5860 C.3     7  LEU7        0.0270
      6  CG       -30.8480  -17.5410   22.9080 C.3     7  LEU7        0.0019
      7  CD1      -31.3900  -16.5050   23.8920 C.3     7  LEU7        0.0001
      8  CD2      -29.5220  -17.0960   22.2810 C.3     7  LEU7        0.0001
      9  N        -35.5560  -16.7290   21.6490 N.3     9  PHE9       -0.1241
     10  CA       -35.9880  -15.3450   21.5550 C.3     9  PHE9        0.1605
     11  C        -36.5180  -15.0160   20.1660 C.2     9  PHE9        0.2264
     12  O        -35.9260  -15.4070   19.1580 O.2     9  PHE9       -0.2867
     13  CB       -34.8380  -14.3880   21.8420 C.3     9  PHE9        0.0534
     14  CG       -35.1730  -12.9440   21.5610 C.ar    9  PHE9       -0.0203
     15  CD1      -35.7530  -12.1540   22.5400 C.ar    9  PHE9       -0.0042
     16  CD2      -34.9120  -12.3840   20.3220 C.ar    9  PHE9       -0.0042
     17  CE1      -36.0620  -10.8200   22.2890 C.ar    9  PHE9       -0.0003
     18  CE2      -35.2250  -11.0600   20.0600 C.ar    9  PHE9       -0.0003
     19  CZ       -35.7950  -10.2750   21.0510 C.ar    9  PHE9       -0.0000
     20  N        -37.0100  -10.8070   13.7290 N.3    35  SER35      -0.1202
     21  CA       -35.7150  -11.1870   14.2650 C.3    35  SER35       0.2020
     22  C        -35.9080  -12.2990   15.2840 C.2    35  SER35       0.2619
     23  O        -36.9010  -12.3240   16.0150 O.2    35  SER35      -0.2717
     24  CB       -35.0090   -9.9900   14.9060 C.3    35  SER35       0.2103
     25  OG       -34.6600   -9.0330   13.9190 O.3    35  SER35      -0.2182
     26  N        -34.9720  -13.2400   15.3000 N.am   36  PHE36      -0.1961
     27  CA       -35.0050  -14.3060   16.2940 C.3    36  PHE36       0.1771
     28  C        -33.6070  -14.8520   16.5180 C.2    36  PHE36       0.2619
     29  O        -32.7140  -14.7130   15.6790 O.2    36  PHE36      -0.2715
     30  CB       -35.9190  -15.4740   15.8800 C.3    36  PHE36       0.0574
     31  CG       -35.3750  -16.2980   14.7440 C.ar   36  PHE36      -0.0200
     32  CD1      -35.5860  -15.9020   13.4310 C.ar   36  PHE36      -0.0042
     33  CD2      -34.6410  -17.4650   14.9810 C.ar   36  PHE36      -0.0042
     34  CE1      -35.0830  -16.6440   12.3720 C.ar   36  PHE36      -0.0003
     35  CE2      -34.1280  -18.2060   13.9200 C.ar   36  PHE36      -0.0003
     36  CZ       -34.3610  -17.8020   12.6140 C.ar   36  PHE36      -0.0000
     37  N        -33.4400  -15.5060   17.6600 N.am   37  VAL37      -0.1977
     38  CA       -32.2430  -16.2910   17.9230 C.3    37  VAL37       0.1596
     39  C        -32.6120  -17.4380   18.8600 C.2    37  VAL37       0.2287
     40  O        -33.3410  -17.2520   19.8370 O.2    37  VAL37      -0.2864
     41  CB       -31.1180  -15.4100   18.5010 C.3    37  VAL37       0.0276
     42  CG1      -31.5070  -14.8220   19.8630 C.3    37  VAL37       0.0022
     43  CG2      -29.8200  -16.1900   18.6010 C.3    37  VAL37       0.0022
     44  N        -31.7280  -14.1640    5.4100 N.3    63  TRP63      -0.1241
     45  CA       -30.7390  -13.8360    6.4370 C.3    63  TRP63       0.1605
     46  C        -30.9450  -14.7260    7.6660 C.2    63  TRP63       0.2264
     47  O        -31.3730  -14.2930    8.7380 O.2    63  TRP63      -0.2867
     48  CB       -30.7910  -12.3630    6.8210 C.3    63  TRP63       0.0550
     49  CG       -29.5300  -11.9170    7.5050 C.ar   63  TRP63       0.0003
     50  CD1      -28.9710  -12.4520    8.6320 C.ar   63  TRP63       0.0946
     51  CD2      -28.6650  -10.8450    7.1020 C.ar   63  TRP63       0.0152
     52  NE1      -27.8110  -11.7840    8.9490 N.ar   63  TRP63      -0.2442
     53  CE2      -27.6040  -10.7920    8.0280 C.ar   63  TRP63       0.0810
     54  CE3      -28.6850   -9.9320    6.0520 C.ar   63  TRP63       0.0012
     55  CZ2      -26.5710   -9.8570    7.9300 C.ar   63  TRP63       0.0191
     56  CZ3      -27.6570   -9.0010    5.9580 C.ar   63  TRP63       0.0001
     57  CH2      -26.6160   -8.9780    6.8890 C.ar   63  TRP63       0.0015
     58  N        -28.5660  -17.4080    9.9920 N.3    65  ALA65      -0.1245
     59  CA       -27.1500  -17.6150   10.2440 C.3    65  ALA65       0.1562
     60  C        -26.9360  -18.6440   11.3380 C.2    65  ALA65       0.2260
     61  O        -27.7120  -18.7290   12.2940 O.2    65  ALA65      -0.2867
     62  CB       -26.4710  -16.3000   10.6190 C.3    65  ALA65       0.0290
     63  N        -24.3050  -19.3960   14.0800 N.3    67  ALA67      -0.1245
     64  CA       -23.2860  -18.5610   14.6960 C.3    67  ALA67       0.1562
     65  C        -23.1890  -18.8070   16.1900 C.2    67  ALA67       0.2260
     66  O        -24.1930  -19.0330   16.8680 O.2    67  ALA67      -0.2867
     67  CB       -23.5790  -17.0690   14.4460 C.3    67  ALA67       0.0290
     68  N        -22.9570  -12.6050   25.0580 N.3    71  TRP71      -0.1241
     69  CA       -22.8420  -11.2800   25.6390 C.3    71  TRP71       0.1605
     70  C        -21.8410  -11.2590   26.7800 C.2    71  TRP71       0.2264
     71  O        -21.6010  -12.2680   27.4510 O.2    71  TRP71      -0.2867
     72  CB       -24.1630  -10.7860   26.2160 C.3    71  TRP71       0.0550
     73  CG       -25.2690  -10.7750   25.2760 C.ar   71  TRP71       0.0003
     74  CD1      -25.9840  -11.8550   24.8610 C.ar   71  TRP71       0.0946
     75  CD2      -25.8650   -9.6290   24.6530 C.ar   71  TRP71       0.0152
     76  NE1      -26.9610  -11.4640   23.9950 N.ar   71  TRP71      -0.2442
     77  CE2      -26.9210  -10.1040   23.8520 C.ar   71  TRP71       0.0810
     78  CE3      -25.5960   -8.2600   24.6710 C.ar   71  TRP71       0.0012
     79  CZ2      -27.7120   -9.2650   23.0730 C.ar   71  TRP71       0.0191
     80  CZ3      -26.4090   -7.4190   23.9040 C.ar   71  TRP71       0.0001
     81  CH2      -27.4460   -7.9310   23.1160 C.ar   71  TRP71       0.0015
     82  N        -20.5080  -12.2110   18.0320 N.3    80  TYR80      -0.1241
     83  CA       -20.9430  -13.1870   17.0400 C.3    80  TYR80       0.1605
     84  C        -19.7330  -13.8080   16.3620 C.2    80  TYR80       0.2264
     85  O        -18.8000  -13.0980   15.9680 O.2    80  TYR80      -0.2867
     86  CB       -21.8080  -12.5430   15.9490 C.3    80  TYR80       0.0534
     87  CG       -23.0040  -11.8300   16.4840 C.ar   80  TYR80      -0.0201
     88  CD1      -22.9090  -10.5360   16.9410 C.ar   80  TYR80      -0.0009
     89  CD2      -24.2320  -12.4630   16.5580 C.ar   80  TYR80      -0.0009
     90  CE1      -24.0190   -9.8750   17.4540 C.ar   80  TYR80       0.0417
     91  CE2      -25.3360  -11.8180   17.0630 C.ar   80  TYR80       0.0417
     92  CZ       -25.2260  -10.5290   17.5080 C.ar   80  TYR80       0.1957
     93  OH       -26.3320   -9.8920   18.0090 O.3    80  TYR80      -0.2866
     94  N        -19.7760  -16.1080   13.1040 N.3    82  VAL82      -0.1245
     95  CA       -20.6910  -16.6580   12.1030 C.3    82  VAL82       0.1561
     96  C        -19.9520  -17.6770   11.2400 C.2    82  VAL82       0.2260
     97  O        -18.9820  -17.3410   10.5500 O.2    82  VAL82      -0.2867
     98  CB       -21.2780  -15.5380   11.2270 C.3    82  VAL82       0.0252
     99  CG1      -22.2970  -16.0920   10.2380 C.3    82  VAL82       0.0019
    100  CG2      -21.8890  -14.4470   12.1000 C.3    82  VAL82       0.0019
    101  N        -22.7700   -8.9760    4.4910 N.3    90  TRP90      -0.1241
    102  CA       -22.0440   -8.3760    5.5990 C.3    90  TRP90       0.1605
    103  C        -21.3870   -7.0670    5.1740 C.2    90  TRP90       0.2264
    104  O        -20.7320   -7.0020    4.1260 O.2    90  TRP90      -0.2867
    105  CB       -20.9990   -9.3700    6.1140 C.3    90  TRP90       0.0550
    106  CG       -21.5850  -10.7610    6.2940 C.ar   90  TRP90       0.0003
    107  CD1      -21.4620  -11.8300    5.4470 C.ar   90  TRP90       0.0946
    108  CD2      -22.4180  -11.2020    7.3740 C.ar   90  TRP90       0.0152
    109  NE1      -22.1560  -12.9120    5.9450 N.ar   90  TRP90      -0.2442
    110  CE2      -22.7500  -12.5530    7.1250 C.ar   90  TRP90       0.0810
    111  CE3      -22.9000  -10.5940    8.5340 C.ar   90  TRP90       0.0012
    112  CZ2      -23.5420  -13.2960    7.9900 C.ar   90  TRP90       0.0191
    113  CZ3      -23.6940  -11.3330    9.3870 C.ar   90  TRP90       0.0001
    114  CH2      -23.9990  -12.6720    9.1160 C.ar   90  TRP90       0.0015
    115  N        -25.8190   -1.2460   17.9670 N.3   112  ARG112     -0.1245
    116  CA       -27.2800   -1.2330   17.9390 C.3   112  ARG112      0.1563
    117  C        -27.8160   -0.1660   18.8820 C.2   112  ARG112      0.2260
    118  O        -27.3020    0.0110   19.9890 O.2   112  ARG112     -0.2867
    119  CB       -27.8710   -2.5830   18.3410 C.3   112  ARG112      0.0307
    120  CG       -27.6250   -3.7200   17.3670 C.3   112  ARG112      0.0489
    121  CD       -28.1800   -3.4610   15.9850 C.3   112  ARG112      0.2205
    122  NE       -29.5800   -3.0690   16.0190 N.pl3 112  ARG112     -0.0865
    123  CZ       -30.5990   -3.9070   16.1790 C.cat 112  ARG112      0.5346
    124  NH1      -30.3930   -5.2080   16.3360 N.pl3 112  ARG112      0.1354
    125  NH2      -31.8350   -3.4350   16.1870 N.pl3 112  ARG112      0.1354
    126  N        -33.4050   -4.5570   21.5220 N.3   116  PRO116     -0.2102
    127  CA       -33.4590   -5.5430   22.6030 C.3   116  PRO116      0.1504
    128  C        -32.0990   -6.1530   22.9060 C.2   116  PRO116      0.2576
    129  O        -31.2920   -6.4070   22.0090 O.2   116  PRO116     -0.2718
    130  CB       -34.4330   -6.6070   22.0700 C.3   116  PRO116      0.0282
    131  CG       -35.1840   -5.9330   20.9800 C.3   116  PRO116      0.0208
    132  CD       -34.2240   -4.9690   20.3700 C.3   116  PRO116      0.0893
    133  N        -31.8670   -6.4040   24.1900 N.am  117  SER117     -0.1938
    134  CA       -30.6490   -7.0440   24.6620 C.3   117  SER117      0.2055
    135  C        -30.9950   -7.8180   25.9230 C.2   117  SER117      0.2642
    136  O        -32.1420   -7.8280   26.3730 O.2   117  SER117     -0.2714
    137  CB       -29.5460   -6.0310   24.9730 C.3   117  SER117      0.2130
    138  OG       -29.8590   -5.3350   26.1710 O.3   117  SER117     -0.2179
    139  N        -29.9810   -8.4430   26.5200 N.am  118  ILE118     -0.1977
    140  CA       -30.1830   -9.1200   27.7930 C.3   118  ILE118      0.1596
    141  C        -30.4700   -8.1440   28.9210 C.2   118  ILE118      0.2287
    142  O        -30.8370   -8.5740   30.0160 O.2   118  ILE118     -0.2864
    143  CB       -28.9640   -9.9860   28.1620 C.3   118  ILE118      0.0276
    144  CG1      -27.7010   -9.1270   28.2560 C.3   118  ILE118      0.0022
    145  CG2      -28.8250  -11.1580   27.1610 C.3   118  ILE118      0.0022
    146  CD1      -26.4810   -9.8630   28.8010 C.3   118  ILE118      0.0001
    147  N        -25.7720   -0.8300   22.5030 N.3   125  PHE125     -0.1241
    148  CA       -24.6140   -1.6720   22.7640 C.3   125  PHE125      0.1605
    149  C        -23.8020   -1.8850   21.4910 C.2   125  PHE125      0.2264
    150  O        -24.3380   -1.9540   20.3800 O.2   125  PHE125     -0.2867
    151  CB       -25.0290   -3.0330   23.3390 C.3   125  PHE125      0.0534
    152  CG       -26.0870   -3.7240   22.5340 C.ar  125  PHE125     -0.0203
    153  CD1      -27.4290   -3.4450   22.7310 C.ar  125  PHE125     -0.0042
    154  CD2      -25.7400   -4.6350   21.5440 C.ar  125  PHE125     -0.0042
    155  CE1      -28.4070   -4.0700   21.9730 C.ar  125  PHE125     -0.0003
    156  CE2      -26.7190   -5.2500   20.7800 C.ar  125  PHE125     -0.0003
    157  CZ       -28.0550   -4.9650   21.0060 C.ar  125  PHE125     -0.0000
    158  N        -21.3930   -4.2180   19.0760 N.3   127  GLN127     -0.1245
    159  CA       -21.3480   -5.6070   18.6380 C.3   127  GLN127      0.1566
    160  C        -19.9930   -5.9110   18.0030 C.2   127  GLN127      0.2260
    161  O        -19.4880   -5.1200   17.1910 O.2   127  GLN127     -0.2867
    162  CB       -22.4580   -5.9050   17.6310 C.3   127  GLN127      0.0367
    163  CG       -23.8660   -5.6210   18.1270 C.3   127  GLN127      0.0905
    164  CD       -24.8750   -5.6510   16.9940 C.2   127  GLN127      0.2608
    165  OE1      -24.8090   -4.8390   16.0630 O.2   127  GLN127     -0.2717
    166  NE2      -25.8100   -6.5820   17.0630 N.am  127  GLN127     -0.0878
    167  N        -17.9400   -8.8200   15.6850 N.3   129  TRP129     -0.1241
    168  CA       -18.2350   -9.8380   14.6780 C.3   129  TRP129      0.1605
    169  C        -16.9620  -10.4870   14.1710 C.2   129  TRP129      0.2264
    170  O        -15.9980   -9.7900   13.8340 O.2   129  TRP129     -0.2867
    171  CB       -18.9700   -9.2640   13.4550 C.3   129  TRP129      0.0550
    172  CG       -20.2630   -8.5930   13.7500 C.ar  129  TRP129      0.0003
    173  CD1      -20.4340   -7.3100   14.1780 C.ar  129  TRP129      0.0946
    174  CD2      -21.5760   -9.1460   13.5910 C.ar  129  TRP129      0.0152
    175  NE1      -21.7750   -7.0320   14.3130 N.ar  129  TRP129     -0.2442
    176  CE2      -22.4970   -8.1380   13.9450 C.ar  129  TRP129      0.0810
    177  CE3      -22.0610  -10.3880   13.1700 C.ar  129  TRP129      0.0012
    178  CZ2      -23.8720   -8.3420   13.9190 C.ar  129  TRP129      0.0191
    179  CZ3      -23.4330  -10.5890   13.1520 C.ar  129  TRP129      0.0001
    180  CH2      -24.3190   -9.5660   13.5190 C.ar  129  TRP129      0.0015
    181  N        -24.6990  -15.3870   28.6070 N.3   166  TYR166     -0.1241
    182  CA       -24.8160  -16.6390   27.8770 C.3   166  TYR166      0.1605
    183  C        -23.8910  -16.6740   26.6580 C.2   166  TYR166      0.2264
    184  O        -23.4200  -15.6540   26.1470 O.2   166  TYR166     -0.2867
    185  CB       -26.2700  -16.9100   27.4720 C.3   166  TYR166      0.0534
    186  CG       -26.8870  -16.0390   26.3720 C.ar  166  TYR166     -0.0201
    187  CD1      -26.4130  -16.0980   25.0600 C.ar  166  TYR166     -0.0009
    188  CD2      -27.9860  -15.2280   26.6300 C.ar  166  TYR166     -0.0009
    189  CE1      -26.9770  -15.3360   24.0560 C.ar  166  TYR166      0.0417
    190  CE2      -28.5650  -14.4580   25.6250 C.ar  166  TYR166      0.0417
    191  CZ       -28.0670  -14.5290   24.3380 C.ar  166  TYR166      0.1957
    192  OH       -28.6320  -13.7790   23.3240 O.3   166  TYR166     -0.2866
    193  N        -29.8190  -17.9230   14.1440 N.3   172  ALA172     -0.1231
    194  CA       -30.3370  -16.5710   14.2350 C.3   172  ALA172      0.1694
    195  C        -30.8020  -16.1130   12.8610 C.2   172  ALA172      0.2593
    196  O        -30.2930  -16.5650   11.8260 O.2   172  ALA172     -0.2718
    197  CB       -29.2780  -15.6090   14.7730 C.3   172  ALA172      0.0304
    198  N        -31.7830  -15.2230   12.8500 N.am  173  GLY173     -0.1942
    199  CA       -32.2890  -14.7860   11.5660 C.3   173  GLY173      0.2014
    200  C        -33.0540  -13.4850   11.6300 C.2   173  GLY173      0.2638
    201  O        -33.4020  -12.9720   12.6970 O.2   173  GLY173     -0.2714
    202  N        -33.3260  -12.9780   10.4330 N.am  174  TYR174     -0.1973
    203  CA       -34.0740  -11.7430   10.2400 C.3   174  TYR174      0.1639
    204  C        -34.8000  -11.8730    8.9190 C.2   174  TYR174      0.2290
    205  O        -34.1470  -12.0520    7.8850 O.2   174  TYR174     -0.2864
    206  CB       -33.1600  -10.5140   10.2150 C.3   174  TYR174      0.0560
    207  CG       -33.9470   -9.2340   10.0260 C.ar  174  TYR174     -0.0198
    208  CD1      -34.8220   -8.7970   11.0090 C.ar  174  TYR174     -0.0009
    209  CD2      -33.8360   -8.4810    8.8680 C.ar  174  TYR174     -0.0009
    210  CE1      -35.5570   -7.6390   10.8550 C.ar  174  TYR174      0.0417
    211  CE2      -34.5720   -7.3160    8.7020 C.ar  174  TYR174      0.0417
    212  CZ       -35.4310   -6.9030    9.7010 C.ar  174  TYR174      0.1957
    213  OH       -36.1710   -5.7520    9.5660 O.3   174  TYR174     -0.2866
@<TRIPOS>BOND
     1   104   103    2
     2   101   102    1
     3   103   102    1
     4    44    45    1
     5   107   109   ar
     6   107   106   ar
     7   102   105    1
     8   109   110   ar
     9    56    54   ar
    10    56    57   ar
    11    54    51   ar
    12   105   106    1
    13   106   108   ar
    14    45    48    1
    15    45    46    1
    16    48    49    1
    17    57    55   ar
    18    51    49   ar
    19    51    53   ar
    20   110   108   ar
    21   110   112   ar
    22   108   111   ar
    23    49    50   ar
    24    46    47    2
    25   205   204    2
    26    55    53   ar
    27   112   114   ar
    28    53    52   ar
    29   111   113   ar
    30    50    52   ar
    31   211   209   ar
    32   211   212   ar
    33   209   207   ar
    34   204   203    1
    35   114   113   ar
    36   213   212    1
    37   212   210   ar
    38    58    59    1
    39   207   206    1
    40   207   208   ar
    41   206   203    1
    42    99    98    1
    43   203   202    1
    44    59    62    1
    45    59    60    1
    46   202   200   am
    47    97    96    2
    48   210   208   ar
    49    98   100    1
    50    98    95    1
    51    96    95    1
    52    60    61    2
    53   199   200    1
    54   199   198    1
    55   200   201    2
    56   196   195    2
    57    95    94    1
    58    34    36   ar
    59    34    32   ar
    60    36    35   ar
    61   198   195   am
    62   195   194    1
    63   179   177   ar
    64   179   180   ar
    65   177   174   ar
    66    32    31   ar
    67   171   172    1
    68   171   168    1
    69   180   178   ar
    70   174   172   ar
    71   174   176   ar
    72    20    21    1
    73   172   173   ar
    74   170   169    2
    75    25    24    1
    76   178   176   ar
    77    35    33   ar
    78   176   175   ar
    79    63    64    1
    80   193   194    1
    81   169   168    1
    82   173   175   ar
    83   194   197    1
    84    21    24    1
    85    21    22    1
    86    67    64    1
    87   168   167    1
    88    64    65    1
    89    31    33   ar
    90    31    30    1
    91    22    26   am
    92    22    23    2
    93    26    27    1
    94    29    28    2
    95    30    27    1
    96    86    87    1
    97    86    83    1
    98    85    84    2
    99   121   122    1
   100   121   120    1
   101   122   123    2
   102   165   164    2
   103   123   125    1
   104   123   124    1
   105    65    66    2
   106    27    28    1
   107    84    83    1
   108    87    89   ar
   109    87    88   ar
   110    28    37   am
   111    89    91   ar
   112    88    90   ar
   113   164   166   am
   114   164   163    1
   115    83    82    1
   116    91    92   ar
   117   161   160    2
   118   120   119    1
   119    90    92   ar
   120    92    93    1
   121   162   163    1
   122   162   159    1
   123    37    38    1
   124    38    41    1
   125    38    39    1
   126   116   115    1
   127   116   119    1
   128   116   117    1
   129   160   159    1
   130    41    43    1
   131    41    42    1
   132   159   158    1
   133    39    40    2
   134   117   118    2
   135    12    11    2
   136    18    16   ar
   137    18    19   ar
   138    11    10    1
   139    16    14   ar
   140   132   131    1
   141   132   126    1
   142   150   149    2
   143   156   157   ar
   144   156   154   ar
   145   131   130    1
   146   157   155   ar
   147    19    17   ar
   148   149   148    1
   149   126   127    1
   150   154   152   ar
   151    10     9    1
   152    10    13    1
   153    14    13    1
   154    14    15   ar
   155   155   153   ar
   156   129   128    2
   157   130   127    1
   158     8     6    1
   159    17    15   ar
   160     4     3    2
   161   147   148    1
   162   152   153   ar
   163   152   151    1
   164   127   128    1
   165   148   151    1
   166   128   133   am
   167     6     5    1
   168     6     7    1
   169    79    81   ar
   170    79    77   ar
   171    81    80   ar
   172     3     2    1
   173   192   191    1
   174     5     2    1
   175    77    76   ar
   176    77    75   ar
   177    80    78   ar
   178    76    74   ar
   179   189   191   ar
   180   189   187   ar
   181   133   134    1
   182     2     1    1
   183   191   190   ar
   184    75    78   ar
   185    75    73   ar
   186   134   137    1
   187   134   135    1
   188    74    73   ar
   189   137   138    1
   190    68    69    1
   191   187   186   ar
   192    73    72    1
   193   190   188   ar
   194    69    72    1
   195    69    70    1
   196   135   136    2
   197   135   139   am
   198   184   183    2
   199   186   188   ar
   200   186   185    1
   201   139   140    1
   202   183   182    1
   203    70    71    2
   204   145   143    1
   205   185   182    1
   206   140   143    1
   207   140   141    1
   208   182   181    1
   209   143   144    1
   210   144   146    1
   211   141   142    2
