@<TRIPOS>MOLECULE
tmp/5tzrA00.pdb
 169 161 0 0 0
SMALL
GASTEIGER

@<TRIPOS>ATOM
      1  N        -50.5970    3.9020   62.4320 N.3    79  PRO79      -0.2102
      2  CA       -50.7640    2.8800   61.3730 C.3    79  PRO79       0.1504
      3  C        -50.5310    3.4180   59.9540 C.2    79  PRO79       0.2575
      4  O        -50.0130    2.6860   59.1110 O.2    79  PRO79      -0.2718
      5  CB       -52.2120    2.3980   61.5640 C.3    79  PRO79       0.0282
      6  CG       -52.5460    2.7470   63.0020 C.3    79  PRO79       0.0208
      7  CD       -51.8640    4.0840   63.1750 C.3    79  PRO79       0.0893
      8  N        -50.8960    4.6910   59.7000 N.am   80  VAL80      -0.1980
      9  CA       -50.7340    5.3430   58.3880 C.3    80  VAL80       0.1595
     10  C        -49.2460    5.5570   58.1310 C.2    80  VAL80       0.2287
     11  O        -48.7670    5.2630   57.0360 O.2    80  VAL80      -0.2864
     12  CB       -51.5690    6.6580   58.2420 C.3    80  VAL80       0.0276
     13  CG1      -51.4460    7.2380   56.8290 C.3    80  VAL80       0.0022
     14  CG2      -53.0470    6.4190   58.5900 C.3    80  VAL80       0.0022
     15  N        -46.9150    3.8020   59.5630 N.3    82  ALA82      -0.1231
     16  CA       -46.3520    2.4390   59.4800 C.3    82  ALA82       0.1694
     17  C        -46.2800    1.9500   58.0260 C.2    82  ALA82       0.2591
     18  O        -45.2060    1.5980   57.5480 O.2    82  ALA82      -0.2718
     19  CB       -47.1690    1.4650   60.3410 C.3    82  ALA82       0.0304
     20  N        -47.4080    1.9680   57.3230 N.am   83  VAL83      -0.1980
     21  CA       -47.4520    1.5200   55.9380 C.3    83  VAL83       0.1595
     22  C        -46.6930    2.4900   55.0020 C.2    83  VAL83       0.2287
     23  O        -45.9530    2.0120   54.1440 O.2    83  VAL83      -0.2864
     24  CB       -48.9090    1.1950   55.4680 C.3    83  VAL83       0.0276
     25  CG1      -49.8390    2.4080   55.5590 C.3    83  VAL83       0.0022
     26  CG2      -48.9330    0.5860   54.0680 C.3    83  VAL83       0.0022
     27  N        -42.5900    1.8090   55.9880 N.3    86  PHE86      -0.1241
     28  CA       -42.0490    0.4550   55.8250 C.3    86  PHE86       0.1605
     29  C        -42.4300   -0.3030   54.5470 C.2    86  PHE86       0.2264
     30  O        -41.5790   -1.0330   54.0540 O.2    86  PHE86      -0.2867
     31  CB       -42.3480   -0.3710   57.0760 C.3    86  PHE86       0.0534
     32  CG       -41.5470    0.1760   58.2480 C.ar   86  PHE86      -0.0203
     33  CD1      -40.2180   -0.2240   58.4570 C.ar   86  PHE86      -0.0042
     34  CD2      -42.0900    1.1420   59.0970 C.ar   86  PHE86      -0.0042
     35  CE1      -39.4770    0.2760   59.5320 C.ar   86  PHE86      -0.0003
     36  CE2      -41.3390    1.6610   60.1700 C.ar   86  PHE86      -0.0003
     37  CZ       -40.0390    1.2240   60.3790 C.ar   86  PHE86      -0.0000
     38  N        -39.1940   -1.7530   52.0510 N.3    90  TYR90      -0.1241
     39  CA       -38.9670   -3.1230   51.5720 C.3    90  TYR90       0.1605
     40  C        -39.2280   -3.3050   50.0630 C.2    90  TYR90       0.2264
     41  O        -38.4660   -4.0300   49.4240 O.2    90  TYR90      -0.2867
     42  CB       -39.8250   -4.1240   52.3570 C.3    90  TYR90       0.0534
     43  CG       -39.3270   -4.3600   53.7610 C.ar   90  TYR90      -0.0201
     44  CD1      -38.2480   -5.2120   54.0090 C.ar   90  TYR90      -0.0009
     45  CD2      -39.9530   -3.7640   54.8500 C.ar   90  TYR90      -0.0009
     46  CE1      -37.7980   -5.4470   55.3100 C.ar   90  TYR90       0.0417
     47  CE2      -39.5290   -4.0130   56.1520 C.ar   90  TYR90       0.0417
     48  CZ       -38.4440   -4.8420   56.3790 C.ar   90  TYR90       0.1957
     49  OH       -38.0420   -5.0770   57.6720 O.3    90  TYR90      -0.2866
     50  N        -47.3890   -5.7990   51.3880 N.3   126  LEU126     -0.1245
     51  CA       -48.5840   -5.3760   52.1330 C.3   126  LEU126      0.1561
     52  C        -49.2220   -6.5070   52.9330 C.2   126  LEU126      0.2260
     53  O        -49.6590   -6.2520   54.0590 O.2   126  LEU126     -0.2867
     54  CB       -49.6120   -4.6410   51.2260 C.3   126  LEU126      0.0270
     55  CG       -49.0620   -3.3150   50.6150 C.3   126  LEU126      0.0019
     56  CD1      -49.9630   -2.7550   49.4910 C.3   126  LEU126      0.0001
     57  CD2      -48.7520   -2.2760   51.6710 C.3   126  LEU126      0.0001
     58  N        -46.4940   -7.3300   55.8660 N.3   129  LEU129     -0.1231
     59  CA       -46.5250   -6.3010   56.8960 C.3   129  LEU129      0.1693
     60  C        -47.8790   -6.1920   57.5530 C.2   129  LEU129      0.2592
     61  O        -47.9340   -6.1110   58.7800 O.2   129  LEU129     -0.2718
     62  CB       -46.0520   -4.9430   56.3610 C.3   129  LEU129      0.0284
     63  CG       -44.6020   -4.8560   55.8290 C.3   129  LEU129      0.0019
     64  CD1      -44.3870   -3.5240   55.1230 C.3   129  LEU129      0.0001
     65  CD2      -43.5910   -5.0080   56.9410 C.3   129  LEU129      0.0001
     66  N        -48.9430   -6.2390   56.7410 N.am  130  GLY130     -0.1957
     67  CA       -50.3250   -6.1310   57.2050 C.3   130  GLY130      0.1869
     68  C        -50.7440   -7.2010   58.1840 C.2   130  GLY130      0.2309
     69  O        -51.3280   -6.8830   59.2200 O.2   130  GLY130     -0.2863
     70  N        -48.6740   -9.3160   59.9870 N.3   132  VAL132     -0.1231
     71  CA       -47.8850   -9.2120   61.2310 C.3   132  VAL132      0.1692
     72  C        -48.3930   -8.0670   62.1100 C.2   132  VAL132      0.2592
     73  O        -48.5990   -8.2750   63.3000 O.2   132  VAL132     -0.2718
     74  CB       -46.3510   -9.1390   60.9740 C.3   132  VAL132      0.0266
     75  CG1      -45.5810   -8.9410   62.2750 C.3   132  VAL132      0.0020
     76  CG2      -45.8520  -10.3880   60.2350 C.3   132  VAL132      0.0020
     77  N        -48.6410   -6.8740   61.5170 N.am  133  PHE133     -0.1962
     78  CA       -49.1210   -5.6870   62.2340 C.3   133  PHE133      0.1771
     79  C        -50.5390   -5.8710   62.7750 C.2   133  PHE133      0.2620
     80  O        -50.7620   -5.7000   63.9690 O.2   133  PHE133     -0.2715
     81  CB       -49.0690   -4.4620   61.3080 C.3   133  PHE133      0.0574
     82  CG       -49.3630   -3.1180   61.9270 C.ar  133  PHE133     -0.0200
     83  CD1      -48.3650   -2.4020   62.5840 C.ar  133  PHE133     -0.0042
     84  CD2      -50.6090   -2.5210   61.7680 C.ar  133  PHE133     -0.0042
     85  CE1      -48.6230   -1.1310   63.1190 C.ar  133  PHE133     -0.0003
     86  CE2      -50.8580   -1.2370   62.2840 C.ar  133  PHE133     -0.0003
     87  CZ       -49.8710   -0.5620   62.9740 C.ar  133  PHE133     -0.0000
     88  N        -51.4810   -6.2040   61.8940 N.am  134  GLY134     -0.1954
     89  CA       -52.8810   -6.4050   62.2480 C.3   134  GLY134      0.1869
     90  C        -53.0730   -7.4140   63.3610 C.2   134  GLY134      0.2309
     91  O        -53.9080   -7.2110   64.2310 O.2   134  GLY134     -0.2863
     92  N        -52.0860   -3.1800   70.3070 N.3   139  GLY139     -0.1225
     93  CA       -53.3980   -2.6980   69.8930 C.3   139  GLY139      0.1811
     94  C        -53.9890   -3.4650   68.7250 C.2   139  GLY139      0.2280
     95  O        -55.0390   -3.0800   68.2010 O.2   139  GLY139     -0.2866
     96  N        -53.5360    1.2030   68.0380 N.3   149  LEU149     -0.1245
     97  CA       -52.8470    0.3240   67.0970 C.3   149  LEU149      0.1561
     98  C        -51.4290    0.8240   66.7330 C.2   149  LEU149      0.2260
     99  O        -51.2790    1.9610   66.3100 O.2   149  LEU149     -0.2867
    100  CB       -53.7360    0.1320   65.8560 C.3   149  LEU149      0.0270
    101  CG       -53.2860   -0.9060   64.8300 C.3   149  LEU149      0.0019
    102  CD1      -53.2620   -2.3140   65.4060 C.3   149  LEU149      0.0001
    103  CD2      -54.1530   -0.8530   63.6080 C.3   149  LEU149      0.0001
    104  N        -44.3180    1.8990   66.8150 N.3   162  LEU162     -0.1245
    105  CA       -43.5680    0.7530   66.2690 C.3   162  LEU162      0.1561
    106  C        -42.2270    0.3980   66.8840 C.2   162  LEU162      0.2260
    107  O        -41.9360   -0.7960   66.9790 O.2   162  LEU162     -0.2867
    108  CB       -43.3160    0.9320   64.7350 C.3   162  LEU162      0.0270
    109  CG       -44.5410    0.9750   63.8270 C.3   162  LEU162      0.0019
    110  CD1      -44.1680    1.5210   62.4940 C.3   162  LEU162      0.0001
    111  CD2      -45.1690   -0.4050   63.6820 C.3   162  LEU162      0.0001
    112  N        -41.9290   -2.1870   69.7800 N.3   165  TRP165     -0.1241
    113  CA       -42.6080   -3.4570   69.4830 C.3   165  TRP165      0.1605
    114  C        -41.7480   -4.6120   69.9810 C.2   165  TRP165      0.2264
    115  O        -40.5310   -4.6130   69.7920 O.2   165  TRP165     -0.2867
    116  CB       -42.7780   -3.5900   67.9560 C.3   165  TRP165      0.0550
    117  CG       -43.7300   -4.6290   67.4270 C.ar  165  TRP165      0.0003
    118  CD1      -44.1670   -5.7620   68.0530 C.ar  165  TRP165      0.0946
    119  CD2      -44.2950   -4.6560   66.1110 C.ar  165  TRP165      0.0152
    120  NE1      -44.9970   -6.4760   67.2190 N.ar  165  TRP165     -0.2442
    121  CE2      -45.0820   -5.8280   66.0140 C.ar  165  TRP165      0.0810
    122  CE3      -44.2070   -3.8060   64.9940 C.ar  165  TRP165      0.0012
    123  CZ2      -45.7890   -6.1630   64.8500 C.ar  165  TRP165      0.0191
    124  CZ3      -44.9420   -4.1200   63.8580 C.ar  165  TRP165      0.0001
    125  CH2      -45.7150   -5.2910   63.7920 C.ar  165  TRP165      0.0015
    126  N        -41.6750   -8.7530   66.1290 N.3   170  ALA170     -0.1245
    127  CA       -41.1750   -7.9560   65.0130 C.3   170  ALA170      0.1562
    128  C        -39.9360   -8.5360   64.3430 C.2   170  ALA170      0.2260
    129  O        -39.8360   -8.4690   63.1220 O.2   170  ALA170     -0.2867
    130  CB       -40.9220   -6.5230   65.4560 C.3   170  ALA170      0.0290
    131  N        -40.3730  -11.2160   61.5990 N.3   173  ALA173     -0.1231
    132  CA       -41.0810  -10.5650   60.4840 C.3   173  ALA173      0.1694
    133  C        -40.0970   -9.7450   59.6360 C.2   173  ALA173      0.2591
    134  O        -40.1380   -9.8140   58.4100 O.2   173  ALA173     -0.2718
    135  CB       -42.2040   -9.6720   61.0170 C.3   173  ALA173      0.0304
    136  N        -39.2060   -8.9740   60.3020 N.am  174  ARG174     -0.1980
    137  CA       -38.2050   -8.1140   59.6590 C.3   174  ARG174      0.1597
    138  C        -37.1750   -8.9630   58.9340 C.2   174  ARG174      0.2287
    139  O        -36.8160   -8.6590   57.7990 O.2   174  ARG174     -0.2864
    140  CB       -37.4680   -7.3110   60.7400 C.3   174  ARG174      0.0334
    141  CG       -38.2000   -6.0880   61.2580 C.3   174  ARG174      0.0492
    142  CD       -37.5210   -5.5790   62.5140 C.3   174  ARG174      0.2205
    143  NE       -38.3370   -4.5790   63.1890 N.pl3 174  ARG174     -0.0865
    144  CZ       -38.2340   -4.2630   64.4690 C.cat 174  ARG174      0.5346
    145  NH1      -37.3370   -4.8660   65.2380 N.pl3 174  ARG174      0.1354
    146  NH2      -39.0310   -3.3430   64.9960 N.pl3 174  ARG174      0.1354
    147  N        -29.8360   -1.2000   56.6210 N.3   393  TYR393     -0.1241
    148  CA       -31.0840   -1.4350   57.3410 C.3   393  TYR393      0.1605
    149  C        -31.4100   -2.9400   57.3710 C.2   393  TYR393      0.2264
    150  O        -31.7690   -3.4510   58.4200 O.2   393  TYR393     -0.2867
    151  CB       -32.2830   -0.6430   56.7700 C.3   393  TYR393      0.0534
    152  CG       -33.5470   -0.9860   57.5410 C.ar  393  TYR393     -0.0201
    153  CD1      -33.6870   -0.6270   58.8790 C.ar  393  TYR393     -0.0009
    154  CD2      -34.5550   -1.7650   56.9630 C.ar  393  TYR393     -0.0009
    155  CE1      -34.8080   -1.0030   59.6170 C.ar  393  TYR393      0.0417
    156  CE2      -35.6870   -2.1430   57.6930 C.ar  393  TYR393      0.0417
    157  CZ       -35.8040   -1.7570   59.0210 C.ar  393  TYR393      0.1957
    158  OH       -36.8820   -2.0990   59.7820 O.3   393  TYR393     -0.2866
    159  N        -29.7480   -0.3290   64.2680 N.3   411  ARG411     -0.1245
    160  CA       -31.0520   -0.2110   63.6110 C.3   411  ARG411      0.1563
    161  C        -31.3550    1.2840   63.3310 C.2   411  ARG411      0.2260
    162  O        -31.8040    1.6300   62.2300 O.2   411  ARG411     -0.2867
    163  CB       -32.1410   -0.8470   64.4900 C.3   411  ARG411      0.0307
    164  CG       -33.5260   -0.6080   63.9430 C.3   411  ARG411      0.0489
    165  CD       -34.6220   -1.2420   64.7740 C.3   411  ARG411      0.2205
    166  NE       -35.9070   -0.8460   64.2010 N.pl3 411  ARG411     -0.0865
    167  CZ       -36.4840   -1.4240   63.1590 C.cat 411  ARG411      0.5346
    168  NH1      -35.9180   -2.4790   62.5740 N.pl3 411  ARG411      0.1354
    169  NH2      -37.6400   -0.9690   62.7030 N.pl3 411  ARG411      0.1354
@<TRIPOS>BOND
     1    41    40    2
     2    56    55    1
     3    40    39    1
     4    55    54    1
     5    55    57    1
     6    54    51    1
     7    50    51    1
     8    39    38    1
     9    39    42    1
    10    51    52    1
    11    42    43    1
    12    52    53    2
    13    43    44   ar
    14    43    45   ar
    15    44    46   ar
    16    30    29    2
    17    26    24    1
    18    23    22    2
    19    29    28    1
    20    45    47   ar
    21    22    21    1
    22    64    63    1
    23    46    48   ar
    24    24    25    1
    25    24    21    1
    26    28    27    1
    27    28    31    1
    28    63    62    1
    29    63    65    1
    30    58    59    1
    31    21    20    1
    32    47    48   ar
    33    62    59    1
    34    48    49    1
    35   147   148    1
    36    66    67    1
    37    66    60   am
    38   151   148    1
    39   151   152    1
    40    13    12    1
    41    59    60    1
    42   154   152   ar
    43   154   156   ar
    44    11    10    2
    45    31    32    1
    46    67    68    1
    47    20    17   am
    48   148   149    1
    49   149   150    2
    50   152   153   ar
    51    18    17    2
    52    60    61    2
    53   156   157   ar
    54   139   138    2
    55    17    16    1
    56    10     9    1
    57    68    69    2
    58    12     9    1
    59    12    14    1
    60    32    33   ar
    61    32    34   ar
    62     9     8    1
    63   134   133    2
    64    33    35   ar
    65   153   155   ar
    66   138   137    1
    67   157   155   ar
    68   157   158    1
    69    34    36   ar
    70     4     3    2
    71    16    15    1
    72    16    19    1
    73    35    37   ar
    74   133   136   am
    75   133   132    1
    76   137   136    1
    77   137   140    1
    78     8     3   am
    79     3     2    1
    80    70    71    1
    81    36    37   ar
    82    76    74    1
    83   132   135    1
    84   132   131    1
    85   140   141    1
    86    74    71    1
    87    74    75    1
    88    71    72    1
    89   141   142    1
    90    81    82    1
    91    81    78    1
    92     2     5    1
    93     2     1    1
    94    77    72   am
    95    77    78    1
    96     5     6    1
    97    84    82   ar
    98    84    86   ar
    99    88    89    1
   100    88    79   am
   101    82    83   ar
   102    72    73    2
   103   162   161    2
   104    78    79    1
   105    89    90    1
   106    86    87   ar
   107     1     7    1
   108   110   109    1
   109   142   143    1
   110   168   167    1
   111    83    85   ar
   112   169   167    1
   113    79    80    2
   114    87    85   ar
   115     6     7    1
   116   129   128    2
   117   167   166    2
   118   143   144    2
   119   161   160    1
   120    90    91    2
   121   103   101    1
   122   160   159    1
   123   160   163    1
   124   111   109    1
   125   125   124   ar
   126   125   123   ar
   127   109   108    1
   128   124   122   ar
   129   164   163    1
   130   164   165    1
   131   166   165    1
   132   128   127    1
   133   144   146    1
   134   144   145    1
   135   108   105    1
   136   101   102    1
   137   101   100    1
   138   123   121   ar
   139   122   119   ar
   140   127   130    1
   141   127   126    1
   142   100    97    1
   143   121   119   ar
   144   121   120   ar
   145   119   117   ar
   146   105   104    1
   147   105   106    1
   148    99    98    2
   149    98    97    1
   150   106   107    2
   151    97    96    1
   152   120   118   ar
   153   117   116    1
   154   117   118   ar
   155   116   113    1
   156    95    94    2
   157    94    93    1
   158   113   112    1
   159   113   114    1
   160   115   114    2
   161    93    92    1
