@<TRIPOS>MOLECULE
tmp/5tzrA05.pdb
 94 88 0 0 0
SMALL
GASTEIGER

@<TRIPOS>ATOM
      1  N        -25.7090   -7.1660   36.8350 N.3   193  PHE193     -0.1241
      2  CA       -24.5670   -6.2710   36.6270 C.3   193  PHE193      0.1605
      3  C        -23.4440   -7.0230   35.9130 C.2   193  PHE193      0.2264
      4  O        -22.9500   -6.5480   34.8920 O.2   193  PHE193     -0.2867
      5  CB       -24.0850   -5.6490   37.9550 C.3   193  PHE193      0.0534
      6  CG       -22.8820   -4.7420   37.8250 C.ar  193  PHE193     -0.0203
      7  CD1      -22.8890   -3.6710   36.9370 C.ar  193  PHE193     -0.0042
      8  CD2      -21.7500   -4.9460   38.6040 C.ar  193  PHE193     -0.0042
      9  CE1      -21.7820   -2.8310   36.8220 C.ar  193  PHE193     -0.0003
     10  CE2      -20.6390   -4.1030   38.4900 C.ar  193  PHE193     -0.0003
     11  CZ       -20.6600   -3.0550   37.5990 C.ar  193  PHE193     -0.0000
     12  N        -21.9090   -6.5930   32.0780 N.3   197  LEU197     -0.1245
     13  CA       -20.4840   -6.4540   31.7720 C.3   197  LEU197      0.1561
     14  C        -20.0410   -7.4750   30.7150 C.2   197  LEU197      0.2260
     15  O        -19.3880   -7.0940   29.7390 O.2   197  LEU197     -0.2867
     16  CB       -19.5980   -6.4930   33.0350 C.3   197  LEU197      0.0270
     17  CG       -19.8150   -5.3860   34.1000 C.3   197  LEU197      0.0019
     18  CD1      -18.8640   -5.5600   35.2600 C.3   197  LEU197      0.0001
     19  CD2      -19.6730   -3.9600   33.5120 C.3   197  LEU197      0.0001
     20  N        -21.3750   -6.8180   27.1450 N.3   200  LEU200     -0.1245
     21  CA       -20.6360   -5.7440   26.4730 C.3   200  LEU200      0.1561
     22  C        -19.3770   -6.3180   25.8300 C.2   200  LEU200      0.2260
     23  O        -19.0250   -5.9440   24.7140 O.2   200  LEU200     -0.2867
     24  CB       -20.2120   -4.6690   27.4890 C.3   200  LEU200      0.0270
     25  CG       -21.2680   -3.6890   27.9430 C.3   200  LEU200      0.0019
     26  CD1      -20.9640   -3.1990   29.3440 C.3   200  LEU200      0.0001
     27  CD2      -21.3990   -2.5380   26.9620 C.3   200  LEU200      0.0001
     28  N        -16.0600   -0.1320   22.9700 N.3   362  ASP362     -0.1239
     29  CA       -16.3490    1.2650   23.3430 C.3   362  ASP362      0.1674
     30  C        -16.1330    2.3110   22.2520 C.2   362  ASP362      0.2266
     31  O        -16.8490    3.3190   22.2520 O.2   362  ASP362     -0.2867
     32  CB       -15.5840    1.6650   24.6090 C.3   362  ASP362      0.1410
     33  CG       -16.0740    0.9590   25.8750 C.2   362  ASP362      0.3668
     34  OD1      -17.1980    0.3760   25.8480 O.co2 362  ASP362     -0.2456
     35  OD2      -15.3480    0.9970   26.8910 O.co2 362  ASP362     -0.2456
     36  N        -24.4210   -0.3470   27.5640 N.3   373  LEU373     -0.1245
     37  CA       -23.7220    0.5550   28.4970 C.3   373  LEU373      0.1561
     38  C        -24.7210    1.1190   29.5020 C.2   373  LEU373      0.2260
     39  O        -24.4220    1.1840   30.6900 O.2   373  LEU373     -0.2867
     40  CB       -23.0160    1.7260   27.7920 C.3   373  LEU373      0.0270
     41  CG       -21.6910    1.4340   27.0400 C.3   373  LEU373      0.0019
     42  CD1      -21.2130    2.6790   26.3280 C.3   373  LEU373      0.0001
     43  CD2      -20.5880    0.9770   27.9920 C.3   373  LEU373      0.0001
     44  N        -25.7370   -1.5480   32.0390 N.3   376  ALA376     -0.1231
     45  CA       -24.6550   -1.7540   33.0200 C.3   376  ALA376      0.1694
     46  C        -24.6470   -0.6700   34.0790 C.2   376  ALA376      0.2592
     47  O        -24.4710   -0.9910   35.2540 O.2   376  ALA376     -0.2718
     48  CB       -23.2980   -1.8360   32.3320 C.3   376  ALA376      0.0304
     49  N        -24.8620    0.6070   33.6660 N.am  377  TRP377     -0.1976
     50  CA       -24.9090    1.7640   34.5590 C.3   377  TRP377      0.1640
     51  C        -26.0830    1.6750   35.5420 C.2   377  TRP377      0.2290
     52  O        -25.8920    1.9210   36.7350 O.2   377  TRP377     -0.2864
     53  CB       -24.9210    3.0860   33.7820 C.3   377  TRP377      0.0576
     54  CG       -23.5430    3.5610   33.4400 C.ar  377  TRP377      0.0006
     55  CD1      -22.8900    3.3940   32.2550 C.ar  377  TRP377      0.0946
     56  CD2      -22.6230    4.2250   34.3160 C.ar  377  TRP377      0.0152
     57  NE1      -21.6260    3.9310   32.3300 N.ar  377  TRP377     -0.2442
     58  CE2      -21.4320    4.4430   33.5860 C.ar  377  TRP377      0.0810
     59  CE3      -22.6820    4.6460   35.6560 C.ar  377  TRP377      0.0012
     60  CZ2      -20.3120    5.0680   34.1470 C.ar  377  TRP377      0.0191
     61  CZ3      -21.5700    5.2650   36.2110 C.ar  377  TRP377      0.0001
     62  CH2      -20.4060    5.4760   35.4590 C.ar  377  TRP377      0.0015
     63  N        -25.3290   -1.3090   37.9290 N.3   380  GLY380     -0.1210
     64  CA       -24.2420   -0.9190   38.8330 C.3   380  GLY380      0.1956
     65  C        -24.7150    0.1200   39.8500 C.2   380  GLY380      0.2612
     66  O        -24.3600    0.0590   41.0320 O.2   380  GLY380     -0.2717
     67  N        -25.5160    1.0780   39.3750 N.am  381  GLY381     -0.1956
     68  CA       -26.1050    2.1370   40.1870 C.3   381  GLY381      0.1869
     69  C        -27.0810    1.5350   41.1790 C.2   381  GLY381      0.2309
     70  O        -27.0440    1.8900   42.3560 O.2   381  GLY381     -0.2863
     71  N        -27.0330   -1.5380   42.4100 N.3   383  LEU383     -0.1231
     72  CA       -26.1890   -2.3000   43.3410 C.3   383  LEU383      0.1693
     73  C        -25.6560   -1.3790   44.4260 C.2   383  LEU383      0.2591
     74  O        -25.7910   -1.6990   45.5990 O.2   383  LEU383     -0.2718
     75  CB       -25.0440   -2.9750   42.5490 C.3   383  LEU383      0.0284
     76  CG       -24.3610   -4.2040   43.1320 C.3   383  LEU383      0.0019
     77  CD1      -25.3720   -5.3000   43.5140 C.3   383  LEU383      0.0001
     78  CD2      -23.3610   -4.7790   42.1270 C.3   383  LEU383      0.0001
     79  N        -25.1160   -0.2110   44.0430 N.am  384  LEU384     -0.1980
     80  CA       -24.5950    0.8110   44.9610 C.3   384  LEU384      0.1596
     81  C        -25.6680    1.3090   45.9560 C.2   384  LEU384      0.2287
     82  O        -25.3900    1.3960   47.1480 O.2   384  LEU384     -0.2864
     83  CB       -24.0690    2.0030   44.1400 C.3   384  LEU384      0.0297
     84  CG       -23.5370    3.2090   44.9240 C.3   384  LEU384      0.0022
     85  CD1      -22.0610    3.0330   45.2640 C.3   384  LEU384      0.0001
     86  CD2      -23.7610    4.5060   44.1530 C.3   384  LEU384      0.0001
     87  N        -26.6100   -1.4820   48.3830 N.3   387  LEU387     -0.1245
     88  CA       -25.5970   -1.6590   49.4290 C.3   387  LEU387      0.1561
     89  C        -25.4630   -0.5030   50.4140 C.2   387  LEU387      0.2260
     90  O        -25.1620   -0.7480   51.5700 O.2   387  LEU387     -0.2867
     91  CB       -24.2150   -1.9700   48.8080 C.3   387  LEU387      0.0270
     92  CG       -24.0950   -3.2980   48.0270 C.3   387  LEU387      0.0019
     93  CD1      -22.8910   -3.2520   47.0610 C.3   387  LEU387      0.0001
     94  CD2      -23.9990   -4.4890   48.9660 C.3   387  LEU387      0.0001
@<TRIPOS>BOND
     1    30    31    2
     2    30    29    1
     3    28    29    1
     4    29    32    1
     5    32    33    1
     6    23    22    2
     7    22    21    1
     8    34    33   ar
     9    33    35   ar
    10    42    41    1
    11    21    20    1
    12    21    24    1
    13    27    25    1
    14    41    40    1
    15    41    43    1
    16    24    25    1
    17    36    37    1
    18    40    37    1
    19    25    26    1
    20    37    38    1
    21    38    39    2
    22    15    14    2
    23    14    13    1
    24    13    12    1
    25    13    16    1
    26    44    45    1
    27    55    57   ar
    28    55    54   ar
    29    57    58   ar
    30    48    45    1
    31    45    46    1
    32    16    17    1
    33    54    53    1
    34    54    56   ar
    35    19    17    1
    36    58    60   ar
    37    58    56   ar
    38    49    46   am
    39    49    50    1
    40    53    50    1
    41    46    47    2
    42    17    18    1
    43    60    62   ar
    44    56    59   ar
    45    50    51    1
    46     4     3    2
    47    62    61   ar
    48    51    52    2
    49    59    61   ar
    50     3     2    1
    51     2     1    1
    52     2     5    1
    53     9     7   ar
    54     9    11   ar
    55     7     6   ar
    56    11    10   ar
    57     6     5    1
    58     6     8   ar
    59    63    64    1
    60    10     8   ar
    61    64    65    1
    62    67    65   am
    63    67    68    1
    64    65    66    2
    65    68    69    1
    66    69    70    2
    67    78    76    1
    68    71    72    1
    69    75    76    1
    70    75    72    1
    71    76    77    1
    72    72    73    1
    73    79    73   am
    74    79    80    1
    75    83    84    1
    76    83    80    1
    77    86    84    1
    78    73    74    2
    79    84    85    1
    80    80    81    1
    81    81    82    2
    82    93    92    1
    83    92    91    1
    84    92    94    1
    85    87    88    1
    86    91    88    1
    87    88    89    1
    88    89    90    2
