@<TRIPOS>MOLECULE
tmp/5tzrA01.pdb
 88 81 0 0 0
SMALL
GASTEIGER

@<TRIPOS>ATOM
      1  N        -17.0310    0.9150    7.1150 N.3   214  GLU214     -0.1245
      2  CA       -17.1370    0.9150    5.6450 C.3   214  GLU214      0.1567
      3  C        -18.4060    1.5100    5.0730 C.2   214  GLU214      0.2260
      4  O        -18.3510    2.1300    4.0060 O.2   214  GLU214     -0.2867
      5  CB       -16.9330   -0.5000    5.0610 C.3   214  GLU214      0.0388
      6  CG       -15.5670   -1.1260    5.3340 C.3   214  GLU214      0.1160
      7  CD       -14.3360   -0.3690    4.8510 C.2   214  GLU214      0.3649
      8  OE1      -14.4680    0.4920    3.9490 O.co2 214  GLU214     -0.2457
      9  OE2      -13.2330   -0.6360    5.3820 O.co2 214  GLU214     -0.2457
     10  N        -18.7690    3.6690   -6.6520 N.3   221  TYR221     -0.1241
     11  CA       -18.3470    5.0110   -6.2610 C.3   221  TYR221      0.1605
     12  C        -16.8200    5.0370   -6.1430 C.2   221  TYR221      0.2264
     13  O        -16.1940    3.9830   -6.0520 O.2   221  TYR221     -0.2867
     14  CB       -19.0140    5.4310   -4.9290 C.3   221  TYR221      0.0534
     15  CG       -18.5390    4.6610   -3.7130 C.ar  221  TYR221     -0.0201
     16  CD1      -18.9950    3.3720   -3.4570 C.ar  221  TYR221     -0.0009
     17  CD2      -17.6360    5.2240   -2.8160 C.ar  221  TYR221     -0.0009
     18  CE1      -18.5460    2.6540   -2.3510 C.ar  221  TYR221      0.0417
     19  CE2      -17.1820    4.5160   -1.7060 C.ar  221  TYR221      0.0417
     20  CZ       -17.6490    3.2360   -1.4710 C.ar  221  TYR221      0.1957
     21  OH       -17.2160    2.5440   -0.3690 O.3   221  TYR221     -0.2866
     22  N        -13.6790    5.7580   -3.8720 N.3   223  ASP223     -0.1239
     23  CA       -13.3310    5.8410   -2.4500 C.3   223  ASP223      0.1674
     24  C        -12.5040    7.1310   -2.1660 C.2   223  ASP223      0.2266
     25  O        -12.3170    7.9680   -3.0640 O.2   223  ASP223     -0.2867
     26  CB       -12.5870    4.5590   -2.0080 C.3   223  ASP223      0.1410
     27  CG       -11.1610    4.3760   -2.5140 C.2   223  ASP223      0.3668
     28  OD1      -10.6280    5.3050   -3.1700 O.co2 223  ASP223     -0.2456
     29  OD2      -10.5690    3.3090   -2.2450 O.co2 223  ASP223     -0.2456
     30  N         -9.3120    7.5610   -1.8550 N.3   225  GLU225     -0.1245
     31  CA        -8.1090    7.6320   -2.7070 C.3   225  GLU225      0.1567
     32  C         -8.4530    7.7880   -4.2010 C.2   225  GLU225      0.2260
     33  O         -7.5520    8.0120   -5.0200 O.2   225  GLU225     -0.2867
     34  CB        -7.2150    6.3930   -2.5090 C.3   225  GLU225      0.0388
     35  CG        -6.4830    6.3400   -1.1800 C.3   225  GLU225      0.1160
     36  CD        -5.5880    5.1240   -1.0370 C.2   225  GLU225      0.3649
     37  OE1       -6.1280    3.9960   -0.9730 O.co2 225  GLU225     -0.2457
     38  OE2       -4.3480    5.2960   -0.9930 O.co2 225  GLU225     -0.2457
     39  N        -14.9980    1.5300   -6.0420 N.3   229  THR229     -0.1218
     40  CA       -15.4300    0.7220   -4.9110 C.3   229  THR229      0.1862
     41  C        -16.9500    0.5430   -4.9510 C.2   229  THR229      0.2287
     42  O        -17.6660    1.3790   -5.5160 O.2   229  THR229     -0.2866
     43  CB       -14.9700    1.4750   -3.6300 C.3   229  THR229      0.1770
     44  OG1      -13.5850    1.8150   -3.7640 O.3   229  THR229     -0.2211
     45  CG2      -15.1740    0.6900   -2.3450 C.3   229  THR229      0.0375
     46  N        -17.1520   -1.4530    1.4980 N.3   233  GLY233     -0.1225
     47  CA       -15.7260   -1.2380    1.2440 C.3   233  GLY233      0.1811
     48  C        -15.0520   -2.2710    0.3490 C.2   233  GLY233      0.2280
     49  O        -13.9170   -2.6720    0.6160 O.2   233  GLY233     -0.2866
     50  N        -13.1310   -3.0330   -2.7800 N.3   235  LEU235     -0.1245
     51  CA       -12.3300   -2.3940   -3.8310 C.3   235  LEU235      0.1561
     52  C        -12.5580   -3.1760   -5.1250 C.2   235  LEU235      0.2260
     53  O        -12.3540   -4.3950   -5.1420 O.2   235  LEU235     -0.2867
     54  CB       -10.8260   -2.3780   -3.4620 C.3   235  LEU235      0.0270
     55  CG        -9.8300   -1.9580   -4.5800 C.3   235  LEU235      0.0019
     56  CD1       -9.9730   -0.4770   -4.9230 C.3   235  LEU235      0.0001
     57  CD2       -8.3910   -2.2710   -4.1760 C.3   235  LEU235      0.0001
     58  N         -8.4340   -6.0640    6.2790 N.3   307  PHE307     -0.1227
     59  CA        -9.5080   -5.7350    5.3430 C.3   307  PHE307      0.1736
     60  C         -9.2480   -4.3800    4.6670 C.2   307  PHE307      0.2598
     61  O         -9.5430   -4.2300    3.4820 O.2   307  PHE307     -0.2717
     62  CB       -10.8470   -5.6560    6.0950 C.3   307  PHE307      0.0547
     63  CG       -12.0950   -5.4950    5.2560 C.ar  307  PHE307     -0.0202
     64  CD1      -12.5050   -4.2440    4.8250 C.ar  307  PHE307     -0.0042
     65  CD2      -12.8980   -6.5880    4.9620 C.ar  307  PHE307     -0.0042
     66  CE1      -13.6890   -4.0910    4.0950 C.ar  307  PHE307     -0.0003
     67  CE2      -14.0860   -6.4320    4.2470 C.ar  307  PHE307     -0.0003
     68  CZ       -14.4720   -5.1880    3.8130 C.ar  307  PHE307     -0.0000
     69  N         -8.7220   -3.4000    5.4090 N.am  308  GLN308     -0.1934
     70  CA        -8.4680   -2.0570    4.8770 C.3   308  GLN308      0.1817
     71  C         -7.1540   -1.8990    4.1060 C.2   308  GLN308      0.2332
     72  O         -7.1270   -1.1790    3.1140 O.2   308  GLN308     -0.2860
     73  CB        -8.5480   -1.0040    6.0110 C.2   308  GLN308      0.0077
     74  CG        -8.4890    0.4660    5.5430 C.2   308  GLN308      0.0587
     75  CD        -8.2640    1.4870    6.6500 C.2   308  GLN308      0.2841
     76  OE1       -8.2500    1.1830    7.8450 O.2   308  GLN308     -0.2667
     77  NE2       -8.0780    2.7380    6.2800 N.am  308  GLN308     -0.0837
     78  N        -10.9670    6.4650   11.6880 N.3   348  ARG348     -0.1245
     79  CA       -11.0220    5.0110   11.5600 C.3   348  ARG348      0.1563
     80  C         -9.8550    4.3720   12.3390 C.2   348  ARG348      0.2260
     81  O        -10.0810    3.3860   13.0520 O.2   348  ARG348     -0.2867
     82  CB       -11.0280    4.6140   10.0620 C.3   348  ARG348      0.0307
     83  CG       -10.5270    3.2060    9.6980 C.3   348  ARG348      0.0489
     84  CD       -11.6140    2.2200    9.9280 C.3   348  ARG348      0.2205
     85  NE       -11.4310    0.8980    9.3190 N.pl3 348  ARG348     -0.0865
     86  CZ       -11.7540    0.5790    8.0680 C.cat 348  ARG348      0.5346
     87  NH1      -12.1940    1.5050    7.2310 N.pl3 348  ARG348      0.1354
     88  NH2      -11.6120   -0.6630    7.6400 N.pl3 348  ARG348      0.1354
@<TRIPOS>BOND
     1    10    11    1
     2    11    12    1
     3    11    14    1
     4    12    13    2
     5    39    40    1
     6    42    41    2
     7    53    52    2
     8    52    51    1
     9    33    32    2
    10    41    40    1
    11    14    15    1
    12    56    55    1
    13    40    43    1
    14    55    57    1
    15    55    54    1
    16    32    31    1
    17    22    23    1
    18    51    54    1
    19    51    50    1
    20    44    43    1
    21    15    16   ar
    22    15    17   ar
    23    43    45    1
    24    16    18   ar
    25    28    27   ar
    26    25    24    2
    27    17    19   ar
    28    31    34    1
    29    31    30    1
    30    27    29   ar
    31    27    26    1
    32    34    35    1
    33    23    24    1
    34    23    26    1
    35    18    20   ar
    36    19    20   ar
    37    20    21    1
    38    35    36    1
    39    36    38   ar
    40    36    37   ar
    41    48    49    2
    42    48    47    1
    43    47    46    1
    44    72    71    2
    45    61    60    2
    46    68    66   ar
    47    68    67   ar
    48     8     7   ar
    49     4     3    2
    50    66    64   ar
    51    71    70    1
    52    67    65   ar
    53    60    59    1
    54    60    69   am
    55    64    63   ar
    56     7     6    1
    57     7     9   ar
    58    70    69    1
    59    70    73    1
    60    65    63   ar
    61     5     6    1
    62     5     2    1
    63     3     2    1
    64    63    62    1
    65    59    62    1
    66    59    58    1
    67    74    73    2
    68    74    75    1
    69     2     1    1
    70    77    75   am
    71    75    76    2
    72    87    86    1
    73    88    86    1
    74    86    85    2
    75    85    84    1
    76    83    84    1
    77    83    82    1
    78    82    79    1
    79    79    78    1
    80    79    80    1
    81    80    81    2
