@<TRIPOS>MOLECULE
tmp/5tzrA03.pdb
 151 142 0 0 0
SMALL
GASTEIGER

@<TRIPOS>ATOM
      1  N        -41.1300   -2.7120   30.0530 N.3    39  PRO39      -0.2116
      2  CA       -41.0430   -3.1960   31.4480 C.3    39  PRO39       0.1372
      3  C        -40.2700   -2.2370   32.3620 C.2    39  PRO39       0.2244
      4  O        -40.7730   -1.9480   33.4360 O.2    39  PRO39      -0.2868
      5  CB       -40.3180   -4.5430   31.3190 C.3    39  PRO39       0.0268
      6  CG       -40.5930   -4.9780   29.8840 C.3    39  PRO39       0.0207
      7  CD       -40.6230   -3.7170   29.0910 C.3    39  PRO39       0.0892
      8  N        -41.3620   -0.5410   36.1460 N.3    43  TYR43      -0.1241
      9  CA       -40.5650   -0.7510   37.3540 C.3    43  TYR43       0.1605
     10  C        -40.0650    0.5970   37.9070 C.2    43  TYR43       0.2264
     11  O        -40.0970    0.7940   39.1090 O.2    43  TYR43      -0.2867
     12  CB       -39.3940   -1.7230   37.0650 C.3    43  TYR43       0.0534
     13  CG       -39.8460   -3.1160   36.6570 C.ar   43  TYR43      -0.0201
     14  CD1      -40.8850   -3.7620   37.3320 C.ar   43  TYR43      -0.0009
     15  CD2      -39.2250   -3.7960   35.6130 C.ar   43  TYR43      -0.0009
     16  CE1      -41.3050   -5.0410   36.9670 C.ar   43  TYR43       0.0417
     17  CE2      -39.6290   -5.0850   35.2420 C.ar   43  TYR43       0.0417
     18  CZ       -40.6690   -5.7050   35.9270 C.ar   43  TYR43       0.1957
     19  OH       -41.0930   -6.9700   35.5860 O.3    43  TYR43      -0.2866
     20  N        -37.1270   -4.6080   45.6150 N.3    94  GLY94      -0.1225
     21  CA       -37.7840   -5.4840   44.6560 C.3    94  GLY94       0.1811
     22  C        -37.8490   -4.8210   43.2930 C.2    94  GLY94       0.2280
     23  O        -37.5060   -5.4590   42.2980 O.2    94  GLY94      -0.2866
     24  N        -34.2660   -4.4970   41.6020 N.3    97  ALA97      -0.1231
     25  CA       -33.8540   -5.7860   41.0110 C.3    97  ALA97       0.1694
     26  C        -34.6230   -6.0080   39.7060 C.2    97  ALA97       0.2591
     27  O        -34.0160   -6.3690   38.7090 O.2    97  ALA97      -0.2718
     28  CB       -34.1460   -6.9200   41.9720 C.3    97  ALA97       0.0304
     29  N        -35.9560   -5.7540   39.7120 N.am   98  ALA98      -0.1980
     30  CA       -36.8200   -5.9040   38.5300 C.3    98  ALA98       0.1597
     31  C        -36.3380   -5.0140   37.3790 C.2    98  ALA98       0.2287
     32  O        -36.1930   -5.4840   36.2420 O.2    98  ALA98      -0.2864
     33  CB       -38.2550   -5.5520   38.8970 C.3    98  ALA98       0.0319
     34  N        -32.9550   -6.2150   35.9810 N.3   101  ALA101     -0.1231
     35  CA       -33.1540   -7.4220   35.1640 C.3   101  ALA101      0.1694
     36  C        -33.8250   -7.0640   33.8350 C.2   101  ALA101      0.2591
     37  O        -33.4260   -7.6030   32.8130 O.2   101  ALA101     -0.2718
     38  CB       -33.9520   -8.4760   35.9290 C.3   101  ALA101      0.0304
     39  N        -34.7990   -6.1190   33.8360 N.am  102  ALA102     -0.1980
     40  CA       -35.4630   -5.6720   32.6030 C.3   102  ALA102      0.1597
     41  C        -34.4310   -4.9930   31.6740 C.2   102  ALA102      0.2287
     42  O        -34.4270   -5.2270   30.4630 O.2   102  ALA102     -0.2864
     43  CB       -36.5790   -4.6980   32.9440 C.3   102  ALA102      0.0319
     44  N        -31.7970   -7.8530   30.3390 N.3   105  LEU105     -0.1231
     45  CA       -32.4220   -8.7030   29.3320 C.3   105  LEU105      0.1693
     46  C        -32.7810   -7.9590   28.0520 C.2   105  LEU105      0.2592
     47  O        -32.5710   -8.4980   26.9630 O.2   105  LEU105     -0.2718
     48  CB       -33.6200   -9.4440   29.9140 C.3   105  LEU105      0.0284
     49  CG       -33.2300  -10.4710   30.9690 C.3   105  LEU105      0.0019
     50  CD1      -34.3260  -10.6530   31.9690 C.3   105  LEU105      0.0001
     51  CD2      -32.8350  -11.7960   30.3450 C.3   105  LEU105      0.0001
     52  N        -33.2790   -6.7300   28.1920 N.am  106  GLY106     -0.1957
     53  CA       -33.6510   -5.8860   27.0660 C.3   106  GLY106      0.1869
     54  C        -32.4880   -5.5140   26.1600 C.2   106  GLY106      0.2309
     55  O        -32.6820   -5.3340   24.9530 O.2   106  GLY106     -0.2863
     56  N        -44.2850   -5.6820   29.2810 N.3   111  PRO111     -0.2116
     57  CA       -45.3510   -4.6750   29.2070 C.3   111  PRO111      0.1372
     58  C        -46.4960   -4.9930   30.1740 C.2   111  PRO111      0.2244
     59  O        -46.5580   -4.3710   31.2340 O.2   111  PRO111     -0.2868
     60  CB       -45.7670   -4.6890   27.7220 C.3   111  PRO111      0.0268
     61  CG       -44.7700   -5.5840   27.0200 C.3   111  PRO111      0.0207
     62  CD       -44.2380   -6.5090   28.0630 C.3   111  PRO111      0.0892
     63  N        -46.9360   -8.0110   31.6530 N.3   113  TYR113     -0.1227
     64  CA       -46.2550   -8.8730   32.6200 C.3   113  TYR113      0.1736
     65  C        -45.6380   -8.0730   33.7830 C.2   113  TYR113      0.2596
     66  O        -45.8060   -8.4700   34.9400 O.2   113  TYR113     -0.2718
     67  CB       -45.1660   -9.6980   31.9130 C.3   113  TYR113      0.0548
     68  CG       -44.4260  -10.6570   32.8070 C.ar  113  TYR113     -0.0200
     69  CD1      -45.0740  -11.6930   33.4350 C.ar  113  TYR113     -0.0009
     70  CD2      -43.0960  -10.5220   33.0370 C.ar  113  TYR113     -0.0009
     71  CE1      -44.4190  -12.5860   34.2710 C.ar  113  TYR113      0.0417
     72  CE2      -42.4210  -11.4020   33.8850 C.ar  113  TYR113      0.0417
     73  CZ       -43.0680  -12.4370   34.4440 C.ar  113  TYR113      0.1957
     74  OH       -42.3660  -13.2950   35.2910 O.3   113  TYR113     -0.2866
     75  N        -44.9300   -6.9500   33.4690 N.am  114  SER114     -0.1952
     76  CA       -44.2830   -6.0610   34.4400 C.3   114  SER114      0.1924
     77  C        -45.2970   -5.4980   35.4590 C.2   114  SER114      0.2314
     78  O        -44.9490   -5.3530   36.6210 O.2   114  SER114     -0.2863
     79  CB       -43.5050   -4.9550   33.7340 C.3   114  SER114      0.2116
     80  OG       -44.3630   -4.1620   32.9330 O.3   114  SER114     -0.2180
     81  N        -47.9540   -7.1320   36.4840 N.3   116  GLY116     -0.1210
     82  CA       -48.2100   -8.3000   37.3100 C.3   116  GLY116      0.1956
     83  C        -47.1090   -8.4990   38.3330 C.2   116  GLY116      0.2611
     84  O        -47.4050   -8.7700   39.4960 O.2   116  GLY116     -0.2717
     85  N        -45.8330   -8.3450   37.9170 N.am  117  VAL117     -0.1979
     86  CA       -44.6760   -8.4830   38.8050 C.3   117  VAL117      0.1595
     87  C        -44.7480   -7.4140   39.9060 C.2   117  VAL117      0.2287
     88  O        -44.4970   -7.7410   41.0680 O.2   117  VAL117     -0.2864
     89  CB       -43.3360   -8.4470   38.0240 C.3   117  VAL117      0.0276
     90  CG1      -42.1220   -8.4970   38.9620 C.3   117  VAL117      0.0022
     91  CG2      -43.2670   -9.5800   36.9980 C.3   117  VAL117      0.0022
     92  N        -47.5110   -8.2190   42.3910 N.3   120  ALA120     -0.1231
     93  CA       -46.9920   -9.2960   43.2520 C.3   120  ALA120      0.1694
     94  C        -46.0340   -8.7610   44.3430 C.2   120  ALA120      0.2591
     95  O        -46.0930   -9.2100   45.4950 O.2   120  ALA120     -0.2718
     96  CB       -46.2890  -10.3500   42.4120 C.3   120  ALA120      0.0304
     97  N        -45.1640   -7.8060   43.9820 N.am  121  ILE121     -0.1980
     98  CA       -44.2430   -7.2110   44.9690 C.3   121  ILE121      0.1595
     99  C        -45.0770   -6.4830   46.0510 C.2   121  ILE121      0.2287
    100  O        -44.8500   -6.6970   47.2440 O.2   121  ILE121     -0.2864
    101  CB       -43.1750   -6.3000   44.2830 C.3   121  ILE121      0.0276
    102  CG1      -42.1410   -7.1720   43.5160 C.3   121  ILE121      0.0022
    103  CG2      -42.4880   -5.3840   45.2990 C.3   121  ILE121      0.0022
    104  CD1      -41.2490   -6.4530   42.4630 C.3   121  ILE121      0.0001
    105  N        -47.1780   -8.9560   48.3220 N.3   124  LEU124     -0.1245
    106  CA       -46.3230   -9.6180   49.3100 C.3   124  LEU124      0.1561
    107  C        -45.9600   -8.6760   50.4450 C.2   124  LEU124      0.2260
    108  O        -46.1250   -9.0250   51.6080 O.2   124  LEU124     -0.2867
    109  CB       -45.0470  -10.1860   48.6200 C.3   124  LEU124      0.0270
    110  CG       -43.9840  -10.9900   49.4660 C.3   124  LEU124      0.0019
    111  CD1      -43.1920  -10.1050   50.3550 C.3   124  LEU124      0.0001
    112  CD2      -44.5840  -12.1110   50.2830 C.3   124  LEU124      0.0001
    113  N        -36.1160  -12.1310   51.6700 N.3   180  LEU180     -0.1231
    114  CA       -36.8740  -12.1860   50.4340 C.3   180  LEU180      0.1693
    115  C        -36.8150  -10.9310   49.5810 C.2   180  LEU180      0.2591
    116  O        -36.7140  -11.0470   48.3550 O.2   180  LEU180     -0.2718
    117  CB       -38.3320  -12.5330   50.7580 C.3   180  LEU180      0.0284
    118  CG       -39.2650  -12.8570   49.5640 C.3   180  LEU180      0.0019
    119  CD1      -38.8760  -14.2050   48.8750 C.3   180  LEU180      0.0001
    120  CD2      -40.6940  -12.9170   50.0350 C.3   180  LEU180      0.0001
    121  N        -36.9450   -9.7360   50.2090 N.am  181  LEU181     -0.1980
    122  CA       -37.0090   -8.4690   49.4880 C.3   181  LEU181      0.1596
    123  C        -35.7290   -7.6720   49.4980 C.2   181  LEU181      0.2287
    124  O        -35.6810   -6.6550   48.8120 O.2   181  LEU181     -0.2864
    125  CB       -38.2090   -7.6010   49.9630 C.3   181  LEU181      0.0297
    126  CG       -39.5080   -7.6750   49.0880 C.3   181  LEU181      0.0022
    127  CD1      -39.2790   -7.1260   47.6720 C.3   181  LEU181      0.0001
    128  CD2      -40.0210   -9.0980   48.9540 C.3   181  LEU181      0.0001
    129  N        -32.2970  -11.4970   48.3270 N.3   184  LEU184     -0.1231
    130  CA       -32.5730  -12.1040   47.0200 C.3   184  LEU184      0.1678
    131  C        -32.4560  -10.9840   45.9170 C.2   184  LEU184      0.2434
    132  O        -31.6140  -11.1430   45.0270 O.2   184  LEU184     -0.2733
    133  CB       -33.9210  -12.8540   46.9970 C.3   184  LEU184      0.0284
    134  CG       -34.4270  -13.2940   45.5870 C.3   184  LEU184      0.0019
    135  CD1      -33.5020  -14.3630   44.9690 C.3   184  LEU184      0.0001
    136  CD2      -35.8780  -13.8000   45.6490 C.3   184  LEU184      0.0001
    137  N        -33.1630   -9.8110   45.9930 N.am  185  PRO185     -0.2729
    138  CA       -32.9650   -8.7570   44.9790 C.3   185  PRO185      0.1401
    139  C        -31.5040   -8.3080   44.8510 C.2   185  PRO185      0.2269
    140  O        -31.0810   -7.9860   43.7450 O.2   185  PRO185     -0.2865
    141  CB       -33.8650   -7.6210   45.4890 C.3   185  PRO185      0.0296
    142  CG       -34.9640   -8.3220   46.1330 C.3   185  PRO185      0.0237
    143  CD       -34.2350   -9.4040   46.9210 C.3   185  PRO185      0.0939
    144  N        -29.8730  -10.9360   42.6650 N.3   188  ILE188     -0.1245
    145  CA       -30.4050  -10.7200   41.3090 C.3   188  ILE188      0.1561
    146  C        -29.7110   -9.5040   40.6630 C.2   188  ILE188      0.2260
    147  O        -29.2610   -9.5940   39.5150 O.2   188  ILE188     -0.2867
    148  CB       -31.9590  -10.5700   41.2660 C.3   188  ILE188      0.0252
    149  CG1      -32.6800  -11.8370   41.7990 C.3   188  ILE188      0.0019
    150  CG2      -32.4370  -10.2040   39.8230 C.3   188  ILE188      0.0019
    151  CD1      -34.3050  -11.6950   41.8540 C.3   188  ILE188      0.0001
@<TRIPOS>BOND
     1    55    54    2
     2    54    53    1
     3    47    46    2
     4    61    60    1
     5    61    62    1
     6    53    52    1
     7    60    57    1
     8    46    52   am
     9    46    45    1
    10    62    56    1
    11     7     6    1
    12     7     1    1
    13    57    56    1
    14    57    58    1
    15    45    48    1
    16    45    44    1
    17     6     5    1
    18    48    49    1
    19     1     2    1
    20    58    59    2
    21    51    49    1
    22    42    41    2
    23    49    50    1
    24     5     2    1
    25     2     3    1
    26    63    64    1
    27    41    40    1
    28    67    64    1
    29    67    68    1
    30     3     4    2
    31    40    43    1
    32    40    39    1
    33    64    65    1
    34    68    70   ar
    35    68    69   ar
    36    37    36    2
    37    80    79    1
    38    70    72   ar
    39    69    71   ar
    40    75    65   am
    41    75    76    1
    42    79    76    1
    43    65    66    2
    44    36    39   am
    45    36    35    1
    46    72    73   ar
    47    71    73   ar
    48    76    77    1
    49    73    74    1
    50    35    38    1
    51    35    34    1
    52    17    15   ar
    53    17    18   ar
    54    77    78    2
    55    19    18    1
    56    15    13   ar
    57    18    16   ar
    58     8     9    1
    59    32    31    2
    60    81    82    1
    61    13    12    1
    62    13    14   ar
    63    16    14   ar
    64    91    89    1
    65    12     9    1
    66    82    83    1
    67     9    10    1
    68    31    30    1
    69    10    11    2
    70    85    83   am
    71    85    86    1
    72    89    86    1
    73    89    90    1
    74    83    84    2
    75    30    33    1
    76    30    29    1
    77    27    26    2
    78    86    87    1
    79   147   146    2
    80    26    29   am
    81    26    25    1
    82   150   148    1
    83    87    88    2
    84   146   145    1
    85    25    24    1
    86    25    28    1
    87   148   145    1
    88   148   149    1
    89   145   144    1
    90   149   151    1
    91    23    22    2
    92    92    93    1
    93    96    93    1
    94   104   102    1
    95    93    94    1
    96    22    21    1
    97   102   101    1
    98   140   139    2
    99    97    94   am
   100    97    98    1
   101   101    98    1
   102   101   103    1
   103    94    95    2
   104    21    20    1
   105   139   138    1
   106    98    99    1
   107   135   134    1
   108   138   141    1
   109   138   137    1
   110   132   131    2
   111   141   142    1
   112   134   136    1
   113   134   133    1
   114   131   137   am
   115   131   130    1
   116   137   143    1
   117    99   100    2
   118   142   143    1
   119   133   130    1
   120   130   129    1
   121   127   126    1
   122   105   106    1
   123   116   115    2
   124   109   106    1
   125   109   110    1
   126   124   123    2
   127   119   118    1
   128   128   126    1
   129   126   125    1
   130   106   107    1
   131   110   112    1
   132   110   111    1
   133   122   123    1
   134   122   125    1
   135   122   121    1
   136   118   120    1
   137   118   117    1
   138   115   121   am
   139   115   114    1
   140   114   117    1
   141   114   113    1
   142   107   108    2
