@<TRIPOS>MOLECULE
tmp/5tzxB00.pdb
 157 151 0 0 0
SMALL
GASTEIGER

@<TRIPOS>ATOM
      1  N          6.6900   -7.7190  -42.3100 N.3    77  TYR77      -0.1227
      2  CA         8.0160   -7.1410  -42.4840 C.3    77  TYR77       0.1736
      3  C          8.9160   -7.3010  -41.2640 C.2    77  TYR77       0.2595
      4  O         10.0150   -7.8450  -41.3830 O.2    77  TYR77      -0.2718
      5  CB         7.9230   -5.6530  -42.8300 C.3    77  TYR77       0.0548
      6  CG         9.2830   -5.0560  -43.1010 C.ar   77  TYR77      -0.0200
      7  CD1        9.9980   -5.4160  -44.2420 C.ar   77  TYR77      -0.0009
      8  CD2        9.8630   -4.1550  -42.2160 C.ar   77  TYR77      -0.0009
      9  CE1       11.2490   -4.8770  -44.5140 C.ar   77  TYR77       0.0417
     10  CE2       11.1350   -3.6130  -42.4730 C.ar   77  TYR77       0.0417
     11  CZ        11.8100   -3.9790  -43.6310 C.ar   77  TYR77       0.1957
     12  OH        13.0490   -3.4630  -43.9120 O.3    77  TYR77      -0.2866
     13  N          8.4870   -6.8070  -40.1000 N.am   78  HIS78      -0.1975
     14  CA         9.3690   -6.6540  -38.9430 C.3    78  HIS78       0.1656
     15  C          9.5080   -7.9690  -38.1770 C.2    78  HIS78       0.2291
     16  O          9.0740   -8.1220  -37.0340 O.2    78  HIS78      -0.2864
     17  CB         8.8440   -5.5450  -38.0490 C.3    78  HIS78       0.0771
     18  CG         9.0820   -4.1720  -38.5960 C.ar   78  HIS78       0.0820
     19  ND1        8.0740   -3.3970  -39.1270 N.ar   78  HIS78      -0.2267
     20  CD2       10.2100   -3.4320  -38.6880 C.ar   78  HIS78       0.1154
     21  CE1        8.5680   -2.2410  -39.5320 C.ar   78  HIS78       0.1986
     22  NE2        9.8620   -2.2320  -39.2730 N.ar   78  HIS78      -0.2212
     23  N         13.3270    6.3630  -37.4260 N.3   192  LEU192     -0.1245
     24  CA        13.5000    7.3170  -38.5190 C.3   192  LEU192      0.1561
     25  C         13.2990    8.7480  -38.0600 C.2   192  LEU192      0.2260
     26  O         13.8810    9.6670  -38.6370 O.2   192  LEU192     -0.2867
     27  CB        12.5260    7.0280  -39.6830 C.3   192  LEU192      0.0270
     28  CG        12.8580    5.8690  -40.6190 C.3   192  LEU192      0.0019
     29  CD1       11.7930    5.7690  -41.7330 C.3   192  LEU192      0.0001
     30  CD2       14.2480    6.0500  -41.2020 C.3   192  LEU192      0.0001
     31  N         19.2810   -0.8860  -41.5580 N.3   230  ASP230     -0.1225
     32  CA        17.8370   -1.0510  -41.4220 C.3   230  ASP230      0.1805
     33  C         17.1400   -0.9490  -42.7760 C.2   230  ASP230      0.2597
     34  O         16.1640   -1.6640  -43.0360 O.2   230  ASP230     -0.2718
     35  CB        17.2890    0.0070  -40.4710 C.3   230  ASP230      0.1424
     36  CG        16.0980   -0.4680  -39.6460 C.2   230  ASP230      0.3668
     37  OD1       15.7070   -1.6640  -39.6930 O.co2 230  ASP230     -0.2456
     38  OD2       15.5660    0.3960  -38.9060 O.co2 230  ASP230     -0.2456
     39  N         17.6140   -0.0580  -43.6420 N.am  231  LEU231     -0.1979
     40  CA        17.0130    0.1400  -44.9600 C.3   231  LEU231      0.1596
     41  C         17.7200   -0.6360  -46.0640 C.2   231  LEU231      0.2287
     42  O         17.4230   -0.4200  -47.2450 O.2   231  LEU231     -0.2864
     43  CB        17.0060    1.6220  -45.3220 C.3   231  LEU231      0.0297
     44  CG        16.3280    2.5290  -44.3150 C.3   231  LEU231      0.0022
     45  CD1       16.3110    3.9520  -44.8510 C.3   231  LEU231      0.0001
     46  CD2       14.9160    2.0200  -44.0730 C.3   231  LEU231      0.0001
     47  N         17.5060   -3.4100  -47.4070 N.3   233  ASP233     -0.1225
     48  CA        16.6810   -4.0640  -48.4190 C.3   233  ASP233      0.1805
     49  C         16.6190   -3.2630  -49.7160 C.2   233  ASP233      0.2597
     50  O         16.4190   -3.8430  -50.7870 O.2   233  ASP233     -0.2718
     51  CB        15.2530   -4.2790  -47.9170 C.3   233  ASP233      0.1424
     52  CG        15.1180   -5.4460  -46.9660 C.2   233  ASP233      0.3668
     53  OD1       14.2070   -5.3820  -46.1130 O.co2 233  ASP233     -0.2456
     54  OD2       15.8900   -6.4240  -47.0680 O.co2 233  ASP233     -0.2456
     55  N         16.7540   -1.9360  -49.6440 N.am  234  GLN234     -0.1979
     56  CA        16.6890   -1.0960  -50.8310 C.3   234  GLN234      0.1601
     57  C         18.0110   -1.0290  -51.5950 C.2   234  GLN234      0.2287
     58  O         18.0750   -0.3740  -52.6400 O.2   234  GLN234     -0.2864
     59  CB        16.2430    0.3230  -50.4520 C.3   234  GLN234      0.0394
     60  CG        14.9000    0.3910  -49.7630 C.3   234  GLN234      0.0908
     61  CD        13.7770   -0.1170  -50.6330 C.2   234  GLN234      0.2608
     62  OE1       13.9220   -0.2300  -51.8650 O.2   234  GLN234     -0.2717
     63  NE2       12.6520   -0.4540  -50.0050 N.am  234  GLN234     -0.0878
     64  N          9.8400   -6.6540  -50.6290 N.3   244  ILE244     -0.1231
     65  CA         9.8490   -5.9380  -49.3580 C.3   244  ILE244      0.1692
     66  C          8.7500   -4.8830  -49.3370 C.2   244  ILE244      0.2591
     67  O          8.2210   -4.5510  -48.2720 O.2   244  ILE244     -0.2718
     68  CB        11.2540   -5.3380  -49.1080 C.3   244  ILE244      0.0266
     69  CG1       12.1110   -6.3170  -48.3090 C.3   244  ILE244      0.0019
     70  CG2       11.1840   -3.9750  -48.4120 C.3   244  ILE244      0.0020
     71  CD1       12.3550   -7.6500  -48.9970 C.3   244  ILE244      0.0001
     72  N          8.3490   -4.3770  -50.5120 N.am  245  ALA245     -0.1980
     73  CA         7.2020   -3.4760  -50.5640 C.3   245  ALA245      0.1597
     74  C          5.9010   -4.2200  -50.2590 C.2   245  ALA245      0.2287
     75  O          5.0480   -3.7170  -49.5120 O.2   245  ALA245     -0.2864
     76  CB         7.1320   -2.7860  -51.9230 C.3   245  ALA245      0.0319
     77  N          5.9510   -4.6320  -46.3380 N.3   248  ILE248     -0.1231
     78  CA         5.7900   -3.3720  -45.6330 C.3   248  ILE248      0.1692
     79  C          4.3400   -2.8880  -45.7010 C.2   248  ILE248      0.2592
     80  O          3.7290   -2.5550  -44.6760 O.2   248  ILE248     -0.2718
     81  CB         6.8000   -2.3560  -46.1840 C.3   248  ILE248      0.0266
     82  CG1        8.1040   -2.5730  -45.4310 C.3   248  ILE248      0.0019
     83  CG2        6.3570   -0.9380  -45.9860 C.3   248  ILE248      0.0020
     84  CD1        9.2970   -2.0080  -46.0820 C.3   248  ILE248      0.0001
     85  N          3.7490   -2.8860  -46.9000 N.am  249  TYR249     -0.1976
     86  CA         2.4000   -2.3470  -47.0330 C.3   249  TYR249      0.1639
     87  C          1.3420   -3.2940  -46.5060 C.2   249  TYR249      0.2290
     88  O          0.3270   -2.8310  -45.9820 O.2   249  TYR249     -0.2864
     89  CB         2.1270   -1.9510  -48.4840 C.3   249  TYR249      0.0560
     90  CG         2.9000   -0.7070  -48.8100 C.ar  249  TYR249     -0.0198
     91  CD1        2.5220    0.5220  -48.2870 C.ar  249  TYR249     -0.0009
     92  CD2        4.0560   -0.7680  -49.5810 C.ar  249  TYR249     -0.0009
     93  CE1        3.2540    1.6650  -48.5490 C.ar  249  TYR249      0.0417
     94  CE2        4.7910    0.3640  -49.8510 C.ar  249  TYR249      0.0417
     95  CZ         4.3910    1.5720  -49.3410 C.ar  249  TYR249      0.1957
     96  OH         5.1480    2.6800  -49.6260 O.3   249  TYR249     -0.2866
     97  N          1.6110   -2.3280  -42.9180 N.3   252  PHE252     -0.1241
     98  CA         0.9800   -1.0260  -42.7160 C.3   252  PHE252      0.1605
     99  C         -0.5400   -1.1370  -42.7890 C.2   252  PHE252      0.2264
    100  O         -1.2580   -0.6240  -41.9210 O.2   252  PHE252     -0.2867
    101  CB         1.4640   -0.0260  -43.7630 C.3   252  PHE252      0.0534
    102  CG         2.8370    0.5140  -43.5320 C.ar  252  PHE252     -0.0203
    103  CD1        3.5760    0.1710  -42.4090 C.ar  252  PHE252     -0.0042
    104  CD2        3.3930    1.3860  -44.4520 C.ar  252  PHE252     -0.0042
    105  CE1        4.8260    0.6880  -42.2230 C.ar  252  PHE252     -0.0003
    106  CE2        4.6310    1.8970  -44.2640 C.ar  252  PHE252     -0.0003
    107  CZ         5.3540    1.5400  -43.1300 C.ar  252  PHE252     -0.0000
    108  N         -0.5900    6.2790  -45.8130 N.3   269  MET269     -0.1245
    109  CA         0.2360    5.1700  -46.2920 C.3   269  MET269      0.1570
    110  C         -0.1170    3.8500  -45.6310 C.2   269  MET269      0.2261
    111  O          0.3930    2.8030  -46.0500 O.2   269  MET269     -0.2867
    112  CB         1.7180    5.4610  -46.0890 C.3   269  MET269      0.0387
    113  CG         2.1770    5.3970  -44.6550 C.3   269  MET269      0.0595
    114  SD         3.9560    5.6010  -44.6130 S.3   269  MET269     -0.1393
    115  CE         4.2880    5.6100  -42.8500 C.3   269  MET269      0.0692
    116  N          4.1010    6.4670  -52.9460 N.3   280  LEU280     -0.1231
    117  CA         4.6600    6.3700  -51.6000 C.3   280  LEU280      0.1693
    118  C          6.0810    5.8140  -51.6190 C.2   280  LEU280      0.2591
    119  O          6.9570    6.3140  -50.8990 O.2   280  LEU280     -0.2718
    120  CB         3.7550    5.5020  -50.7310 C.3   280  LEU280      0.0284
    121  CG         2.4280    6.1410  -50.3260 C.3   280  LEU280      0.0019
    122  CD1        1.4330    5.0610  -49.9290 C.3   280  LEU280      0.0001
    123  CD2        2.6480    7.1240  -49.1700 C.3   280  LEU280      0.0001
    124  N          6.3250    4.7690  -52.4220 N.am  281  GLN281     -0.1979
    125  CA         7.6700    4.2160  -52.5350 C.3   281  GLN281      0.1601
    126  C          8.6230    5.2430  -53.1090 C.2   281  GLN281      0.2287
    127  O          9.6800    5.5180  -52.5290 O.2   281  GLN281     -0.2864
    128  CB         7.6750    2.9550  -53.4030 C.3   281  GLN281      0.0394
    129  CG         7.4560    1.6490  -52.6740 C.3   281  GLN281      0.0908
    130  CD         8.0670    1.6430  -51.2850 C.2   281  GLN281      0.2608
    131  OE1        7.4600    2.1320  -50.3460 O.2   281  GLN281     -0.2717
    132  NE2        9.2740    1.1190  -51.1620 N.am  281  GLN281     -0.0878
    133  N          8.4180    8.4060  -53.2070 N.3   283  SER283     -0.1202
    134  CA         8.6340    9.4110  -52.1710 C.3   283  SER283      0.2020
    135  C          9.6500    8.9260  -51.1390 C.2   283  SER283      0.2618
    136  O         10.6680    9.5820  -50.8950 O.2   283  SER283     -0.2717
    137  CB         7.3040    9.7560  -51.5050 C.3   283  SER283      0.2103
    138  OG         7.4200   10.9280  -50.7240 O.3   283  SER283     -0.2182
    139  N          9.3960    7.7620  -50.5370 N.am  284  PHE284     -0.1975
    140  CA        10.3140    7.2280  -49.5290 C.3   284  PHE284      0.1639
    141  C         11.7210    7.0500  -50.0950 C.2   284  PHE284      0.2290
    142  O         12.7010    7.5120  -49.4970 O.2   284  PHE284     -0.2864
    143  CB         9.7820    5.9060  -48.9830 C.3   284  PHE284      0.0560
    144  CG        10.7300    5.2230  -48.0550 C.ar  284  PHE284     -0.0200
    145  CD1       10.9430    5.7130  -46.7790 C.ar  284  PHE284     -0.0042
    146  CD2       11.4170    4.0980  -48.4550 C.ar  284  PHE284     -0.0042
    147  CE1       11.8190    5.0950  -45.9260 C.ar  284  PHE284     -0.0003
    148  CE2       12.2930    3.4860  -47.6040 C.ar  284  PHE284     -0.0003
    149  CZ        12.4980    3.9850  -46.3340 C.ar  284  PHE284     -0.0000
    150  N         14.0750    9.7720  -48.3380 N.3   288  ILE288     -0.1245
    151  CA        14.6380    9.1650  -47.1390 C.3   288  ILE288      0.1561
    152  C         15.7550    8.1830  -47.4760 C.2   288  ILE288      0.2260
    153  O         16.8890    8.3190  -46.9820 O.2   288  ILE288     -0.2867
    154  CB        13.5430    8.4860  -46.2810 C.3   288  ILE288      0.0252
    155  CG1       12.6660    9.5710  -45.6420 C.3   288  ILE288      0.0019
    156  CG2       14.1610    7.5510  -45.2190 C.3   288  ILE288      0.0019
    157  CD1       11.3530    9.0980  -45.0120 C.3   288  ILE288      0.0001
@<TRIPOS>BOND
     1   128   129    1
     2   128   125    1
     3   133   134    1
     4   126   125    1
     5   126   127    2
     6   116   117    1
     7   129   130    1
     8    58    57    2
     9   125   124    1
    10   124   118   am
    11   134   137    1
    12   134   135    1
    13    76    73    1
    14    62    61    2
    15   118   117    1
    16   118   119    2
    17   117   120    1
    18    57    56    1
    19   137   138    1
    20   130   132   am
    21   130   131    2
    22   135   136    2
    23   135   139   am
    24    56    59    1
    25    56    55    1
    26    50    49    2
    27   120   121    1
    28    61    63   am
    29    61    60    1
    30    64    65    1
    31    73    72    1
    32    73    74    1
    33   139   140    1
    34    72    66   am
    35    59    60    1
    36   121   122    1
    37   121   123    1
    38    74    75    2
    39   141   140    1
    40   141   142    2
    41    94    92   ar
    42    94    95   ar
    43    49    55   am
    44    49    48    1
    45    96    95    1
    46    92    90   ar
    47   140   143    1
    48    65    66    1
    49    65    68    1
    50    95    93   ar
    51    66    67    2
    52    68    70    1
    53    68    69    1
    54    71    69    1
    55   143   144    1
    56    90    89    1
    57    90    91   ar
    58    93    91   ar
    59    89    86    1
    60   146   144   ar
    61   146   148   ar
    62    48    51    1
    63    48    47    1
    64   150   151    1
    65   144   145   ar
    66    51    52    1
    67   148   149   ar
    68   152   151    1
    69   152   153    2
    70    42    41    2
    71   151   154    1
    72    54    52   ar
    73    86    85    1
    74    86    87    1
    75    52    53   ar
    76    85    79   am
    77   145   147   ar
    78    87    88    2
    79    77    78    1
    80   149   147   ar
    81   109   112    1
    82   109   108    1
    83   109   110    1
    84   154   155    1
    85   154   156    1
    86    81    83    1
    87    81    78    1
    88    81    82    1
    89   112   113    1
    90    84    82    1
    91    41    40    1
    92   111   110    2
    93    79    78    1
    94    79    80    2
    95   155   157    1
    96    43    40    1
    97    43    44    1
    98    40    39    1
    99    45    44    1
   100   113   114    1
   101   114   115    1
   102     9     7   ar
   103     9    11   ar
   104   104   106   ar
   105   104   102   ar
   106    44    46    1
   107   106   107   ar
   108     7     6   ar
   109    12    11    1
   110   101   102    1
   111   101    98    1
   112    39    33   am
   113    11    10   ar
   114   102   103   ar
   115   107   105   ar
   116     6     5    1
   117     6     8   ar
   118    34    33    2
   119    97    98    1
   120     5     2    1
   121    99    98    1
   122    99   100    2
   123    33    32    1
   124     2     1    1
   125     2     3    1
   126    10     8   ar
   127   103   105   ar
   128    29    28    1
   129    31    32    1
   130    32    35    1
   131     4     3    2
   132     3    13   am
   133    30    28    1
   134    28    27    1
   135    35    36    1
   136    13    14    1
   137    37    36   ar
   138    27    24    1
   139    36    38   ar
   140    21    22   ar
   141    21    19   ar
   142    22    20   ar
   143    19    18   ar
   144    14    15    1
   145    14    17    1
   146    20    18   ar
   147    26    25    2
   148    18    17    1
   149    24    25    1
   150    24    23    1
   151    15    16    2
