@<TRIPOS>MOLECULE
tmp/5tzyA02.pdb
 205 196 0 0 0
SMALL
GASTEIGER

@<TRIPOS>ATOM
      1  N        -28.2470   -1.7720   25.4860 N.3    39  PRO39      -0.2116
      2  CA       -28.3810   -2.6730   26.6440 C.3    39  PRO39       0.1372
      3  C        -27.6710   -2.1950   27.9120 C.2    39  PRO39       0.2244
      4  O        -28.1990   -2.4290   28.9910 O.2    39  PRO39      -0.2868
      5  CB       -27.8040   -3.9920   26.1320 C.3    39  PRO39       0.0268
      6  CG       -26.8190   -3.5850   25.1000 C.3    39  PRO39       0.0207
      7  CD       -27.4190   -2.3910   24.4310 C.3    39  PRO39       0.0892
      8  N        -28.0770   -0.4100   32.5620 N.3    43  TYR43      -0.1241
      9  CA       -27.1090   -0.6030   33.6260 C.3    43  TYR43       0.1605
     10  C        -26.6230    0.7210   34.1740 C.2    43  TYR43       0.2264
     11  O        -26.5780    0.8660   35.3920 O.2    43  TYR43      -0.2867
     12  CB       -25.9540   -1.4950   33.1650 C.3    43  TYR43       0.0534
     13  CG       -26.3670   -2.9170   32.8150 C.ar   43  TYR43      -0.0201
     14  CD1      -27.3310   -3.5910   33.5610 C.ar   43  TYR43      -0.0009
     15  CD2      -25.7630   -3.6020   31.7620 C.ar   43  TYR43      -0.0009
     16  CE1      -27.7180   -4.8930   33.2370 C.ar   43  TYR43       0.0417
     17  CE2      -26.1320   -4.9090   31.4380 C.ar   43  TYR43       0.0417
     18  CZ       -27.1150   -5.5480   32.1740 C.ar   43  TYR43       0.1957
     19  OH       -27.4750   -6.8330   31.8660 O.3    43  TYR43      -0.2866
     20  N        -23.3510   -2.0640   48.0570 N.3    90  TYR90      -0.1227
     21  CA       -23.2790   -3.4400   47.5830 C.3    90  TYR90       0.1736
     22  C        -23.8090   -3.5880   46.1480 C.2    90  TYR90       0.2595
     23  O        -23.1970   -4.2960   45.3340 O.2    90  TYR90      -0.2718
     24  CB       -23.9690   -4.3840   48.5690 C.3    90  TYR90       0.0548
     25  CG       -23.1720   -4.5440   49.8420 C.ar   90  TYR90      -0.0200
     26  CD1      -21.9200   -5.1510   49.8320 C.ar   90  TYR90      -0.0009
     27  CD2      -23.6600   -4.0760   51.0580 C.ar   90  TYR90      -0.0009
     28  CE1      -21.1750   -5.2960   51.0020 C.ar   90  TYR90       0.0417
     29  CE2      -22.9250   -4.2170   52.2370 C.ar   90  TYR90       0.0417
     30  CZ       -21.6820   -4.8290   52.2040 C.ar   90  TYR90       0.1957
     31  OH       -20.9390   -4.9620   53.3510 O.3    90  TYR90      -0.2866
     32  N        -24.9270   -2.8830   45.8460 N.am   91  ALA91      -0.1980
     33  CA       -25.6140   -2.8570   44.5520 C.3    91  ALA91       0.1597
     34  C        -24.6980   -2.5050   43.3930 C.2    91  ALA91       0.2287
     35  O        -24.6180   -3.3150   42.4720 O.2    91  ALA91      -0.2864
     36  CB       -26.7930   -1.9050   44.5920 C.3    91  ALA91       0.0319
     37  N        -22.8520   -5.1360   41.2990 N.3    94  GLY94      -0.1225
     38  CA       -23.6780   -5.9300   40.3940 C.3    94  GLY94       0.1811
     39  C        -23.9490   -5.2450   39.0650 C.2    94  GLY94       0.2280
     40  O        -24.0160   -5.9200   38.0350 O.2    94  GLY94      -0.2866
     41  N        -20.6360   -4.8270   36.9520 N.3    97  ALA97      -0.1231
     42  CA       -20.2560   -6.1840   36.5570 C.3    97  ALA97       0.1694
     43  C        -21.0000   -6.5850   35.2820 C.2    97  ALA97       0.2591
     44  O        -20.4360   -7.2890   34.4500 O.2    97  ALA97      -0.2718
     45  CB       -20.5650   -7.1650   37.6670 C.3    97  ALA97       0.0304
     46  N        -22.2560   -6.1220   35.1340 N.am   98  ALA98      -0.1980
     47  CA       -23.1110   -6.3560   33.9740 C.3    98  ALA98       0.1597
     48  C        -22.8440   -5.3040   32.8990 C.2    98  ALA98       0.2287
     49  O        -22.9340   -5.6100   31.7130 O.2    98  ALA98      -0.2864
     50  CB       -24.5600   -6.3070   34.3870 C.3    98  ALA98       0.0319
     51  N        -19.6720   -6.2100   31.5770 N.3   101  ALA101     -0.1231
     52  CA       -19.9290   -7.4840   30.8700 C.3   101  ALA101      0.1694
     53  C        -20.4790   -7.2200   29.4570 C.2   101  ALA101      0.2591
     54  O        -20.0110   -7.8340   28.4960 O.2   101  ALA101     -0.2718
     55  CB       -20.9040   -8.3470   31.6420 C.3   101  ALA101      0.0304
     56  N        -21.4610   -6.2770   29.3500 N.am  102  ALA102     -0.1980
     57  CA       -22.1220   -5.8180   28.1250 C.3   102  ALA102      0.1597
     58  C        -21.0980   -5.2220   27.1700 C.2   102  ALA102      0.2287
     59  O        -21.2050   -5.4010   25.9630 O.2   102  ALA102     -0.2864
     60  CB       -23.1630   -4.7700   28.4810 C.3   102  ALA102      0.0319
     61  N        -18.7230   -8.2800   25.9400 N.3   105  LEU105     -0.1245
     62  CA       -19.4850   -9.1270   25.0130 C.3   105  LEU105      0.1561
     63  C        -19.5920   -8.5620   23.6060 C.2   105  LEU105      0.2260
     64  O        -19.6590   -9.3200   22.6460 O.2   105  LEU105     -0.2867
     65  CB       -20.9160   -9.3570   25.5250 C.3   105  LEU105      0.0270
     66  CG       -21.0860  -10.5110   26.5100 C.3   105  LEU105      0.0019
     67  CD1      -20.3600  -10.2480   27.8370 C.3   105  LEU105      0.0001
     68  CD2      -22.5540  -10.8270   26.7370 C.3   105  LEU105      0.0001
     69  N        -23.4980  -11.0890   19.9730 N.3   113  TYR113     -0.1241
     70  CA       -24.1710  -10.2950   20.9990 C.3   113  TYR113      0.1605
     71  C        -25.1990   -9.3290   20.4330 C.2   113  TYR113      0.2264
     72  O        -26.2800   -9.2170   20.9960 O.2   113  TYR113     -0.2867
     73  CB       -23.1620   -9.5690   21.9120 C.3   113  TYR113      0.0534
     74  CG       -23.8060   -8.7640   23.0210 C.ar  113  TYR113     -0.0201
     75  CD1      -24.6090   -9.3760   23.9770 C.ar  113  TYR113     -0.0009
     76  CD2      -23.6100   -7.3920   23.1170 C.ar  113  TYR113     -0.0009
     77  CE1      -25.2080   -8.6440   24.9930 C.ar  113  TYR113      0.0417
     78  CE2      -24.2060   -6.6470   24.1290 C.ar  113  TYR113      0.0417
     79  CZ       -25.0050   -7.2780   25.0660 C.ar  113  TYR113      0.1957
     80  OH       -25.5930   -6.5530   26.0700 O.3   113  TYR113     -0.2866
     81  N        -28.1670  -11.1960   19.9320 N.3   116  PHE116     -0.1227
     82  CA       -28.7010  -11.6990   21.1970 C.3   116  PHE116      0.1736
     83  C        -29.4100  -10.6870   22.0800 C.2   116  PHE116      0.2595
     84  O        -30.6070  -10.8280   22.3110 O.2   116  PHE116     -0.2718
     85  CB       -27.6120  -12.4280   22.0140 C.3   116  PHE116      0.0547
     86  CG       -27.9890  -12.8770   23.4140 C.ar  116  PHE116     -0.0202
     87  CD1      -29.2240  -13.4730   23.6680 C.ar  116  PHE116     -0.0042
     88  CD2      -27.0910  -12.7520   24.4660 C.ar  116  PHE116     -0.0042
     89  CE1      -29.5680  -13.8940   24.9540 C.ar  116  PHE116     -0.0003
     90  CE2      -27.4310  -13.1840   25.7510 C.ar  116  PHE116     -0.0003
     91  CZ       -28.6700  -13.7510   25.9860 C.ar  116  PHE116     -0.0000
     92  N        -28.6700   -9.6740   22.4990 N.am  117  ARG117     -0.1966
     93  CA       -29.1340   -8.5910   23.3400 C.3   117  ARG117      0.1729
     94  C        -30.2990   -7.7050   22.9790 C.2   117  ARG117      0.2616
     95  O        -30.4000   -7.2180   21.8710 O.2   117  ARG117     -0.2715
     96  CB       -28.1910   -7.4190   23.1300 C.3   117  ARG117      0.0348
     97  CG       -28.4090   -6.7750   21.7750 C.3   117  ARG117      0.0492
     98  CD       -28.2890   -5.2610   21.7730 C.3   117  ARG117      0.2205
     99  NE       -26.9550   -4.8080   21.4030 N.pl3 117  ARG117     -0.0865
    100  CZ       -26.7080   -3.7310   20.6860 C.cat 117  ARG117      0.5346
    101  NH1      -27.7010   -3.0050   20.2580 N.pl3 117  ARG117      0.1354
    102  NH2      -25.4770   -3.3850   20.3980 N.pl3 117  ARG117      0.1354
    103  N        -31.2070   -7.5670   23.9340 N.am  118  ARG118     -0.1977
    104  CA       -32.2950   -6.6200   23.8760 C.3   118  ARG118      0.1597
    105  C        -32.5230   -5.8840   25.2040 C.2   118  ARG118      0.2287
    106  O        -31.9750   -6.3570   26.2130 O.2   118  ARG118     -0.2864
    107  CB       -33.4500   -7.5670   23.4810 C.3   118  ARG118      0.0334
    108  CG       -33.3690   -8.1570   22.0710 C.3   118  ARG118      0.0492
    109  CD       -34.5230   -9.1080   21.8050 C.3   118  ARG118      0.2205
    110  NE       -34.4700   -9.6620   20.4490 N.pl3 118  ARG118     -0.0865
    111  CZ       -33.7330  -10.7090   20.0780 C.cat 118  ARG118      0.5346
    112  NH1      -32.9770  -11.3500   20.9670 N.pl3 118  ARG118      0.1354
    113  NH2      -33.7560  -11.1290   18.8210 N.pl3 118  ARG118      0.1354
    114  N        -33.9960   -7.8080   28.4680 N.3   121  TYR121     -0.1227
    115  CA       -33.0310   -8.7720   29.0090 C.3   121  TYR121      0.1736
    116  C        -32.2170   -8.0500   30.1060 C.2   121  TYR121      0.2596
    117  O        -32.1670   -8.5260   31.2450 O.2   121  TYR121     -0.2718
    118  CB       -32.0950   -9.3520   27.9000 C.3   121  TYR121      0.0548
    119  CG       -32.7050  -10.2710   26.8430 C.ar  121  TYR121     -0.0200
    120  CD1      -34.0700  -10.5570   26.8310 C.ar  121  TYR121     -0.0009
    121  CD2      -31.9120  -10.8460   25.8510 C.ar  121  TYR121     -0.0009
    122  CE1      -34.6300  -11.3850   25.8550 C.ar  121  TYR121      0.0417
    123  CE2      -32.4590  -11.6900   24.8830 C.ar  121  TYR121      0.0417
    124  CZ       -33.8190  -11.9530   24.8870 C.ar  121  TYR121      0.1957
    125  OH       -34.3600  -12.7680   23.9240 O.3   121  TYR121     -0.2866
    126  N        -31.6380   -6.8730   29.7690 N.am  122  SER122     -0.1952
    127  CA       -30.8460   -6.0540   30.6880 C.3   122  SER122      0.1924
    128  C        -31.6270   -5.5730   31.9120 C.2   122  SER122      0.2314
    129  O        -31.0070   -5.4170   32.9580 O.2   122  SER122     -0.2863
    130  CB       -30.2200   -4.8740   29.9630 C.3   122  SER122      0.2116
    131  OG       -29.1130   -5.2650   29.1710 O.3   122  SER122     -0.2180
    132  N        -31.6820   -8.4380   34.4890 N.3   125  VAL125     -0.1245
    133  CA       -30.4610   -8.5210   35.3130 C.3   125  VAL125      0.1561
    134  C        -30.5630   -7.5740   36.5330 C.2   125  VAL125      0.2260
    135  O        -30.3840   -8.0380   37.6660 O.2   125  VAL125     -0.2867
    136  CB       -29.1510   -8.3170   34.4980 C.3   125  VAL125      0.0252
    137  CG1      -27.9140   -8.4990   35.3720 C.3   125  VAL125      0.0019
    138  CG2      -29.0960   -9.2630   33.3100 C.3   125  VAL125      0.0019
    139  N        -33.0330   -8.5850   39.1110 N.3   128  ALA128     -0.1231
    140  CA       -32.4770   -9.6470   39.9390 C.3   128  ALA128      0.1694
    141  C        -31.4440   -9.0340   40.9020 C.2   128  ALA128      0.2591
    142  O        -31.2880   -9.5520   42.0040 O.2   128  ALA128     -0.2718
    143  CB       -31.8350  -10.7100   39.0660 C.3   128  ALA128      0.0304
    144  N        -30.7620   -7.9190   40.4950 N.am  129  ILE129     -0.1980
    145  CA       -29.7720   -7.2120   41.3210 C.3   129  ILE129      0.1595
    146  C        -30.4800   -6.5480   42.5140 C.2   129  ILE129      0.2287
    147  O        -30.0940   -6.8050   43.6540 O.2   129  ILE129     -0.2864
    148  CB       -28.8800   -6.2110   40.5180 C.3   129  ILE129      0.0276
    149  CG1      -27.9020   -6.9490   39.5880 C.3   129  ILE129      0.0022
    150  CG2      -28.1020   -5.2900   41.4640 C.3   129  ILE129      0.0022
    151  CD1      -27.3730   -6.1360   38.4280 C.3   129  ILE129      0.0001
    152  N        -31.8520   -9.2730   44.9000 N.3   132  LEU132     -0.1231
    153  CA       -30.7710   -9.9650   45.6180 C.3   132  LEU132      0.1693
    154  C        -30.2320   -9.1710   46.8030 C.2   132  LEU132      0.2591
    155  O        -30.2670   -9.6890   47.9240 O.2   132  LEU132     -0.2718
    156  CB       -29.6210  -10.4190   44.6830 C.3   132  LEU132      0.0284
    157  CG       -28.3510  -11.0050   45.3300 C.3   132  LEU132      0.0019
    158  CD1      -28.6580  -12.1760   46.2150 C.3   132  LEU132      0.0001
    159  CD2      -27.3810  -11.4430   44.2930 C.3   132  LEU132      0.0001
    160  N        -29.7430   -7.9360   46.5630 N.am  133  VAL133     -0.1980
    161  CA       -29.1840   -7.0920   47.6210 C.3   133  VAL133      0.1595
    162  C        -30.2660   -6.7430   48.6630 C.2   133  VAL133      0.2287
    163  O        -29.9980   -6.8720   49.8560 O.2   133  VAL133     -0.2864
    164  CB       -28.4030   -5.8550   47.0920 C.3   133  VAL133      0.0276
    165  CG1      -27.7110   -5.1000   48.2250 C.3   133  VAL133      0.0022
    166  CG2      -27.3760   -6.2570   46.0280 C.3   133  VAL133      0.0022
    167  N        -20.0170  -12.7840   49.3750 N.3   187  LEU187     -0.1231
    168  CA       -20.9790  -13.0900   48.3290 C.3   187  LEU187      0.1693
    169  C        -21.1690  -11.9690   47.3180 C.2   187  LEU187      0.2591
    170  O        -20.7810  -12.1220   46.1560 O.2   187  LEU187     -0.2718
    171  CB       -22.3050  -13.3860   49.0230 C.3   187  LEU187      0.0284
    172  CG       -22.8280  -14.8270   49.0580 C.3   187  LEU187      0.0019
    173  CD1      -21.8320  -15.8760   49.6620 C.3   187  LEU187      0.0001
    174  CD2      -24.0480  -14.8530   49.8770 C.3   187  LEU187      0.0001
    175  N        -21.7720  -10.8330   47.7830 N.am  188  LEU188     -0.1980
    176  CA       -22.1490   -9.6190   47.0340 C.3   188  LEU188      0.1596
    177  C        -20.9850   -8.7190   46.5560 C.2   188  LEU188      0.2287
    178  O        -21.2570   -7.6780   45.9380 O.2   188  LEU188     -0.2864
    179  CB       -23.1740   -8.7590   47.8360 C.3   188  LEU188      0.0297
    180  CG       -24.4710   -9.4160   48.3440 C.3   188  LEU188      0.0022
    181  CD1      -25.0920   -8.5920   49.4140 C.3   188  LEU188      0.0001
    182  CD2      -25.4850   -9.5930   47.2440 C.3   188  LEU188      0.0001
    183  N        -17.5200  -11.7730   44.0150 N.3   191  LEU191     -0.1231
    184  CA       -17.9950  -12.3700   42.7650 C.3   191  LEU191      0.1678
    185  C        -18.2570  -11.2860   41.6690 C.2   191  LEU191      0.2434
    186  O        -17.6660  -11.4500   40.5910 O.2   191  LEU191     -0.2733
    187  CB       -19.1900  -13.3070   43.0160 C.3   191  LEU191      0.0284
    188  CG       -19.6640  -14.2730   41.8990 C.3   191  LEU191      0.0019
    189  CD1      -18.5010  -14.8820   41.1000 C.3   191  LEU191      0.0001
    190  CD2      -20.5390  -15.3810   42.4950 C.3   191  LEU191      0.0001
    191  N        -19.0180  -10.1610   41.9060 N.am  192  PRO192     -0.2729
    192  CA       -19.1650   -9.1310   40.8400 C.3   192  PRO192      0.1401
    193  C        -17.8260   -8.5140   40.4400 C.2   192  PRO192      0.2269
    194  O        -17.6850   -8.1230   39.2880 O.2   192  PRO192     -0.2865
    195  CB       -20.0440   -8.0510   41.4680 C.3   192  PRO192      0.0296
    196  CG       -20.6600   -8.6780   42.6380 C.3   192  PRO192      0.0237
    197  CD       -19.7880   -9.7920   43.1110 C.3   192  PRO192      0.0939
    198  N        -15.9530  -10.7430   37.5780 N.3   195  ILE195     -0.1245
    199  CA       -16.4900  -10.5300   36.2260 C.3   195  ILE195      0.1561
    200  C        -15.8830   -9.2590   35.6310 C.2   195  ILE195      0.2260
    201  O        -15.3400   -9.3480   34.5450 O.2   195  ILE195     -0.2867
    202  CB       -18.0450  -10.4700   36.1870 C.3   195  ILE195      0.0252
    203  CG1      -18.6920  -11.7190   36.8350 C.3   195  ILE195      0.0019
    204  CG2      -18.5490  -10.2620   34.7450 C.3   195  ILE195      0.0019
    205  CD1      -19.5220  -11.4500   37.9790 C.3   195  ILE195      0.0001
@<TRIPOS>BOND
     1   113   111    1
     2    81    82    1
     3    69    70    1
     4   111   110    2
     5   111   112    1
     6   101   100    1
     7   102   100    1
     8    71    72    2
     9    71    70    1
    10   110   109    1
    11   100    99    2
    12    70    73    1
    13    82    85    1
    14    82    83    1
    15    99    98    1
    16    98    97    1
    17    97    96    1
    18   109   108    1
    19    95    94    2
    20    73    74    1
    21    85    86    1
    22   108   107    1
    23    83    84    2
    24    83    92   am
    25    92    93    1
    26    64    63    2
    27    94    93    1
    28    94   103   am
    29    74    76   ar
    30    74    75   ar
    31    76    78   ar
    32    96    93    1
    33    86    87   ar
    34    86    88   ar
    35   107   104    1
    36    63    62    1
    37    87    89   ar
    38   104   103    1
    39   104   105    1
    40   125   124    1
    41    75    77   ar
    42    78    79   ar
    43     7     6    1
    44     7     1    1
    45    88    90   ar
    46   123   124   ar
    47   123   121   ar
    48   124   122   ar
    49    89    91   ar
    50    77    79   ar
    51    62    65    1
    52    62    61    1
    53    79    80    1
    54     6     5    1
    55   105   106    2
    56     1     2    1
    57    65    66    1
    58    90    91   ar
    59   121   119   ar
    60   122   120   ar
    61    59    58    2
    62     5     2    1
    63    66    68    1
    64    66    67    1
    65     2     3    1
    66   120   119   ar
    67   119   118    1
    68    58    57    1
    69   118   115    1
    70     3     4    2
    71    57    60    1
    72    57    56    1
    73   114   115    1
    74    54    53    2
    75   115   116    1
    76   131   130    1
    77    56    53   am
    78    53    52    1
    79   126   116   am
    80   126   127    1
    81   130   127    1
    82   116   117    2
    83   127   128    1
    84    52    51    1
    85    52    55    1
    86    17    15   ar
    87    17    18   ar
    88    49    48    2
    89    15    13   ar
    90    19    18    1
    91   128   129    2
    92    18    16   ar
    93     8     9    1
    94    13    12    1
    95    13    14   ar
    96    48    47    1
    97    12     9    1
    98    16    14   ar
    99   138   136    1
   100     9    10    1
   101    47    50    1
   102    47    46    1
   103    10    11    2
   104    44    43    2
   105   132   133    1
   106   136   133    1
   107   136   137    1
   108   201   200    2
   109   204   202    1
   110    46    43   am
   111    43    42    1
   112   133   134    1
   113   200   199    1
   114   202   199    1
   115   202   203    1
   116   199   198    1
   117   134   135    2
   118    42    41    1
   119    42    45    1
   120   203   205    1
   121    40    39    2
   122   151   149    1
   123    39    38    1
   124   143   140    1
   125   139   140    1
   126   194   193    2
   127   149   148    1
   128   140   141    1
   129    38    37    1
   130   193   192    1
   131   144   141   am
   132   144   145    1
   133   148   145    1
   134   148   150    1
   135   186   185    2
   136   192   195    1
   137   192   191    1
   138   141   142    2
   139   189   188    1
   140   145   146    1
   141   195   196    1
   142   185   191   am
   143   185   184    1
   144   188   190    1
   145   188   187    1
   146   191   197    1
   147    35    34    2
   148   146   147    2
   149   196   197    1
   150   184   187    1
   151   184   183    1
   152    34    33    1
   153   159   157    1
   154    33    36    1
   155    33    32    1
   156   156   157    1
   157   156   153    1
   158   152   153    1
   159   157   158    1
   160    23    22    2
   161   153   154    1
   162    32    22   am
   163   178   177    2
   164   166   164    1
   165    22    21    1
   166   170   169    2
   167   177   176    1
   168   160   154   am
   169   160   161    1
   170   154   155    2
   171   176   175    1
   172   176   179    1
   173   164   161    1
   174   164   165    1
   175   182   180    1
   176   169   175   am
   177   169   168    1
   178    21    20    1
   179    21    24    1
   180   161   162    1
   181   179   180    1
   182   168   171    1
   183   168   167    1
   184   180   181    1
   185    24    25    1
   186   162   163    2
   187   171   172    1
   188   172   173    1
   189   172   174    1
   190    26    25   ar
   191    26    28   ar
   192    25    27   ar
   193    28    30   ar
   194    27    29   ar
   195    30    29   ar
   196    30    31    1
