@<TRIPOS>MOLECULE
tmp/5u03A00.pdb
 177 167 0 0 0
SMALL
GASTEIGER

@<TRIPOS>ATOM
      1  N         -8.3620   -3.9870    2.2830 N.3    12  SER12      -0.1202
      2  CA        -9.3980   -4.9220    1.9700 C.3    12  SER12       0.2020
      3  C         -9.3060   -5.1440    0.4950 C.2    12  SER12       0.2619
      4  O         -8.7530   -4.3170   -0.2290 O.2    12  SER12      -0.2717
      5  CB       -10.7660   -4.3950    2.3630 C.3    12  SER12       0.2103
      6  OG       -11.1450   -3.3240    1.5420 O.3    12  SER12      -0.2182
      7  N         -9.8320   -6.2820   -0.0000 N.am   13  GLY13      -0.1942
      8  CA        -9.8390   -6.5130   -1.4170 C.3    13  GLY13       0.2014
      9  C         -8.5420   -7.1600   -1.7850 C.2    13  GLY13       0.2639
     10  O         -8.1850   -7.2480   -2.9580 O.2    13  GLY13      -0.2714
     11  N         -7.8110   -7.6280   -0.7640 N.am   14  ILE14      -0.1963
     12  CA        -6.5260   -8.2440   -0.9300 C.3    14  ILE14       0.1727
     13  C         -6.7050   -9.6040   -1.5360 C.2    14  ILE14       0.2617
     14  O         -5.8410  -10.0680   -2.2770 O.2    14  ILE14      -0.2715
     15  CB        -5.7820   -8.3580    0.4130 C.3    14  ILE14       0.0290
     16  CG1       -4.2920   -8.6190    0.1760 C.3    14  ILE14       0.0022
     17  CG2       -6.3900   -9.4580    1.2680 C.3    14  ILE14       0.0023
     18  CD1       -3.5770   -7.4890   -0.5280 C.3    14  ILE14       0.0001
     19  N         -7.8400  -10.2820   -1.2540 N.am   15  GLY15      -0.1940
     20  CA        -8.1080  -11.4980   -1.9700 C.3    15  GLY15       0.2014
     21  C         -8.1560  -12.6540   -1.0250 C.2    15  GLY15       0.2639
     22  O         -7.7880  -13.7740   -1.3770 O.2    15  GLY15      -0.2714
     23  N         -8.6170  -12.4020    0.2150 N.am   16  LYS16      -0.1963
     24  CA        -8.6780  -13.4350    1.2070 C.3    16  LYS16       0.1728
     25  C         -9.6670  -14.4750    0.7660 C.2    16  LYS16       0.2617
     26  O         -9.3660  -15.6690    0.7970 O.2    16  LYS16      -0.2715
     27  CB        -9.0690  -12.8620    2.5710 C.3    16  LYS16       0.0311
     28  CG        -7.9560  -12.0940    3.2740 C.3    16  LYS16       0.0038
     29  CD        -8.3620  -11.7030    4.6880 C.3    16  LYS16       0.0206
     30  CE        -9.3030  -10.5080    4.6820 C.3    16  LYS16       0.1093
     31  NZ        -9.5500   -9.9890    6.0540 N.3    16  LYS16      -0.1314
     32  N        -10.8720  -14.0570    0.3300 N.am   17  GLY17      -0.1940
     33  CA       -11.8630  -15.0060   -0.1010 C.3    17  GLY17       0.2014
     34  C        -11.4040  -15.7230   -1.3330 C.2    17  GLY17       0.2639
     35  O        -11.7950  -16.8650   -1.5690 O.2    17  GLY17      -0.2714
     36  N        -10.5590  -15.0760   -2.1570 N.am   18  ILE18      -0.1963
     37  CA       -10.1030  -15.7140   -3.3550 C.3    18  ILE18       0.1727
     38  C         -9.2320  -16.8730   -2.9890 C.2    18  ILE18       0.2616
     39  O         -9.3770  -17.9650   -3.5370 O.2    18  ILE18      -0.2715
     40  CB        -9.3280  -14.7350   -4.2560 C.3    18  ILE18       0.0290
     41  CG1      -10.2580  -13.6360   -4.7740 C.3    18  ILE18       0.0022
     42  CG2       -8.6800  -15.4780   -5.4150 C.3    18  ILE18       0.0023
     43  CD1      -11.4250  -14.1530   -5.5840 C.3    18  ILE18       0.0001
     44  N         -8.3050  -16.6610   -2.0370 N.am   19  ILE19      -0.1977
     45  CA        -7.4030  -17.7030   -1.6360 C.3    19  ILE19       0.1596
     46  C         -8.1760  -18.7430   -0.8990 C.2    19  ILE19       0.2287
     47  O         -7.9380  -19.9400   -1.0630 O.2    19  ILE19      -0.2864
     48  CB        -6.2660  -17.1620   -0.7480 C.3    19  ILE19       0.0276
     49  CG1       -5.4080  -16.1630   -1.5280 C.3    19  ILE19       0.0022
     50  CG2       -5.4120  -18.3070   -0.2230 C.3    19  ILE19       0.0022
     51  CD1       -4.7690  -16.7440   -2.7680 C.3    19  ILE19       0.0001
     52  N        -17.4540  -17.3900    7.4660 N.3    38  LYS38      -0.1245
     53  CA       -17.0930  -16.0430    7.1240 C.3    38  LYS38       0.1561
     54  C        -17.4430  -15.1630    8.2800 C.2    38  LYS38       0.2260
     55  O        -18.6130  -15.0110    8.6240 O.2    38  LYS38      -0.2867
     56  CB       -17.8030  -15.5770    5.8520 C.3    38  LYS38       0.0271
     57  CG       -17.3490  -14.2170    5.3390 C.3    38  LYS38       0.0035
     58  CD       -17.8450  -13.9680    3.9230 C.3    38  LYS38       0.0206
     59  CE       -17.1430  -12.7720    3.2940 C.3    38  LYS38       0.1093
     60  NZ       -17.6470  -11.4830    3.8390 N.3    38  LYS38      -0.1314
     61  N        -18.5810   -6.5780   10.7460 N.3    42  TYR42      -0.1241
     62  CA       -19.7810   -5.8010   10.6550 C.3    42  TYR42       0.1605
     63  C        -20.6060   -5.7490   11.8850 C.2    42  TYR42       0.2264
     64  O        -20.9310   -6.7580   12.5100 O.2    42  TYR42      -0.2867
     65  CB       -20.6400   -6.3310    9.5050 C.3    42  TYR42       0.0534
     66  CG       -20.0970   -5.9940    8.1330 C.ar   42  TYR42      -0.0201
     67  CD1      -20.2210   -6.9070    7.0950 C.ar   42  TYR42      -0.0009
     68  CD2      -19.4740   -4.7750    7.9140 C.ar   42  TYR42      -0.0009
     69  CE1      -19.7240   -6.6000    5.8420 C.ar   42  TYR42       0.0417
     70  CE2      -18.9780   -4.4680    6.6620 C.ar   42  TYR42       0.0417
     71  CZ       -19.1010   -5.3750    5.6290 C.ar   42  TYR42       0.1957
     72  OH       -18.6080   -5.0700    4.3820 O.3    42  TYR42      -0.2866
     73  N        -22.7730  -12.4380    1.9440 N.3    68  ASP68      -0.1239
     74  CA       -21.7460  -11.9560    1.0780 C.3    68  ASP68       0.1674
     75  C        -21.5330  -12.9880    0.0110 C.2    68  ASP68       0.2266
     76  O        -21.6460  -14.1910    0.2390 O.2    68  ASP68      -0.2867
     77  CB       -20.4480  -11.6920    1.8400 C.3    68  ASP68       0.1410
     78  CG       -19.4210  -10.9240    1.0160 C.2    68  ASP68       0.3668
     79  OD1      -18.7550  -11.5340    0.2160 O.co2  68  ASP68      -0.2456
     80  OD2      -19.3150   -9.7340    1.1970 O.co2  68  ASP68      -0.2456
     81  N        -18.9260  -13.9580   -1.3710 N.3    70  ASP70      -0.1239
     82  CA       -17.7770  -14.8130   -1.2680 C.3    70  ASP70       0.1674
     83  C        -18.2430  -16.1830   -0.8880 C.2    70  ASP70       0.2266
     84  O        -17.5980  -17.1800   -1.2130 O.2    70  ASP70      -0.2867
     85  CB       -16.7790  -14.2840   -0.2330 C.3    70  ASP70       0.1410
     86  CG       -16.0280  -13.0490   -0.7110 C.2    70  ASP70       0.3668
     87  OD1      -16.0490  -12.7830   -1.8900 O.co2  70  ASP70      -0.2456
     88  OD2      -15.4420  -12.3810    0.1070 O.co2  70  ASP70      -0.2456
     89  N        -19.0890  -17.7470   -3.8330 N.3    73  ASN73      -0.1240
     90  CA       -17.8910  -18.1340   -4.5200 C.3    73  ASN73       0.1653
     91  C        -17.4850  -19.4590   -3.9750 C.2    73  ASN73       0.2266
     92  O        -17.0550  -20.3460   -4.7120 O.2    73  ASN73      -0.2867
     93  CB       -16.7870  -17.1050   -4.3580 C.3    73  ASN73       0.1155
     94  CG       -17.0760  -15.8280   -5.0960 C.2    73  ASN73       0.2627
     95  OD1      -17.8390  -15.8170   -6.0690 O.2    73  ASN73      -0.2716
     96  ND2      -16.4820  -14.7490   -4.6520 N.am   73  ASN73      -0.0877
     97  N        -12.8360  -17.2710    6.9610 N.3   146  GLU146     -0.1245
     98  CA       -12.4700  -16.0060    6.4080 C.3   146  GLU146      0.1567
     99  C        -12.7520  -14.9740    7.4440 C.2   146  GLU146      0.2260
    100  O        -13.9080  -14.6350    7.7030 O.2   146  GLU146     -0.2867
    101  CB       -13.2430  -15.7090    5.1210 C.3   146  GLU146      0.0388
    102  CG       -12.8780  -14.3870    4.4580 C.3   146  GLU146      0.1160
    103  CD       -13.6680  -14.1220    3.2080 C.2   146  GLU146      0.3649
    104  OE1      -14.4490  -14.9630    2.8320 O.co2 146  GLU146     -0.2457
    105  OE2      -13.4910  -13.0770    2.6280 O.co2 146  GLU146     -0.2457
    106  N          0.1890  -10.8910   -1.8320 N.3   217  ARG217     -0.1245
    107  CA        -0.4410  -10.4180   -3.0250 C.3   217  ARG217      0.1563
    108  C          0.6270   -9.6470   -3.7260 C.2   217  ARG217      0.2260
    109  O          1.0560   -8.5940   -3.2600 O.2   217  ARG217     -0.2867
    110  CB        -1.6480   -9.5390   -2.7370 C.3   217  ARG217      0.0307
    111  CG        -2.2920   -8.9150   -3.9650 C.3   217  ARG217      0.0489
    112  CD        -3.1870   -9.8730   -4.6640 C.3   217  ARG217      0.2205
    113  NE        -3.9210   -9.2380   -5.7450 N.pl3 217  ARG217     -0.0865
    114  CZ        -5.1110   -8.6200   -5.6010 C.cat 217  ARG217      0.5346
    115  NH1       -5.6840   -8.5620   -4.4200 N.pl3 217  ARG217      0.1354
    116  NH2       -5.7020   -8.0710   -6.6490 N.pl3 217  ARG217      0.1354
    117  N          1.7710  -14.8190   -4.5520 N.3   244  VAL244     -0.1231
    118  CA         0.6780  -15.0570   -5.4430 C.3   244  VAL244      0.1692
    119  C          0.5830  -13.8090   -6.2550 C.2   244  VAL244      0.2592
    120  O         -0.0080  -12.8200   -5.8230 O.2   244  VAL244     -0.2718
    121  CB        -0.6380  -15.3270   -4.6870 C.3   244  VAL244      0.0266
    122  CG1       -1.7730  -15.5770   -5.6680 C.3   244  VAL244      0.0020
    123  CG2       -0.4630  -16.5120   -3.7490 C.3   244  VAL244      0.0020
    124  N          1.1810  -13.8310   -7.4640 N.am  245  HIS245     -0.1962
    125  CA         1.1650  -12.6920   -8.3340 C.3   245  HIS245      0.1787
    126  C         -0.1950  -12.5530   -8.9280 C.2   245  HIS245      0.2620
    127  O         -1.0140  -13.4700   -8.8710 O.2   245  HIS245     -0.2715
    128  CB         2.2150  -12.8200   -9.4410 C.3   245  HIS245      0.0785
    129  CG         1.9520  -13.9470  -10.3910 C.ar  245  HIS245      0.0821
    130  ND1        1.0120  -13.8680  -11.3980 N.ar  245  HIS245     -0.2267
    131  CD2        2.5050  -15.1790  -10.4890 C.ar  245  HIS245      0.1154
    132  CE1        0.9980  -15.0040  -12.0730 C.ar  245  HIS245      0.1986
    133  NE2        1.8950  -15.8150  -11.5410 N.ar  245  HIS245     -0.2212
    134  N         -0.4730  -11.3660   -9.4980 N.am  246  ASP246     -0.1957
    135  CA        -1.7760  -11.1030  -10.0250 C.3   246  ASP246      0.1840
    136  C         -1.9420  -11.9810  -11.2210 C.2   246  ASP246      0.2621
    137  O         -1.0180  -12.1540  -12.0150 O.2   246  ASP246     -0.2715
    138  CB        -1.9490   -9.6310  -10.4050 C.3   246  ASP246      0.1450
    139  CG        -2.1370   -8.7260   -9.1960 C.2   246  ASP246      0.3671
    140  OD1       -2.5270   -9.2200   -8.1630 O.co2 246  ASP246     -0.2456
    141  OD2       -1.8860   -7.5510   -9.3140 O.co2 246  ASP246     -0.2456
    142  N         -3.1420  -12.5680  -11.3630 N.am  247  VAL247     -0.1977
    143  CA        -3.3960  -13.4460  -12.4650 C.3   247  VAL247      0.1596
    144  C         -4.4890  -12.8370  -13.2740 C.2   247  VAL247      0.2287
    145  O         -5.2880  -12.0480  -12.7740 O.2   247  VAL247     -0.2864
    146  CB        -3.8090  -14.8490  -11.9810 C.3   247  VAL247      0.0276
    147  CG1       -2.6760  -15.4990  -11.2030 C.3   247  VAL247      0.0022
    148  CG2       -5.0650  -14.7550  -11.1300 C.3   247  VAL247      0.0022
    149  N         -6.9030  -14.4070  -14.4250 N.3   249  SER249     -0.1202
    150  CA        -8.1680  -14.9070  -13.9630 C.3   249  SER249      0.2020
    151  C         -7.9620  -15.8600  -12.8300 C.2   249  SER249      0.2618
    152  O         -6.9470  -16.5470  -12.7470 O.2   249  SER249     -0.2717
    153  CB        -8.9120  -15.5950  -15.0910 C.3   249  SER249      0.2103
    154  OG       -10.1430  -16.0980  -14.6490 O.3   249  SER249     -0.2182
    155  N         -8.9650  -15.9050  -11.9300 N.am  250  ILE250     -0.1979
    156  CA        -8.8820  -16.4380  -10.5970 C.3   250  ILE250      0.1595
    157  C         -8.5170  -17.8850  -10.6870 C.2   250  ILE250      0.2287
    158  O         -7.8140  -18.4260   -9.8350 O.2   250  ILE250     -0.2864
    159  CB       -10.2090  -16.2730   -9.8340 C.3   250  ILE250      0.0276
    160  CG1      -10.5250  -14.7900   -9.6280 C.3   250  ILE250      0.0022
    161  CG2      -10.1480  -16.9990   -8.4980 C.3   250  ILE250      0.0022
    162  CD1       -9.4570  -14.0380   -8.8670 C.3   250  ILE250      0.0001
    163  N         -5.1700  -19.3780   -9.8390 N.3   253  VAL253     -0.1245
    164  CA        -4.6300  -19.3490   -8.5070 C.3   253  VAL253      0.1561
    165  C         -4.5030  -20.7290   -7.9360 C.2   253  VAL253      0.2260
    166  O         -3.4580  -21.0510   -7.3730 O.2   253  VAL253     -0.2867
    167  CB        -5.5270  -18.4980   -7.5870 C.3   253  VAL253      0.0252
    168  CG1       -5.0690  -18.6150   -6.1410 C.3   253  VAL253      0.0019
    169  CG2       -5.5100  -17.0480   -8.0440 C.3   253  VAL253      0.0019
    170  N        -18.0340   -4.0750   -9.2220 N.3   312  ASP312     -0.1239
    171  CA       -18.1290   -5.4890   -9.2730 C.3   312  ASP312      0.1674
    172  C        -19.5320   -5.8650   -8.8900 C.2   312  ASP312      0.2266
    173  O        -19.7730   -6.9870   -8.4500 O.2   312  ASP312     -0.2867
    174  CB       -17.1120   -6.1460   -8.3350 C.3   312  ASP312      0.1410
    175  CG       -15.6700   -5.9140   -8.7680 C.2   312  ASP312      0.3668
    176  OD1      -15.4560   -5.6310   -9.9230 O.co2 312  ASP312     -0.2456
    177  OD2      -14.7990   -6.0180   -7.9390 O.co2 312  ASP312     -0.2456
@<TRIPOS>BOND
     1   153   154    1
     2   153   150    1
     3   149   150    1
     4   150   151    1
     5   144   145    2
     6   144   143    1
     7   151   152    2
     8   151   155   am
     9   143   146    1
    10   143   142    1
    11   132   133   ar
    12   132   130   ar
    13   137   136    2
    14   146   147    1
    15   146   148    1
    16   155   156    1
    17   133   131   ar
    18   130   129   ar
    19   142   136   am
    20   136   135    1
    21   157   156    1
    22   157   158    2
    23   156   159    1
    24   131   129   ar
    25   138   135    1
    26   138   139    1
    27   129   128    1
    28   135   134    1
    29   176   175   ar
    30   163   164    1
    31   159   160    1
    32   159   161    1
    33   160   162    1
    34   134   126   am
    35   128   125    1
    36   141   139   ar
    37   171   170    1
    38   171   172    1
    39   171   174    1
    40   139   140   ar
    41   126   127    2
    42   126   125    1
    43   172   173    2
    44   175   174    1
    45   175   177   ar
    46   164   165    1
    47   164   167    1
    48   125   124    1
    49   169   167    1
    50   165   166    2
    51   167   168    1
    52   124   119   am
    53   116   114    1
    54   119   120    2
    55   119   118    1
    56    95    94    2
    57   113   114    2
    58   113   112    1
    59   122   121    1
    60   114   115    1
    61    43    41    1
    62   118   121    1
    63   118   117    1
    64    42    40    1
    65    94    96   am
    66    94    93    1
    67    41    40    1
    68    92    91    2
    69   121   123    1
    70   112   111    1
    71    90    93    1
    72    90    91    1
    73    90    89    1
    74    40    37    1
    75   111   110    1
    76   108   109    2
    77   108   107    1
    78    39    38    2
    79    37    38    1
    80    37    36    1
    81   107   110    1
    82   107   106    1
    83    38    44   am
    84    10     9    2
    85    51    49    1
    86    14    13    2
    87    36    34   am
    88    44    45    1
    89    20    19    1
    90    20    21    1
    91    87    86   ar
    92     9     8    1
    93     9    11   am
    94    45    46    1
    95    45    48    1
    96    35    34    2
    97    13    19   am
    98    13    12    1
    99    49    48    1
   100     8     7    1
   101    22    21    2
   102    81    82    1
   103    34    33    1
   104    82    83    1
   105    82    85    1
   106    84    83    2
   107    47    46    2
   108    21    23   am
   109    12    11    1
   110    12    15    1
   111    48    50    1
   112    86    85    1
   113    86    88   ar
   114    18    16    1
   115     4     3    2
   116    33    32    1
   117     7     3   am
   118    75    76    2
   119    75    74    1
   120    16    15    1
   121    23    24    1
   122    79    78   ar
   123    32    25   am
   124    15    17    1
   125     3     2    1
   126    25    26    2
   127    25    24    1
   128    78    80   ar
   129    78    77    1
   130    74    77    1
   131    74    73    1
   132    24    27    1
   133     6     5    1
   134     2     1    1
   135     2     5    1
   136    27    28    1
   137   105   103   ar
   138   104   103   ar
   139   103   102    1
   140    28    29    1
   141    59    60    1
   142    59    58    1
   143    58    57    1
   144    72    71    1
   145   102   101    1
   146    30    29    1
   147    30    31    1
   148   101    98    1
   149    57    56    1
   150    71    69   ar
   151    71    70   ar
   152    69    67   ar
   153    56    53    1
   154    98    97    1
   155    98    99    1
   156    70    68   ar
   157    67    66   ar
   158    53    52    1
   159    53    54    1
   160    99   100    2
   161    68    66   ar
   162    66    65    1
   163    54    55    2
   164    65    62    1
   165    62    61    1
   166    62    63    1
   167    63    64    2
