@<TRIPOS>MOLECULE
tmp/5u03A01.pdb
 135 127 0 0 0
SMALL
GASTEIGER

@<TRIPOS>ATOM
      1  N         -4.9610   -3.8990    3.3100 N.3    11  ILE11      -0.1231
      2  CA        -6.0700   -3.3110    2.6070 C.3    11  ILE11       0.1692
      3  C         -7.0740   -4.3780    2.3290 C.2    11  ILE11       0.2592
      4  O         -6.7340   -5.5480    2.1660 O.2    11  ILE11      -0.2718
      5  CB        -5.6260   -2.6470    1.2910 C.3    11  ILE11       0.0266
      6  CG1       -6.7500   -1.7750    0.7270 C.3    11  ILE11       0.0019
      7  CG2       -5.2080   -3.7030    0.2780 C.3    11  ILE11       0.0020
      8  CD1       -7.0470   -0.5490    1.5570 C.3    11  ILE11       0.0001
      9  N         -8.3620   -3.9870    2.2830 N.am   12  SER12      -0.1952
     10  CA        -9.3980   -4.9220    1.9700 C.3    12  SER12       0.1924
     11  C         -9.3060   -5.1440    0.4950 C.2    12  SER12       0.2314
     12  O         -8.7530   -4.3170   -0.2290 O.2    12  SER12      -0.2863
     13  CB       -10.7660   -4.3950    2.3630 C.3    12  SER12       0.2116
     14  OG       -11.1450   -3.3240    1.5420 O.3    12  SER12      -0.2180
     15  N         -8.6170  -12.4020    0.2150 N.3    16  LYS16      -0.1245
     16  CA        -8.6780  -13.4350    1.2070 C.3    16  LYS16       0.1561
     17  C         -9.6670  -14.4750    0.7660 C.2    16  LYS16       0.2260
     18  O         -9.3660  -15.6690    0.7970 O.2    16  LYS16      -0.2867
     19  CB        -9.0690  -12.8620    2.5710 C.3    16  LYS16       0.0271
     20  CG        -7.9560  -12.0940    3.2740 C.3    16  LYS16       0.0035
     21  CD        -8.3620  -11.7030    4.6880 C.3    16  LYS16       0.0206
     22  CE        -9.3030  -10.5080    4.6820 C.3    16  LYS16       0.1093
     23  NZ        -9.5500   -9.9890    6.0540 N.3    16  LYS16      -0.1314
     24  N        -17.4540  -17.3900    7.4660 N.3    38  LYS38      -0.1245
     25  CA       -17.0930  -16.0430    7.1240 C.3    38  LYS38       0.1561
     26  C        -17.4430  -15.1630    8.2800 C.2    38  LYS38       0.2260
     27  O        -18.6130  -15.0110    8.6240 O.2    38  LYS38      -0.2867
     28  CB       -17.8030  -15.5770    5.8520 C.3    38  LYS38       0.0271
     29  CG       -17.3490  -14.2170    5.3390 C.3    38  LYS38       0.0035
     30  CD       -17.8450  -13.9680    3.9230 C.3    38  LYS38       0.0206
     31  CE       -17.1430  -12.7720    3.2940 C.3    38  LYS38       0.1093
     32  NZ       -17.6470  -11.4830    3.8390 N.3    38  LYS38      -0.1314
     33  N        -17.6970  -11.5480    9.6160 N.3    40  ASP40      -0.1225
     34  CA       -17.6940  -10.1830    9.1750 C.3    40  ASP40       0.1790
     35  C        -17.7420   -9.3310   10.4030 C.2    40  ASP40       0.2440
     36  O        -18.6430   -9.4520   11.2300 O.2    40  ASP40      -0.2733
     37  CB       -18.8820   -9.8790    8.2580 C.3    40  ASP40       0.1423
     38  CG       -18.7760  -10.5670    6.9040 C.2    40  ASP40       0.3668
     39  OD1      -17.7130  -10.5450    6.3300 O.co2  40  ASP40      -0.2456
     40  OD2      -19.7590  -11.1090    6.4560 O.co2  40  ASP40      -0.2456
     41  N        -16.7700   -8.4740   10.5350 N.am   41  PRO41      -0.2718
     42  CA       -16.6420   -7.6570   11.7080 C.3    41  PRO41       0.1535
     43  C        -17.8710   -6.8200   11.8620 C.2    41  PRO41       0.2598
     44  O        -18.1600   -6.3870   12.9730 O.2    41  PRO41      -0.2715
     45  CB       -15.4000   -6.8090   11.4220 C.3    41  PRO41       0.0310
     46  CG       -14.5880   -7.6500   10.4950 C.3    41  PRO41       0.0237
     47  CD       -15.6070   -8.3430    9.6300 C.3    41  PRO41       0.0939
     48  N        -18.5810   -6.5780   10.7460 N.am   42  TYR42      -0.1974
     49  CA       -19.7810   -5.8010   10.6550 C.3    42  TYR42       0.1639
     50  C        -20.6060   -5.7490   11.8850 C.2    42  TYR42       0.2290
     51  O        -20.9310   -6.7580   12.5100 O.2    42  TYR42      -0.2864
     52  CB       -20.6400   -6.3310    9.5050 C.3    42  TYR42       0.0560
     53  CG       -20.0970   -5.9940    8.1330 C.ar   42  TYR42      -0.0198
     54  CD1      -20.2210   -6.9070    7.0950 C.ar   42  TYR42      -0.0009
     55  CD2      -19.4740   -4.7750    7.9140 C.ar   42  TYR42      -0.0009
     56  CE1      -19.7240   -6.6000    5.8420 C.ar   42  TYR42       0.0417
     57  CE2      -18.9780   -4.4680    6.6620 C.ar   42  TYR42       0.0417
     58  CZ       -19.1010   -5.3750    5.6290 C.ar   42  TYR42       0.1957
     59  OH       -18.6080   -5.0700    4.3820 O.3    42  TYR42      -0.2866
     60  N        -22.3690   -0.4580   -3.2660 N.3    54  GLU54      -0.1231
     61  CA       -21.4330   -0.3260   -2.1990 C.3    54  GLU54       0.1699
     62  C        -20.5320   -1.5230   -2.0720 C.2    54  GLU54       0.2592
     63  O        -19.3340   -1.3950   -1.8410 O.2    54  GLU54      -0.2718
     64  CB       -22.1760   -0.0960   -0.8820 C.3    54  GLU54       0.0402
     65  CG       -21.2700    0.1460    0.3170 C.3    54  GLU54       0.1161
     66  CD       -20.5480    1.4620    0.2490 C.2    54  GLU54       0.3649
     67  OE1      -21.1800    2.4520   -0.0340 O.co2  54  GLU54      -0.2457
     68  OE2      -19.3620    1.4800    0.4800 O.co2  54  GLU54      -0.2457
     69  N        -21.1150   -2.7330   -2.2190 N.am   55  HIS55      -0.1976
     70  CA       -20.3810   -3.9540   -2.0160 C.3    55  HIS55       0.1656
     71  C        -20.5250   -4.9220   -3.1310 C.2    55  HIS55       0.2291
     72  O        -19.5460   -5.4580   -3.6510 O.2    55  HIS55      -0.2864
     73  CB       -20.8240   -4.6310   -0.7140 C.3    55  HIS55       0.0771
     74  CG       -20.4990   -3.8410    0.5150 C.ar   55  HIS55       0.0820
     75  ND1      -19.2170   -3.7330    1.0130 N.ar   55  HIS55      -0.2267
     76  CD2      -21.2880   -3.1210    1.3460 C.ar   55  HIS55       0.1154
     77  CE1      -19.2330   -2.9790    2.0990 C.ar   55  HIS55       0.1986
     78  NE2      -20.4750   -2.5950    2.3230 N.ar   55  HIS55      -0.2212
     79  N        -22.7730  -12.4380    1.9440 N.3    68  ASP68      -0.1239
     80  CA       -21.7460  -11.9560    1.0780 C.3    68  ASP68       0.1674
     81  C        -21.5330  -12.9880    0.0110 C.2    68  ASP68       0.2266
     82  O        -21.6460  -14.1910    0.2390 O.2    68  ASP68      -0.2867
     83  CB       -20.4480  -11.6920    1.8400 C.3    68  ASP68       0.1410
     84  CG       -19.4210  -10.9240    1.0160 C.2    68  ASP68       0.3668
     85  OD1      -18.7550  -11.5340    0.2160 O.co2  68  ASP68      -0.2456
     86  OD2      -19.3150   -9.7340    1.1970 O.co2  68  ASP68      -0.2456
     87  N        -18.9260  -13.9580   -1.3710 N.3    70  ASP70      -0.1239
     88  CA       -17.7770  -14.8130   -1.2680 C.3    70  ASP70       0.1674
     89  C        -18.2430  -16.1830   -0.8880 C.2    70  ASP70       0.2266
     90  O        -17.5980  -17.1800   -1.2130 O.2    70  ASP70      -0.2867
     91  CB       -16.7790  -14.2840   -0.2330 C.3    70  ASP70       0.1410
     92  CG       -16.0280  -13.0490   -0.7110 C.2    70  ASP70       0.3668
     93  OD1      -16.0490  -12.7830   -1.8900 O.co2  70  ASP70      -0.2456
     94  OD2      -15.4420  -12.3810    0.1070 O.co2  70  ASP70      -0.2456
     95  N        -12.8360  -17.2710    6.9610 N.3   146  GLU146     -0.1245
     96  CA       -12.4700  -16.0060    6.4080 C.3   146  GLU146      0.1567
     97  C        -12.7520  -14.9740    7.4440 C.2   146  GLU146      0.2260
     98  O        -13.9080  -14.6350    7.7030 O.2   146  GLU146     -0.2867
     99  CB       -13.2430  -15.7090    5.1210 C.3   146  GLU146      0.0388
    100  CG       -12.8780  -14.3870    4.4580 C.3   146  GLU146      0.1160
    101  CD       -13.6680  -14.1220    3.2080 C.2   146  GLU146      0.3649
    102  OE1      -14.4490  -14.9630    2.8320 O.co2 146  GLU146     -0.2457
    103  OE2      -13.4910  -13.0770    2.6280 O.co2 146  GLU146     -0.2457
    104  N        -12.8510  -11.3580    8.2970 N.3   148  GLY148     -0.1210
    105  CA       -12.8550  -10.1360    7.5520 C.3   148  GLY148      0.1956
    106  C        -12.1520   -9.1020    8.3650 C.2   148  GLY148      0.2612
    107  O        -11.7390   -9.3530    9.4950 O.2   148  GLY148     -0.2717
    108  N        -12.0090   -7.8930    7.7900 N.am  149  GLY149     -0.1942
    109  CA       -11.3090   -6.8370    8.4550 C.3   149  GLY149      0.2014
    110  C         -9.8630   -6.9610    8.1110 C.2   149  GLY149      0.2639
    111  O         -9.4560   -7.8700    7.3940 O.2   149  GLY149     -0.2714
    112  N         -9.0440   -6.0300    8.6320 N.am  150  THR150     -0.1950
    113  CA        -7.6300   -6.1080    8.4350 C.3   150  THR150      0.1897
    114  C         -7.0090   -6.0510    9.7910 C.2   150  THR150      0.2313
    115  O         -7.6390   -5.6290   10.7590 O.2   150  THR150     -0.2863
    116  CB        -7.0960   -4.9750    7.5400 C.3   150  THR150      0.1794
    117  OG1       -7.3450   -3.7100    8.1660 O.3   150  THR150     -0.2208
    118  CG2       -7.7760   -5.0050    6.1800 C.3   150  THR150      0.0378
    119  N         -7.7740   -3.4880   12.8760 N.3   153  ASP153     -0.1239
    120  CA        -9.1160   -3.0000   13.0100 C.3   153  ASP153      0.1674
    121  C         -9.6500   -3.4730   14.3230 C.2   153  ASP153      0.2266
    122  O         -9.6110   -4.6610   14.6370 O.2   153  ASP153     -0.2867
    123  CB       -10.0060   -3.4840   11.8650 C.3   153  ASP153      0.1410
    124  CG        -9.6640   -2.8350   10.5310 C.2   153  ASP153      0.3668
    125  OD1       -9.3800   -1.6600   10.5210 O.co2 153  ASP153     -0.2456
    126  OD2       -9.6890   -3.5180    9.5370 O.co2 153  ASP153     -0.2456
    127  N        -12.5500   -3.6880   15.0460 N.3   155  GLU155     -0.1245
    128  CA       -13.7300   -4.4670   14.7980 C.3   155  GLU155      0.1567
    129  C        -13.4450   -5.9310   14.9170 C.2   155  GLU155      0.2260
    130  O        -14.3500   -6.7140   15.2030 O.2   155  GLU155     -0.2867
    131  CB       -14.2900   -4.1590   13.4070 C.3   155  GLU155      0.0388
    132  CG       -14.7690   -2.7260   13.2240 C.3   155  GLU155      0.1160
    133  CD       -15.2020   -2.4280   11.8160 C.2   155  GLU155      0.3649
    134  OE1      -15.0620   -3.2870   10.9770 O.co2 155  GLU155     -0.2457
    135  OE2      -15.6740   -1.3420   11.5760 O.co2 155  GLU155     -0.2457
@<TRIPOS>BOND
     1    72    71    2
     2    60    61    1
     3    71    70    1
     4    69    62   am
     5    69    70    1
     6    61    62    1
     7    61    64    1
     8    62    63    2
     9    70    73    1
    10    93    92   ar
    11    87    88    1
    12    88    89    1
    13    88    91    1
    14    90    89    2
    15    64    65    1
    16    73    74    1
    17    92    91    1
    18    92    94   ar
    19    12    11    2
    20    67    66   ar
    21    81    82    2
    22    81    80    1
    23    15    16    1
    24    85    84   ar
    25    66    65    1
    26    66    68   ar
    27     7     5    1
    28    11    10    1
    29    74    75   ar
    30    74    76   ar
    31     6     5    1
    32     6     8    1
    33    17    18    2
    34    17    16    1
    35    75    77   ar
    36    84    86   ar
    37    84    83    1
    38    80    83    1
    39    80    79    1
    40    16    19    1
    41     5     2    1
    42    76    78   ar
    43    14    13    1
    44    10     9    1
    45    10    13    1
    46    77    78   ar
    47     4     3    2
    48     9     3   am
    49     3     2    1
    50    19    20    1
    51     2     1    1
    52   103   101   ar
    53   102   101   ar
    54   101   100    1
    55    20    21    1
    56    31    32    1
    57    31    30    1
    58    30    29    1
    59    59    58    1
    60   100    99    1
    61    22    21    1
    62    22    23    1
    63    99    96    1
    64    29    28    1
    65    58    56   ar
    66    58    57   ar
    67    56    54   ar
    68    28    25    1
    69   118   116    1
    70    39    38   ar
    71    96    95    1
    72    96    97    1
    73    40    38   ar
    74    57    55   ar
    75    38    37    1
    76    54    53   ar
    77    25    24    1
    78    25    26    1
    79   111   110    2
    80    97    98    2
    81   116   117    1
    82   116   113    1
    83   105   104    1
    84   105   106    1
    85   108   106   am
    86   108   109    1
    87    55    53   ar
    88   110   109    1
    89   110   112   am
    90    53    52    1
    91    37    34    1
    92    26    27    2
    93   106   107    2
    94   113   112    1
    95   113   114    1
    96    34    33    1
    97    34    35    1
    98    52    49    1
    99   126   124   ar
   100    47    46    1
   101    47    41    1
   102   114   115    2
   103    35    41   am
   104    35    36    2
   105    46    45    1
   106   125   124   ar
   107   124   123    1
   108    41    42    1
   109    49    48    1
   110    49    50    1
   111    48    43   am
   112   134   133   ar
   113    45    42    1
   114   135   133   ar
   115    42    43    1
   116   133   132    1
   117    43    44    2
   118   123   120    1
   119    50    51    2
   120   119   120    1
   121   120   121    1
   122   132   131    1
   123   131   128    1
   124   121   122    2
   125   128   129    1
   126   128   127    1
   127   129   130    2
