@<TRIPOS>MOLECULE
tmp/5u06B00.pdb
 166 158 0 0 0
SMALL
GASTEIGER

@<TRIPOS>ATOM
      1  N         16.0190  -19.0610   21.4460 N.3    12  ARG12      -0.1245
      2  CA        16.6240  -18.3410   20.3310 C.3    12  ARG12       0.1563
      3  C         18.0230  -18.8710   20.0370 C.2    12  ARG12       0.2260
      4  O         18.4120  -19.0070   18.8720 O.2    12  ARG12      -0.2867
      5  CB        16.6710  -16.8400   20.6240 C.3    12  ARG12       0.0307
      6  CG        17.5530  -16.0650   19.6520 C.3    12  ARG12       0.0489
      7  CD        17.7530  -14.6160   20.0580 C.3    12  ARG12       0.2205
      8  NE        16.6320  -13.7590   19.6870 N.pl3  12  ARG12      -0.0865
      9  CZ        16.7240  -12.7410   18.8340 C.cat  12  ARG12       0.5346
     10  NH1       17.8890  -12.4430   18.2660 N.pl3  12  ARG12       0.1354
     11  NH2       15.6510  -12.0130   18.5570 N.pl3  12  ARG12       0.1354
     12  N          9.5860  -21.3920   15.5670 N.3    32  ARG32      -0.1245
     13  CA         9.6500  -21.7120   16.9820 C.3    32  ARG32       0.1563
     14  C          8.6430  -20.8700   17.7530 C.2    32  ARG32       0.2260
     15  O          8.2750  -19.7700   17.3350 O.2    32  ARG32      -0.2867
     16  CB        11.0570  -21.4760   17.5400 C.3    32  ARG32       0.0307
     17  CG        11.5760  -20.0640   17.3540 C.3    32  ARG32       0.0489
     18  CD        13.0030  -19.9570   17.8560 C.3    32  ARG32       0.2205
     19  NE        13.6000  -18.6580   17.5690 N.pl3  32  ARG32      -0.0865
     20  CZ        13.5370  -17.6120   18.3890 C.cat  32  ARG32       0.5346
     21  NH1       12.9060  -17.7120   19.5520 N.pl3  32  ARG32       0.1354
     22  NH2       14.1080  -16.4650   18.0470 N.pl3  32  ARG32       0.1354
     23  N          7.9640  -18.4450   20.6780 N.3    34  SER34      -0.1202
     24  CA         8.8290  -17.4420   21.2910 C.3    34  SER34       0.2020
     25  C          8.7890  -17.5740   22.8090 C.2    34  SER34       0.2619
     26  O          7.7080  -17.6060   23.4070 O.2    34  SER34      -0.2717
     27  CB         8.4060  -16.0390   20.8600 C.3    34  SER34       0.2103
     28  OG         9.1740  -15.0440   21.5150 O.3    34  SER34      -0.2182
     29  N          9.9680  -17.6320   23.4330 N.am   35  GLN35      -0.1965
     30  CA        10.0450  -17.6650   24.8890 C.3    35  GLN35       0.1733
     31  C          9.9570  -16.2710   25.4980 C.2    35  GLN35       0.2616
     32  O          9.5220  -16.1260   26.6480 O.2    35  GLN35      -0.2715
     33  CB        11.3470  -18.3350   25.3210 C.3    35  GLN35       0.0408
     34  CG        11.4070  -19.8240   25.0430 C.3    35  GLN35       0.0908
     35  CD        12.7090  -20.4440   25.5070 C.2    35  GLN35       0.2608
     36  OE1       13.7170  -19.7540   25.6630 O.2    35  GLN35      -0.2717
     37  NE2       12.6960  -21.7530   25.7240 N.am   35  GLN35      -0.0878
     38  N         10.3950  -15.2670   24.7270 N.am   36  ARG36      -0.1963
     39  CA        10.2650  -13.8430   25.0770 C.3    36  ARG36       0.1729
     40  C          8.8110  -13.3090   25.0050 C.2    36  ARG36       0.2616
     41  O          8.3560  -12.6070   25.9080 O.2    36  ARG36      -0.2715
     42  CB        11.1790  -12.9900   24.1930 C.3    36  ARG36       0.0348
     43  CG        10.9920  -11.4920   24.3690 C.3    36  ARG36       0.0492
     44  CD        12.2780  -10.7380   24.0740 C.3    36  ARG36       0.2205
     45  NE        12.0820   -9.2910   24.1050 N.pl3  36  ARG36      -0.0865
     46  CZ        12.2460   -8.4920   23.0550 C.cat  36  ARG36       0.5346
     47  NH1       12.0460   -7.1870   23.1750 N.pl3  36  ARG36       0.1354
     48  NH2       12.6090   -8.9990   21.8850 N.pl3  36  ARG36       0.1354
     49  N          8.0990  -13.6540   23.9250 N.am   37  ASN37      -0.1972
     50  CA         6.6730  -13.2860   23.7150 C.3    37  ASN37       0.1688
     51  C          5.9210  -14.6630   23.6530 C.2    37  ASN37       0.2292
     52  O          5.8340  -15.2480   22.6120 O.2    37  ASN37      -0.2864
     53  CB         6.4570  -12.6360   22.3440 C.3    37  ASN37       0.1181
     54  CG         7.1350  -11.2730   22.1040 C.2    37  ASN37       0.2629
     55  OD1        8.3490  -11.0670   22.2460 O.2    37  ASN37      -0.2716
     56  ND2        6.3380  -10.3610   21.6000 N.am   37  ASN37      -0.0877
     57  N          8.2030  -17.2090   16.0830 N.3    42  VAL42      -0.1245
     58  CA         9.3780  -16.6410   15.4310 C.3    42  VAL42       0.1561
     59  C          9.7480  -17.5130   14.2420 C.2    42  VAL42       0.2260
     60  O          9.7770  -18.7440   14.3510 O.2    42  VAL42      -0.2867
     61  CB        10.5760  -16.5200   16.3970 C.3    42  VAL42       0.0252
     62  CG1       11.7770  -15.9130   15.6850 C.3    42  VAL42       0.0019
     63  CG2       10.2070  -15.6820   17.6110 C.3    42  VAL42       0.0019
     64  N         24.0620  -15.5450    8.2530 N.3    50  LYS50      -0.1245
     65  CA        23.6140  -14.9690    9.5120 C.3    50  LYS50       0.1561
     66  C         22.1880  -15.4190    9.7880 C.2    50  LYS50       0.2260
     67  O         21.3560  -15.4520    8.8780 O.2    50  LYS50      -0.2867
     68  CB        23.6960  -13.4360    9.4660 C.3    50  LYS50       0.0271
     69  CG        23.0170  -12.7130   10.6120 C.3    50  LYS50       0.0035
     70  CD        23.0040  -11.2170   10.3530 C.3    50  LYS50       0.0206
     71  CE        22.4960  -10.4510   11.5590 C.3    50  LYS50       0.1093
     72  NZ        21.0100  -10.4470   11.6090 N.3    50  LYS50      -0.1314
     73  N         18.6570  -14.7640   11.1320 N.3    52  LYS52      -0.1231
     74  CA        17.7570  -13.6460   11.3570 C.3    52  LYS52       0.1693
     75  C         16.4430  -14.1670   11.9250 C.2    52  LYS52       0.2592
     76  O         16.0510  -15.3090   11.6670 O.2    52  LYS52      -0.2718
     77  CB        17.5050  -12.9070   10.0450 C.3    52  LYS52       0.0285
     78  CG        18.7690  -12.7660    9.2140 C.3    52  LYS52       0.0035
     79  CD        18.7890  -11.5440    8.3270 C.3    52  LYS52       0.0206
     80  CE        20.1230  -11.4560    7.6020 C.3    52  LYS52       0.1093
     81  NZ        20.2450  -10.2390    6.7590 N.3    52  LYS52      -0.1314
     82  N         15.7580  -13.3240   12.6950 N.am   53  HIS53      -0.1962
     83  CA        14.5380  -13.7250   13.3840 C.3    53  HIS53       0.1787
     84  C         13.4140  -12.7640   13.0320 C.2    53  HIS53       0.2620
     85  O         13.6060  -11.5440   13.0600 O.2    53  HIS53      -0.2715
     86  CB        14.7590  -13.7660   14.8960 C.3    53  HIS53       0.0785
     87  CG        15.9410  -14.5860   15.3040 C.ar   53  HIS53       0.0821
     88  ND1       15.8660  -15.9440   15.5320 N.ar   53  HIS53      -0.2267
     89  CD2       17.2330  -14.2420   15.5130 C.ar   53  HIS53       0.1154
     90  CE1       17.0580  -16.3970   15.8720 C.ar   53  HIS53       0.1986
     91  NE2       17.9060  -15.3840   15.8680 N.ar   53  HIS53      -0.2212
     92  N         12.2460  -13.3120   12.7040 N.am   54  TYR54      -0.1960
     93  CA        11.0940  -12.5270   12.2760 C.3    54  TYR54       0.1771
     94  C          9.9090  -12.8510   13.1720 C.2    54  TYR54       0.2619
     95  O          9.4240  -13.9870   13.1880 O.2    54  TYR54      -0.2715
     96  CB        10.7730  -12.7900   10.8050 C.3    54  TYR54       0.0574
     97  CG        11.9260  -12.4060    9.9140 C.ar   54  TYR54      -0.0198
     98  CD1       12.9030  -13.3300    9.5730 C.ar   54  TYR54      -0.0009
     99  CD2       12.0630  -11.1040    9.4540 C.ar   54  TYR54      -0.0009
    100  CE1       13.9700  -12.9750    8.7730 C.ar   54  TYR54       0.0417
    101  CE2       13.1240  -10.7390    8.6550 C.ar   54  TYR54       0.0417
    102  CZ        14.0750  -11.6770    8.3180 C.ar   54  TYR54       0.1957
    103  OH        15.1340  -11.3110    7.5250 O.3    54  TYR54      -0.2866
    104  N          9.4430  -11.8420   13.9010 N.am   55  LEU55      -0.1977
    105  CA         8.4000  -12.0340   14.8980 C.3    55  LEU55       0.1596
    106  C          7.0440  -12.2260   14.2320 C.2    55  LEU55       0.2287
    107  O          6.6430  -11.4380   13.3700 O.2    55  LEU55      -0.2864
    108  CB         8.3620  -10.8330   15.8420 C.3    55  LEU55       0.0297
    109  CG         7.4090  -10.8900   17.0340 C.3    55  LEU55       0.0022
    110  CD1        7.6960  -12.1220   17.8880 C.3    55  LEU55       0.0001
    111  CD2        7.5560   -9.6160   17.8560 C.3    55  LEU55       0.0001
    112  N          3.2200  -12.2980   15.1880 N.3    57  LEU57      -0.1245
    113  CA         2.3150  -11.9270   16.2670 C.3    57  LEU57       0.1561
    114  C          0.8680  -12.1860   15.8730 C.2    57  LEU57       0.2260
    115  O          0.4760  -11.9150   14.7320 O.2    57  LEU57      -0.2867
    116  CB         2.4770  -10.4510   16.6350 C.3    57  LEU57       0.0270
    117  CG         3.7100  -10.0380   17.4420 C.3    57  LEU57       0.0019
    118  CD1        3.6690   -8.5490   17.7530 C.3    57  LEU57       0.0001
    119  CD2        3.8220  -10.8450   18.7310 C.3    57  LEU57       0.0001
    120  N          0.6310  -12.3340   11.6820 N.3    68  SER68      -0.1202
    121  CA         1.2690  -11.3750   10.7900 C.3    68  SER68       0.2020
    122  C          2.6850  -11.0690   11.2690 C.2    68  SER68       0.2619
    123  O          2.9720  -11.1010   12.4710 O.2    68  SER68      -0.2717
    124  CB         0.4490  -10.0810   10.6950 C.3    68  SER68       0.2103
    125  OG         1.1010   -9.1160    9.8860 O.3    68  SER68      -0.2182
    126  N          3.5620  -10.7590   10.3070 N.am   69  MET69      -0.1965
    127  CA         4.9220  -10.3010   10.5670 C.3    69  MET69       0.1736
    128  C          5.1300   -8.8290   10.2240 C.2    69  MET69       0.2616
    129  O          6.2560   -8.3320   10.3400 O.2    69  MET69      -0.2715
    130  CB         5.9310  -11.1560    9.7820 C.3    69  MET69       0.0427
    131  CG         5.8750  -12.6540   10.0920 C.3    69  MET69       0.0599
    132  SD         7.0240  -13.6650    9.1320 S.3    69  MET69      -0.1393
    133  CE         7.0170  -12.7800    7.5820 C.3    69  MET69       0.0692
    134  N          4.0850   -8.1210    9.7960 N.am   70  ASP70      -0.1957
    135  CA         4.2120   -6.7220    9.3890 C.3    70  ASP70       0.1840
    136  C          3.0220   -5.9040    9.8810 C.2    70  ASP70       0.2622
    137  O          2.5170   -5.0230    9.1770 O.2    70  ASP70      -0.2715
    138  CB         4.3740   -6.6000    7.8740 C.3    70  ASP70       0.1450
    139  CG         3.3490   -7.4080    7.1090 C.2    70  ASP70       0.3671
    140  OD1        2.3570   -7.8570    7.7220 O.co2  70  ASP70      -0.2456
    141  OD2        3.5400   -7.6060    5.8910 O.co2  70  ASP70      -0.2456
    142  N          2.5620   -6.1940   11.1010 N.am   71  ASP71      -0.1971
    143  CA         1.5070   -5.4260   11.7690 C.3    71  ASP71       0.1709
    144  C          0.2000   -5.4220   10.9760 C.2    71  ASP71       0.2293
    145  O         -0.5170   -4.4210   10.9310 O.2    71  ASP71      -0.2864
    146  CB         1.9670   -3.9970   12.0670 C.3    71  ASP71       0.1436
    147  CG         2.6790   -3.8850   13.4000 C.2    71  ASP71       0.3671
    148  OD1        2.3510   -4.6680   14.3170 O.co2  71  ASP71      -0.2456
    149  OD2        3.5660   -3.0150   13.5340 O.co2  71  ASP71      -0.2456
    150  N         -0.2660   -6.0060    7.6090 N.3    73  GLN73      -0.1245
    151  CA        -0.2330   -5.7610    6.1710 C.3    73  GLN73       0.1566
    152  C         -0.4070   -7.0570    5.3870 C.2    73  GLN73       0.2260
    153  O         -1.0800   -7.0760    4.3500 O.2    73  GLN73      -0.2867
    154  CB         1.0730   -5.0660    5.7870 C.3    73  GLN73       0.0367
    155  CG         1.0350   -3.5520    5.9360 C.3    73  GLN73       0.0905
    156  CD         2.3590   -2.8990    5.5900 C.2    73  GLN73       0.2608
    157  OE1        3.3180   -2.9680    6.3600 O.2    73  GLN73      -0.2717
    158  NE2        2.4190   -2.2610    4.4270 N.am   73  GLN73      -0.0878
    159  N          8.2780   -9.6260    3.0880 N.3    92  ILE92      -0.1245
    160  CA         9.2230   -8.7850    3.8200 C.3    92  ILE92       0.1561
    161  C         10.5320   -9.5010    4.1070 C.2    92  ILE92       0.2260
    162  O         11.4430   -8.8990    4.6900 O.2    92  ILE92      -0.2867
    163  CB         8.6360   -8.2990    5.1580 C.3    92  ILE92       0.0252
    164  CG1        8.4550   -9.4740    6.1180 C.3    92  ILE92       0.0019
    165  CG2        7.3100   -7.5860    4.9320 C.3    92  ILE92       0.0019
    166  CD1        8.1210   -9.0620    7.5320 C.3    92  ILE92       0.0001
@<TRIPOS>BOND
     1   159   160    1
     2   160   161    1
     3   160   163    1
     4   161   162    2
     5   153   152    2
     6   158   156   am
     7   165   163    1
     8   163   164    1
     9   152   151    1
    10   156   155    1
    11   156   157    2
    12   154   155    1
    13   154   151    1
    14   141   139   ar
    15   164   166    1
    16   151   150    1
    17    81    80    1
    18   139   140   ar
    19   139   138    1
    20   103   102    1
    21   133   132    1
    22    80    79    1
    23   138   135    1
    24    64    65    1
    25   102   101   ar
    26   102   100   ar
    27    79    78    1
    28   101    99   ar
    29   100    98   ar
    30    67    66    2
    31   132   131    1
    32   137   136    2
    33    78    77    1
    34   135   134    1
    35   135   136    1
    36    99    97   ar
    37    68    65    1
    38    68    69    1
    39    65    66    1
    40    98    97   ar
    41   130   131    1
    42   130   127    1
    43   134   128   am
    44   136   142   am
    45   125   124    1
    46    97    96    1
    47    77    74    1
    48   128   129    2
    49   128   127    1
    50   126   127    1
    51   126   122   am
    52    70    69    1
    53    70    71    1
    54   124   121    1
    55   121   122    1
    56   121   120    1
    57    96    93    1
    58   145   144    2
    59   144   143    1
    60   142   143    1
    61    73    74    1
    62   122   123    2
    63    74    75    1
    64    71    72    1
    65    76    75    2
    66   143   146    1
    67    75    82   am
    68   146   147    1
    69    93    92    1
    70    93    94    1
    71    82    83    1
    72    92    84   am
    73    84    85    2
    74    84    83    1
    75    94    95    2
    76    94   104   am
    77   107   106    2
    78    83    86    1
    79   147   149   ar
    80   147   148   ar
    81   104   105    1
    82   106   105    1
    83    59    60    2
    84    59    58    1
    85   115   114    2
    86    86    87    1
    87   105   108    1
    88   112   113    1
    89    87    89   ar
    90    87    88   ar
    91    58    57    1
    92    58    61    1
    93    89    91   ar
    94    88    90   ar
    95    12    13    1
    96    62    61    1
    97   108   109    1
    98    91    90   ar
    99   114   113    1
   100   113   116    1
   101    61    63    1
   102   116   117    1
   103    13    16    1
   104    13    14    1
   105   109   111    1
   106   109   110    1
   107    15    14    2
   108    17    16    1
   109    17    18    1
   110   117   118    1
   111   117   119    1
   112    19    18    1
   113    19    20    2
   114    22    20    1
   115    10     9    1
   116    20    21    1
   117    11     9    1
   118     9     8    2
   119     4     3    2
   120     6     7    1
   121     6     5    1
   122     8     7    1
   123     3     2    1
   124     2     5    1
   125     2     1    1
   126    23    24    1
   127    27    24    1
   128    27    28    1
   129    24    25    1
   130    56    54   am
   131    48    46    1
   132    54    55    2
   133    54    53    1
   134    53    50    1
   135    52    51    2
   136    25    26    2
   137    25    29   am
   138    46    47    1
   139    46    45    2
   140    29    30    1
   141    51    50    1
   142    50    49    1
   143    49    40   am
   144    44    45    1
   145    44    43    1
   146    42    43    1
   147    42    39    1
   148    38    39    1
   149    38    31   am
   150    30    33    1
   151    30    31    1
   152    40    39    1
   153    40    41    2
   154    34    33    1
   155    34    35    1
   156    31    32    2
   157    35    36    2
   158    35    37   am
