@<TRIPOS>MOLECULE
tmp/5u09A00.pdb
 89 84 0 0 0
SMALL
GASTEIGER

@<TRIPOS>ATOM
      1  N         26.4030   -5.5930   21.3640 N.3    52  PRO52      -0.2116
      2  CA        25.6860   -6.3460   20.3460 C.3    52  PRO52       0.1372
      3  C         24.4760   -5.6110   19.7950 C.2    52  PRO52       0.2244
      4  O         24.0990   -5.7930   18.6320 O.2    52  PRO52      -0.2868
      5  CB        25.2490   -7.6020   21.0950 C.3    52  PRO52       0.0268
      6  CG        26.2980   -7.7900   22.1410 C.3    52  PRO52       0.0207
      7  CD        26.7200   -6.4120   22.5480 C.3    52  PRO52       0.0892
      8  N         19.1210   -9.8770   11.8990 N.3   110  LEU110     -0.1231
      9  CA        19.9670  -10.2100   13.0520 C.3   110  LEU110      0.1693
     10  C         19.7400   -9.2880   14.2400 C.2   110  LEU110      0.2591
     11  O         19.7840   -9.7130   15.3800 O.2   110  LEU110     -0.2718
     12  CB        21.4450  -10.1590   12.6660 C.3   110  LEU110      0.0284
     13  CG        22.0130  -11.2320   11.7050 C.3   110  LEU110      0.0019
     14  CD1       23.5260  -11.0340   11.5810 C.3   110  LEU110      0.0001
     15  CD2       21.6910  -12.6840   12.1060 C.3   110  LEU110      0.0001
     16  N         19.4790   -8.0180   13.9580 N.am  111  ALA111     -0.1980
     17  CA        18.9870   -7.0690   14.9720 C.3   111  ALA111      0.1597
     18  C         17.6280   -7.4260   15.5800 C.2   111  ALA111      0.2287
     19  O         17.4020   -7.1400   16.7570 O.2   111  ALA111     -0.2864
     20  CB        18.9250   -5.6730   14.3820 C.3   111  ALA111      0.0319
     21  N         16.1990  -10.4360   15.8970 N.3   113  ILE113     -0.1231
     22  CA        16.4840  -11.4930   16.8750 C.3   113  ILE113      0.1692
     23  C         17.0990  -10.8970   18.1370 C.2   113  ILE113      0.2592
     24  O         16.8120  -11.3500   19.2350 O.2   113  ILE113     -0.2718
     25  CB        17.4680  -12.5580   16.3200 C.3   113  ILE113      0.0266
     26  CG1       16.9290  -13.2420   15.0610 C.3   113  ILE113      0.0019
     27  CG2       17.7640  -13.6140   17.3700 C.3   113  ILE113      0.0020
     28  CD1       18.0180  -13.9170   14.2430 C.3   113  ILE113      0.0001
     29  N         18.0070   -9.9440   17.9770 N.am  114  ASP114     -0.1974
     30  CA        18.6520   -9.3340   19.1280 C.3   114  ASP114      0.1709
     31  C         17.6220   -8.6430   20.0340 C.2   114  ASP114      0.2293
     32  O         17.6650   -8.7810   21.2600 O.2   114  ASP114     -0.2864
     33  CB        19.7210   -8.3400   18.6830 C.3   114  ASP114      0.1436
     34  CG        20.2800   -7.5350   19.8410 C.2   114  ASP114      0.3671
     35  OD1       21.2020   -8.0220   20.5110 O.co2 114  ASP114     -0.2456
     36  OD2       19.7820   -6.4280   20.1160 O.co2 114  ASP114     -0.2456
     37  N         15.2070  -11.2760   21.8570 N.3   117  ILE117     -0.1245
     38  CA        15.8190  -12.0340   22.9320 C.3   117  ILE117      0.1561
     39  C         16.0330  -11.0910   24.0960 C.2   117  ILE117      0.2260
     40  O         15.9550  -11.5060   25.2430 O.2   117  ILE117     -0.2867
     41  CB        17.1840  -12.6460   22.5350 C.3   117  ILE117      0.0252
     42  CG1       17.0270  -13.7480   21.4920 C.3   117  ILE117      0.0019
     43  CG2       17.8900  -13.2500   23.7420 C.3   117  ILE117      0.0019
     44  CD1       18.3540  -14.1150   20.8480 C.3   117  ILE117      0.0001
     45  N         23.2040  -14.9150   26.1080 N.3   128  ILE128     -0.1231
     46  CA        22.7260  -15.5130   24.8440 C.3   128  ILE128      0.1692
     47  C         23.2810  -14.7580   23.6390 C.2   128  ILE128      0.2591
     48  O         23.8230  -15.3700   22.7140 O.2   128  ILE128     -0.2718
     49  CB        21.1780  -15.5790   24.7500 C.3   128  ILE128      0.0266
     50  CG1       20.6280  -16.6810   25.6520 C.3   128  ILE128      0.0019
     51  CG2       20.7290  -15.9070   23.3330 C.3   128  ILE128      0.0020
     52  CD1       19.1190  -16.7240   25.6910 C.3   128  ILE128      0.0001
     53  N         23.1480  -13.4340   23.6430 N.am  129  VAL129     -0.1980
     54  CA        23.7870  -12.6210   22.6110 C.3   129  VAL129      0.1595
     55  C         25.0350  -11.9340   23.1430 C.2   129  VAL129      0.2287
     56  O         24.9750  -10.8620   23.7440 O.2   129  VAL129     -0.2864
     57  CB        22.8360  -11.5950   22.0130 C.3   129  VAL129      0.0276
     58  CG1       23.4670  -10.9990   20.7680 C.3   129  VAL129      0.0022
     59  CG2       21.4980  -12.2530   21.6930 C.3   129  VAL129      0.0022
     60  N         29.7210  -13.9840   19.6260 N.3   133  LYS133     -0.1231
     61  CA        28.6470  -14.5780   18.8610 C.3   133  LYS133      0.1693
     62  C         28.0940  -13.5450   17.9210 C.2   133  LYS133      0.2591
     63  O         27.8700  -13.8290   16.7600 O.2   133  LYS133     -0.2718
     64  CB        27.5330  -15.0880   19.7660 C.3   133  LYS133      0.0285
     65  CG        26.4090  -15.7800   19.0010 C.3   133  LYS133      0.0035
     66  CD        26.1420  -17.1720   19.5420 C.3   133  LYS133      0.0206
     67  CE        25.2970  -17.0950   20.7910 C.3   133  LYS133      0.1093
     68  NZ        25.1190  -18.4370   21.3810 N.3   133  LYS133     -0.1314
     69  N         27.8750  -12.3430   18.4350 N.am  134  ALA134     -0.1980
     70  CA        27.3300  -11.2450   17.6360 C.3   134  ALA134      0.1597
     71  C         28.1550  -11.0320   16.3700 C.2   134  ALA134      0.2287
     72  O         27.6070  -10.8430   15.2880 O.2   134  ALA134     -0.2864
     73  CB        27.2730   -9.9620   18.4590 C.3   134  ALA134      0.0319
     74  N         27.6860  -13.9830   13.8810 N.3   137  ALA137     -0.1231
     75  CA        26.4150  -13.7780   13.1910 C.3   137  ALA137      0.1694
     76  C         26.6120  -12.8140   12.0230 C.2   137  ALA137      0.2592
     77  O         26.2190  -13.1140   10.8880 O.2   137  ALA137     -0.2718
     78  CB        25.3470  -13.2530   14.1440 C.3   137  ALA137      0.0304
     79  N         27.2560  -11.6810   12.2830 N.am  138  PHE138     -0.1976
     80  CA        27.3560  -10.6520   11.2570 C.3   138  PHE138      0.1639
     81  C         28.2600  -11.0820   10.1110 C.2   138  PHE138      0.2290
     82  O         27.9010  -10.9140    8.9550 O.2   138  PHE138     -0.2864
     83  CB        27.7440   -9.2820   11.8430 C.3   138  PHE138      0.0560
     84  CG        26.5480   -8.4820   12.3200 C.ar  138  PHE138     -0.0200
     85  CD1       25.9880   -8.7290   13.5620 C.ar  138  PHE138     -0.0042
     86  CD2       25.8460   -7.6820   11.4380 C.ar  138  PHE138     -0.0042
     87  CE1       24.8160   -8.1150   13.9460 C.ar  138  PHE138     -0.0003
     88  CE2       24.6640   -7.0700   11.8170 C.ar  138  PHE138     -0.0003
     89  CZ        24.1510   -7.2820   13.0740 C.ar  138  PHE138     -0.0000
@<TRIPOS>BOND
     1    82    81    2
     2    81    80    1
     3    77    76    2
     4    80    83    1
     5    80    79    1
     6    86    88   ar
     7    86    84   ar
     8    14    13    1
     9    13    15    1
    10    13    12    1
    11    88    89   ar
    12    83    84    1
    13     8     9    1
    14    76    79   am
    15    76    75    1
    16    84    85   ar
    17    12     9    1
    18     9    10    1
    19    89    87   ar
    20    75    74    1
    21    75    78    1
    22    85    87   ar
    23    16    10   am
    24    16    17    1
    25    10    11    2
    26    28    26    1
    27    20    17    1
    28    17    18    1
    29    26    25    1
    30    72    71    2
    31    18    19    2
    32    21    22    1
    33    25    22    1
    34    25    27    1
    35    71    70    1
    36    63    62    2
    37    22    23    1
    38    70    69    1
    39    70    73    1
    40    62    69   am
    41    62    61    1
    42    29    23   am
    43    29    30    1
    44    23    24    2
    45     4     3    2
    46    33    30    1
    47    33    34    1
    48    61    60    1
    49    61    64    1
    50    65    66    1
    51    65    64    1
    52    30    31    1
    53    66    67    1
    54     3     2    1
    55    34    36   ar
    56    34    35   ar
    57    31    32    2
    58     2     5    1
    59     2     1    1
    60    58    57    1
    61    67    68    1
    62    44    42    1
    63     5     6    1
    64     1     7    1
    65    42    41    1
    66    59    57    1
    67    37    38    1
    68    57    54    1
    69     6     7    1
    70    41    38    1
    71    41    43    1
    72    54    55    1
    73    54    53    1
    74    48    47    2
    75    38    39    1
    76    55    56    2
    77    51    49    1
    78    47    53   am
    79    47    46    1
    80    39    40    2
    81    49    46    1
    82    49    50    1
    83    46    45    1
    84    50    52    1
