@<TRIPOS>MOLECULE
tmp/5u0dA00.pdb
 140 136 0 0 0
SMALL
GASTEIGER

@<TRIPOS>ATOM
      1  N         -3.3240   -2.3430    7.2400 N.3    63  ALA63      -0.1245
      2  CA        -4.7020   -2.8090    7.2900 C.3    63  ALA63       0.1562
      3  C         -5.4190   -2.0820    6.1650 C.2    63  ALA63       0.2260
      4  O         -4.7640   -1.4500    5.3280 O.2    63  ALA63      -0.2867
      5  CB        -5.3190   -2.5110    8.6440 C.3    63  ALA63       0.0290
      6  N        -12.7610    6.6850   11.1750 N.3    90  GLN90      -0.1245
      7  CA       -12.4700    5.5270   10.3440 C.3    90  GLN90       0.1566
      8  C        -12.6930    4.2550   11.1180 C.2    90  GLN90       0.2260
      9  O        -12.7830    4.2750   12.3380 O.2    90  GLN90      -0.2867
     10  CB       -11.0230    5.5370    9.8210 C.3    90  GLN90       0.0367
     11  CG        -9.9440    5.6720   10.9080 C.3    90  GLN90       0.0905
     12  CD        -9.1200    4.4270   11.1430 C.2    90  GLN90       0.2608
     13  OE1       -9.5780    3.2970   10.9530 O.2    90  GLN90      -0.2717
     14  NE2       -7.8800    4.6360   11.5540 N.am   90  GLN90      -0.0878
     15  N        -11.2440   -0.0340   10.8540 N.3    92  HIS92      -0.1241
     16  CA       -10.3550   -1.0270   10.2370 C.3    92  HIS92       0.1621
     17  C        -10.3960   -2.2590   11.0810 C.2    92  HIS92       0.2264
     18  O        -11.0480   -2.2580   12.1410 O.2    92  HIS92      -0.2867
     19  CB        -8.9280   -0.5230   10.1280 C.3    92  HIS92       0.0745
     20  CG        -8.3270   -0.1970   11.4580 C.ar   92  HIS92       0.0817
     21  ND1       -8.4120    1.0530   12.0070 N.ar   92  HIS92      -0.2268
     22  CD2       -7.7400   -0.9760   12.3970 C.ar   92  HIS92       0.1154
     23  CE1       -7.8770    1.0500   13.2110 C.ar   92  HIS92       0.1986
     24  NE2       -7.5010   -0.1750   13.4860 N.ar   92  HIS92      -0.2212
     25  N         -8.0390   -5.9150   12.4280 N.3    94  HIS94      -0.1241
     26  CA        -6.8340   -6.7200   12.5880 C.3    94  HIS94       0.1621
     27  C         -7.2790   -8.1670   12.5000 C.2    94  HIS94       0.2264
     28  O         -8.3190   -8.5250   13.0210 O.2    94  HIS94      -0.2867
     29  CB        -6.1270   -6.4500   13.8990 C.3    94  HIS94       0.0745
     30  CG        -5.8630   -5.0070   14.1650 C.ar   94  HIS94       0.0817
     31  ND1       -4.6300   -4.4270   13.9860 N.ar   94  HIS94      -0.2268
     32  CD2       -6.6900   -4.0240   14.5760 C.ar   94  HIS94       0.1154
     33  CE1       -4.7060   -3.1420   14.3090 C.ar   94  HIS94       0.1986
     34  NE2       -5.9560   -2.8790   14.6480 N.ar   94  HIS94      -0.2212
     35  N        -11.9630   -2.1580   14.8470 N.3   117  HIS117     -0.1241
     36  CA       -11.7450   -0.9240   15.5560 C.3   117  HIS117      0.1621
     37  C        -12.4630    0.2040   14.8570 C.2   117  HIS117      0.2264
     38  O        -12.0970    0.5650   13.7340 O.2   117  HIS117     -0.2867
     39  CB       -10.2490   -0.6170   15.6180 C.3   117  HIS117      0.0745
     40  CG        -9.5110   -1.5670   16.4920 C.ar  117  HIS117      0.0817
     41  ND1       -8.1400   -1.7220   16.4720 N.ar  117  HIS117     -0.2268
     42  CD2       -9.9780   -2.4330   17.4200 C.ar  117  HIS117      0.1154
     43  CE1       -7.8010   -2.6480   17.3400 C.ar  117  HIS117      0.1986
     44  NE2       -8.8910   -3.0650   17.9580 N.ar  117  HIS117     -0.2212
     45  N        -12.9080    3.9690   15.1580 N.3   119  VAL119     -0.1245
     46  CA       -12.0380    4.9960   15.7400 C.3   119  VAL119      0.1561
     47  C        -12.7400    6.3320   15.7910 C.2   119  VAL119      0.2260
     48  O        -13.2370    6.8120   14.7670 O.2   119  VAL119     -0.2867
     49  CB       -10.7420    5.1240   14.9090 C.3   119  VAL119      0.0252
     50  CG1       -9.7870    6.1480   15.5290 C.3   119  VAL119      0.0019
     51  CG2      -10.0540    3.7580   14.7670 C.3   119  VAL119      0.0019
     52  N         -8.1930   15.4060   14.7100 N.3   128  PHE128     -0.1241
     53  CA        -7.6400   14.1060   15.1080 C.3   128  PHE128      0.1605
     54  C         -6.1850   14.2160   15.5620 C.2   128  PHE128      0.2264
     55  O         -5.7880   13.5890   16.5450 O.2   128  PHE128     -0.2867
     56  CB        -7.7650   13.1290   13.9440 C.3   128  PHE128      0.0534
     57  CG        -7.2080   11.7690   14.2220 C.ar  128  PHE128     -0.0203
     58  CD1       -7.9870   10.7940   14.8030 C.ar  128  PHE128     -0.0042
     59  CD2       -5.8880   11.4770   13.9100 C.ar  128  PHE128     -0.0042
     60  CE1       -7.4670    9.5450   15.0640 C.ar  128  PHE128     -0.0003
     61  CE2       -5.3690   10.2270   14.1610 C.ar  128  PHE128     -0.0003
     62  CZ        -6.1570    9.2610   14.7400 C.ar  128  PHE128     -0.0000
     63  N         -4.8700   12.9620   19.3770 N.3   132  VAL132     -0.1245
     64  CA        -3.9470   11.8430   19.7130 C.3   132  VAL132      0.1561
     65  C         -2.8180   12.2310   20.6710 C.2   132  VAL132      0.2260
     66  O         -2.1640   11.3630   21.2180 O.2   132  VAL132     -0.2867
     67  CB        -3.3380   11.1150   18.4840 C.3   132  VAL132      0.0252
     68  CG1       -4.4410   10.4760   17.6530 C.3   132  VAL132      0.0019
     69  CG2       -2.4600   12.0400   17.6410 C.3   132  VAL132      0.0019
     70  N         -8.9740    9.8370   22.0970 N.3   138  LEU138     -0.1245
     71  CA        -9.6720    8.8900   21.2330 C.3   138  LEU138      0.1561
     72  C        -10.5430    7.9540   22.0290 C.2   138  LEU138      0.2260
     73  O        -10.2670    7.6660   23.1820 O.2   138  LEU138     -0.2867
     74  CB        -8.7090    8.0430   20.4280 C.3   138  LEU138      0.0270
     75  CG        -7.7550    8.7050   19.4280 C.3   138  LEU138      0.0019
     76  CD1       -7.0770    7.6660   18.5780 C.3   138  LEU138      0.0001
     77  CD2       -8.3100    9.8000   18.5590 C.3   138  LEU138      0.0001
     78  N        -11.9310    4.1350   21.0620 N.3   140  VAL140     -0.1245
     79  CA       -11.9470    3.0790   20.0650 C.3   140  VAL140      0.1561
     80  C        -12.9420    2.0460   20.5510 C.2   140  VAL140      0.2260
     81  O        -12.8240    1.5230   21.6580 O.2   140  VAL140     -0.2867
     82  CB       -10.5700    2.4620   19.7440 C.3   140  VAL140      0.0252
     83  CG1      -10.7280    1.3770   18.6730 C.3   140  VAL140      0.0019
     84  CG2       -9.6120    3.5490   19.2810 C.3   140  VAL140      0.0019
     85  N         -3.8500    2.5580   24.6340 N.3   194  SER194     -0.1202
     86  CA        -3.0600    3.1540   23.5550 C.3   194  SER194      0.2020
     87  C         -3.5200    2.7120   22.1790 C.2   194  SER194      0.2619
     88  O         -4.3010    1.7810   22.0380 O.2   194  SER194     -0.2717
     89  CB        -1.5610    2.8070   23.7060 C.3   194  SER194      0.2103
     90  OG        -1.3260    1.4420   23.3310 O.3   194  SER194     -0.2182
     91  N         -2.9500    3.3580   21.1680 N.am  195  LEU195     -0.1965
     92  CA        -2.9420    2.8470   19.8180 C.3   195  LEU195      0.1728
     93  C         -2.1610    1.5280   19.8450 C.2   195  LEU195      0.2617
     94  O         -1.1620    1.3780   20.5670 O.2   195  LEU195     -0.2715
     95  CB        -2.2400    3.8030   18.8650 C.3   195  LEU195      0.0311
     96  CG        -2.7230    5.2470   18.8180 C.3   195  LEU195      0.0022
     97  CD1       -1.8560    6.0150   17.8210 C.3   195  LEU195      0.0001
     98  CD2       -4.1860    5.3590   18.4270 C.3   195  LEU195      0.0001
     99  N         -2.6110    0.5910   19.0280 N.am  196  THR196     -0.1937
    100  CA        -1.9670   -0.7410   18.9660 C.3   196  THR196      0.2028
    101  C         -0.9250   -0.9100   17.8740 C.2   196  THR196      0.2643
    102  O         -0.3670   -2.0020   17.7270 O.2   196  THR196     -0.2714
    103  CB        -3.0030   -1.8240   18.7870 C.3   196  THR196      0.1808
    104  OG1       -3.6490   -1.6350   17.5210 O.3   196  THR196     -0.2208
    105  CG2       -4.0060   -1.8340   19.9560 C.3   196  THR196      0.0379
    106  N         -0.6550    0.1700   17.1530 N.am  197  THR197     -0.1937
    107  CA         0.4610    0.2250   16.1900 C.3   197  THR197      0.2013
    108  C          1.2340    1.5050   16.4830 C.2   197  THR197      0.2484
    109  O          0.6940    2.4580   17.0860 O.2   197  THR197     -0.2729
    110  CB        -0.0070    0.2770   14.7140 C.3   197  THR197      0.1807
    111  OG1       -0.5100    1.5810   14.3760 O.3   197  THR197     -0.2208
    112  CG2       -1.0630   -0.7910   14.3990 C.3   197  THR197      0.0379
    113  N          2.4620    1.5830   15.9780 N.am  198  PRO198     -0.2715
    114  CA         3.1660    2.8680   16.0230 C.3   198  PRO198      0.1521
    115  C          2.2430    3.9680   15.4830 C.2   198  PRO198      0.2440
    116  O          1.5190    3.7190   14.4800 O.2   198  PRO198     -0.2731
    117  CB         4.3720    2.6000   15.1200 C.3   198  PRO198      0.0310
    118  CG         4.6640    1.1640   15.4190 C.3   198  PRO198      0.0237
    119  CD         3.3080    0.5270   15.4110 C.3   198  PRO198      0.0939
    120  N          2.2270    5.1440   16.1130 N.am  199  PRO199     -0.2727
    121  CA         3.1750    5.6010   17.1580 C.3   199  PRO199      0.1402
    122  C          2.8290    5.2070   18.6060 C.2   199  PRO199      0.2269
    123  O          3.4670    5.6920   19.5460 O.2   199  PRO199     -0.2865
    124  CB         3.1340    7.1210   17.0010 C.3   199  PRO199      0.0296
    125  CG         1.7690    7.3970   16.4720 C.3   199  PRO199      0.0237
    126  CD         1.3960    6.2360   15.5910 C.3   199  PRO199      0.0939
    127  N        -10.5760    2.6990   25.6560 N.3   206  TRP206     -0.1241
    128  CA       -11.0290    1.4790   24.9920 C.3   206  TRP206      0.1605
    129  C        -12.4090    1.1030   25.4600 C.2   206  TRP206      0.2264
    130  O        -12.6720    1.1030   26.6620 O.2   206  TRP206     -0.2867
    131  CB       -10.0450    0.3320   25.2890 C.3   206  TRP206      0.0550
    132  CG        -8.8880    0.3860   24.3270 C.ar  206  TRP206      0.0003
    133  CD1       -7.6560    0.9270   24.5420 C.ar  206  TRP206      0.0946
    134  CD2       -8.9040   -0.0470   22.9790 C.ar  206  TRP206      0.0152
    135  NE1       -6.9090    0.8880   23.4070 N.ar  206  TRP206     -0.2442
    136  CE2       -7.6320    0.2330   22.4420 C.ar  206  TRP206      0.0810
    137  CE3       -9.8670   -0.6840   22.1700 C.ar  206  TRP206      0.0012
    138  CZ2       -7.3140   -0.0670   21.1450 C.ar  206  TRP206      0.0191
    139  CZ3       -9.5560   -0.9710   20.8930 C.ar  206  TRP206      0.0001
    140  CH2       -8.2850   -0.6930   20.3750 C.ar  206  TRP206      0.0015
@<TRIPOS>BOND
     1     4     3    2
     2     3     2    1
     3     1     2    1
     4     2     5    1
     5    10     7    1
     6    10    11    1
     7    19    16    1
     8    19    20    1
     9    16    15    1
    10    16    17    1
    11     7     8    1
    12     7     6    1
    13    11    12    1
    14    13    12    2
    15    17    18    2
    16     8     9    2
    17    12    14   am
    18    20    21   ar
    19    20    22   ar
    20    21    23   ar
    21    22    24   ar
    22    25    26    1
    23    27    26    1
    24    27    28    2
    25    26    29    1
    26    23    24   ar
    27    38    37    2
    28    29    30    1
    29    59    61   ar
    30    59    57   ar
    31    56    57    1
    32    56    53    1
    33    31    30   ar
    34    31    33   ar
    35    61    62   ar
    36    30    32   ar
    37    57    58   ar
    38    33    34   ar
    39   111   110    1
    40   112   110    1
    41   116   115    2
    42    32    34   ar
    43    52    53    1
    44   110   107    1
    45    62    60   ar
    46    48    47    2
    47    51    49    1
    48    58    60   ar
    49    35    36    1
    50    37    36    1
    51    49    50    1
    52    49    46    1
    53    53    54    1
    54   117   118    1
    55   117   114    1
    56    45    46    1
    57   119   118    1
    58   119   113    1
    59   115   114    1
    60   115   120   am
    61    36    39    1
    62    54    55    2
    63   126   120    1
    64   126   125    1
    65    39    40    1
    66    46    47    1
    67   113   114    1
    68   113   108   am
    69   120   121    1
    70   107   108    1
    71   107   106    1
    72    41    40   ar
    73    41    43   ar
    74   125   124    1
    75   108   109    2
    76    40    42   ar
    77   124   121    1
    78   106   101   am
    79   121   122    1
    80    43    44   ar
    81    42    44   ar
    82   104   103    1
    83    69    67    1
    84    68    67    1
    85   102   101    2
    86    97    96    1
    87   101   100    1
    88    98    96    1
    89    67    64    1
    90    77    75    1
    91    76    75    1
    92   122   123    2
    93    83    82    1
    94   103   100    1
    95   103   105    1
    96    96    95    1
    97    95    92    1
    98   100    99    1
    99    99    93   am
   100    84    82    1
   101    63    64    1
   102    75    74    1
   103    64    65    1
   104    82    79    1
   105    92    93    1
   106    92    91    1
   107    93    94    2
   108    79    80    1
   109    79    78    1
   110   140   139   ar
   111   140   138   ar
   112    74    71    1
   113    80    81    2
   114    65    66    2
   115   139   137   ar
   116   138   136   ar
   117    91    87   am
   118    71    72    1
   119    71    70    1
   120    72    73    2
   121    88    87    2
   122   137   134   ar
   123    87    86    1
   124   136   134   ar
   125   136   135   ar
   126   134   132   ar
   127    90    89    1
   128   135   133   ar
   129    86    89    1
   130    86    85    1
   131   132   133   ar
   132   132   131    1
   133   128   131    1
   134   128   129    1
   135   128   127    1
   136   129   130    2
