@<TRIPOS>MOLECULE
tmp/5u0eA00.pdb
 140 136 0 0 0
SMALL
GASTEIGER

@<TRIPOS>ATOM
      1  N         -3.2960   -2.3960    7.2840 N.3    63  ALA63      -0.1245
      2  CA        -4.6530   -2.8740    7.3150 C.3    63  ALA63       0.1562
      3  C         -5.3670   -2.1650    6.1660 C.2    63  ALA63       0.2260
      4  O         -4.7160   -1.5040    5.3330 O.2    63  ALA63      -0.2867
      5  CB        -5.3040   -2.6140    8.6460 C.3    63  ALA63       0.0290
      6  N         -8.4080    0.8160    5.8040 N.3    65  ASN65      -0.1240
      7  CA        -9.2150    1.7510    6.5440 C.3    65  ASN65       0.1653
      8  C        -10.4160    2.1800    5.7090 C.2    65  ASN65       0.2266
      9  O        -10.2500    2.6260    4.5710 O.2    65  ASN65      -0.2867
     10  CB        -8.4390    3.0300    6.8660 C.3    65  ASN65       0.1155
     11  CG        -7.3130    2.8590    7.8470 C.2    65  ASN65       0.2627
     12  OD1       -7.2100    1.8790    8.5740 O.2    65  ASN65      -0.2716
     13  ND2       -6.4410    3.8810    7.8700 N.am   65  ASN65      -0.0877
     14  N        -12.6580    6.6470   11.2130 N.3    90  GLN90      -0.1245
     15  CA       -12.3530    5.5260   10.3680 C.3    90  GLN90       0.1566
     16  C        -12.6110    4.2470   11.1340 C.2    90  GLN90       0.2260
     17  O        -12.6490    4.2620   12.3690 O.2    90  GLN90      -0.2867
     18  CB       -10.9100    5.5470    9.8770 C.3    90  GLN90       0.0367
     19  CG        -9.8560    5.5810   10.9690 C.3    90  GLN90       0.0905
     20  CD        -9.0650    4.3000   11.0720 C.2    90  GLN90       0.2608
     21  OE1       -9.6220    3.2170   11.1830 O.2    90  GLN90      -0.2717
     22  NE2       -7.7570    4.4180   11.0790 N.am   90  GLN90      -0.0878
     23  N        -11.1830   -0.0670   10.8630 N.3    92  HIS92      -0.1241
     24  CA       -10.3250   -1.0340   10.2310 C.3    92  HIS92       0.1621
     25  C        -10.3940   -2.2960   11.0710 C.2    92  HIS92       0.2264
     26  O        -11.0090   -2.3060   12.1370 O.2    92  HIS92      -0.2867
     27  CB        -8.8890   -0.5540   10.1670 C.3    92  HIS92       0.0745
     28  CG        -8.3310   -0.2990   11.5120 C.ar   92  HIS92       0.0817
     29  ND1       -8.4740    0.9130   12.1460 N.ar   92  HIS92      -0.2268
     30  CD2       -7.7310   -1.1260   12.3980 C.ar   92  HIS92       0.1154
     31  CE1       -7.9560    0.8390   13.3620 C.ar   92  HIS92       0.1986
     32  NE2       -7.5470   -0.4110   13.5490 N.ar   92  HIS92      -0.2212
     33  N         -8.0810   -6.0330   12.4140 N.3    94  HIS94      -0.1241
     34  CA        -6.8770   -6.8250   12.5910 C.3    94  HIS94       0.1621
     35  C         -7.3300   -8.2680   12.4800 C.2    94  HIS94       0.2264
     36  O         -8.3970   -8.6280   12.9770 O.2    94  HIS94      -0.2867
     37  CB        -6.2190   -6.5940   13.9340 C.3    94  HIS94       0.0745
     38  CG        -5.9370   -5.1530   14.2070 C.ar   94  HIS94       0.0817
     39  ND1       -4.7190   -4.5760   13.9440 N.ar   94  HIS94      -0.2268
     40  CD2       -6.7280   -4.1460   14.6470 C.ar   94  HIS94       0.1154
     41  CE1       -4.7590   -3.2880   14.2620 C.ar   94  HIS94       0.1986
     42  NE2       -5.9800   -2.9890   14.6680 N.ar   94  HIS94      -0.2212
     43  N        -11.9550   -2.2140   14.8370 N.3   117  HIS117     -0.1241
     44  CA       -11.7390   -0.9600   15.5720 C.3   117  HIS117      0.1621
     45  C        -12.4240    0.1950   14.8870 C.2   117  HIS117      0.2264
     46  O        -12.0360    0.5260   13.7660 O.2   117  HIS117     -0.2867
     47  CB       -10.2440   -0.6810   15.6880 C.3   117  HIS117      0.0745
     48  CG        -9.5430   -1.6520   16.5740 C.ar  117  HIS117      0.0817
     49  ND1       -8.1820   -1.8610   16.5510 N.ar  117  HIS117     -0.2268
     50  CD2      -10.0450   -2.4780   17.5230 C.ar  117  HIS117      0.1154
     51  CE1       -7.8730   -2.7850   17.4450 C.ar  117  HIS117      0.1986
     52  NE2       -8.9830   -3.1680   18.0650 N.ar  117  HIS117     -0.2212
     53  N        -12.6730    3.9770   15.2130 N.3   119  VAL119     -0.1245
     54  CA       -11.8410    4.9910   15.8400 C.3   119  VAL119      0.1561
     55  C        -12.5630    6.3360   15.8560 C.2   119  VAL119      0.2260
     56  O        -13.0330    6.7960   14.8090 O.2   119  VAL119     -0.2867
     57  CB       -10.5080    5.1500   15.0810 C.3   119  VAL119      0.0252
     58  CG1       -9.6020    6.1720   15.7520 C.3   119  VAL119      0.0019
     59  CG2       -9.7890    3.7900   14.9780 C.3   119  VAL119      0.0019
     60  N         -8.1080   15.5470   14.8180 N.3   128  PHE128     -0.1241
     61  CA        -7.5650   14.2570   15.2130 C.3   128  PHE128      0.1605
     62  C         -6.1140   14.3490   15.6690 C.2   128  PHE128      0.2264
     63  O         -5.7130   13.7140   16.6310 O.2   128  PHE128     -0.2867
     64  CB        -7.6840   13.2880   14.0410 C.3   128  PHE128      0.0534
     65  CG        -7.1900   11.9020   14.3510 C.ar  128  PHE128     -0.0203
     66  CD1       -8.0410   10.9750   14.9130 C.ar  128  PHE128     -0.0042
     67  CD2       -5.8850   11.5370   14.0890 C.ar  128  PHE128     -0.0042
     68  CE1       -7.6160    9.7110   15.2060 C.ar  128  PHE128     -0.0003
     69  CE2       -5.4520   10.2630   14.4070 C.ar  128  PHE128     -0.0003
     70  CZ        -6.3290    9.3630   14.9610 C.ar  128  PHE128     -0.0000
     71  N         -4.8300   13.0440   19.4560 N.3   132  VAL132     -0.1245
     72  CA        -3.9310   11.9350   19.8130 C.3   132  VAL132      0.1561
     73  C         -2.8510   12.3470   20.7980 C.2   132  VAL132      0.2260
     74  O         -2.1990   11.4550   21.3260 O.2   132  VAL132     -0.2867
     75  CB        -3.2680   11.2440   18.6020 C.3   132  VAL132      0.0252
     76  CG1       -4.3170   10.5930   17.7130 C.3   132  VAL132      0.0019
     77  CG2       -2.3490   12.1700   17.8000 C.3   132  VAL132      0.0019
     78  N        -11.9740    4.1950   21.1130 N.3   140  VAL140     -0.1245
     79  CA       -11.9960    3.1140   20.1350 C.3   140  VAL140      0.1561
     80  C        -12.9660    2.0330   20.5840 C.2   140  VAL140      0.2260
     81  O        -12.8630    1.5550   21.7040 O.2   140  VAL140     -0.2867
     82  CB       -10.6050    2.5550   19.8050 C.3   140  VAL140      0.0252
     83  CG1      -10.7290    1.4650   18.7240 C.3   140  VAL140      0.0019
     84  CG2       -9.6590    3.6550   19.3430 C.3   140  VAL140      0.0019
     85  N         -3.9620    2.6330   24.5870 N.3   194  SER194     -0.1202
     86  CA        -3.1390    3.2450   23.5430 C.3   194  SER194      0.2020
     87  C         -3.6040    2.8580   22.1640 C.2   194  SER194      0.2619
     88  O         -4.3580    1.9250   21.9950 O.2   194  SER194     -0.2717
     89  CB        -1.6520    2.8690   23.6980 C.3   194  SER194      0.2103
     90  OG        -1.4120    1.5400   23.2810 O.3   194  SER194     -0.2182
     91  N         -3.0370    3.5300   21.1810 N.am  195  LEU195     -0.1965
     92  CA        -3.0090    3.0250   19.8290 C.3   195  LEU195      0.1728
     93  C         -2.2670    1.6850   19.8180 C.2   195  LEU195      0.2617
     94  O         -1.3020    1.5100   20.5570 O.2   195  LEU195     -0.2715
     95  CB        -2.2650    3.9890   18.9070 C.3   195  LEU195      0.0311
     96  CG        -2.6810    5.4560   18.8890 C.3   195  LEU195      0.0022
     97  CD1       -1.8230    6.1640   17.8670 C.3   195  LEU195      0.0001
     98  CD2       -4.1600    5.6180   18.5720 C.3   195  LEU195      0.0001
     99  N         -2.6930    0.7660   18.9820 N.am  196  THR196     -0.1937
    100  CA        -2.0770   -0.5630   18.9270 C.3   196  THR196      0.2028
    101  C         -1.0440   -0.6950   17.8180 C.2   196  THR196      0.2643
    102  O         -0.4920   -1.7860   17.6340 O.2   196  THR196     -0.2714
    103  CB        -3.1220   -1.6680   18.7870 C.3   196  THR196      0.1808
    104  OG1       -3.7790   -1.5020   17.5290 O.3   196  THR196     -0.2208
    105  CG2       -4.1020   -1.6780   19.9530 C.3   196  THR196      0.0379
    106  N         -0.7610    0.3880   17.0920 N.am  197  THR197     -0.1937
    107  CA         0.3560    0.4350   16.1530 C.3   197  THR197      0.2013
    108  C          1.1610    1.6650   16.4960 C.2   197  THR197      0.2484
    109  O          0.6380    2.6030   17.1130 O.2   197  THR197     -0.2729
    110  CB        -0.0750    0.5350   14.6870 C.3   197  THR197      0.1807
    111  OG1       -0.7030    1.8050   14.4430 O.3   197  THR197     -0.2208
    112  CG2       -0.9970   -0.5750   14.2960 C.3   197  THR197      0.0379
    113  N          2.4110    1.7330   16.0160 N.am  198  PRO198     -0.2715
    114  CA         3.1080    3.0070   16.0380 C.3   198  PRO198      0.1521
    115  C          2.1890    4.1340   15.5190 C.2   198  PRO198      0.2440
    116  O          1.4670    3.8960   14.5410 O.2   198  PRO198     -0.2731
    117  CB         4.3100    2.7470   15.1340 C.3   198  PRO198      0.0310
    118  CG         4.5910    1.2890   15.3660 C.3   198  PRO198      0.0237
    119  CD         3.2300    0.6770   15.3970 C.3   198  PRO198      0.0939
    120  N          2.1970    5.3140   16.1460 N.am  199  PRO199     -0.2727
    121  CA         3.1090    5.7330   17.2070 C.3   199  PRO199      0.1402
    122  C          2.7690    5.3230   18.6470 C.2   199  PRO199      0.2269
    123  O          3.4430    5.7720   19.5750 O.2   199  PRO199     -0.2865
    124  CB         3.0850    7.2540   17.0520 C.3   199  PRO199      0.0296
    125  CG         1.6870    7.5540   16.5740 C.3   199  PRO199      0.0237
    126  CD         1.3510    6.4170   15.6520 C.3   199  PRO199      0.0939
    127  N        -10.6010    2.7640   25.6620 N.3   206  TRP206     -0.1241
    128  CA       -11.0470    1.5450   24.9950 C.3   206  TRP206      0.1605
    129  C        -12.4180    1.1320   25.4770 C.2   206  TRP206      0.2264
    130  O        -12.6860    1.1100   26.6710 O.2   206  TRP206     -0.2867
    131  CB       -10.0330    0.3860   25.2410 C.3   206  TRP206      0.0550
    132  CG        -8.8970    0.4550   24.2630 C.ar  206  TRP206      0.0003
    133  CD1       -7.6660    0.9980   24.4410 C.ar  206  TRP206      0.0946
    134  CD2       -8.9580    0.0190   22.9140 C.ar  206  TRP206      0.0152
    135  NE1       -6.9550    0.9400   23.2670 N.ar  206  TRP206     -0.2442
    136  CE2       -7.7310    0.3290   22.3160 C.ar  206  TRP206      0.0810
    137  CE3       -9.9440   -0.6310   22.1460 C.ar  206  TRP206      0.0012
    138  CZ2       -7.4500    0.0130   20.9940 C.ar  206  TRP206      0.0191
    139  CZ3       -9.6630   -0.9410   20.8500 C.ar  206  TRP206      0.0001
    140  CH2       -8.4220   -0.6340   20.2820 C.ar  206  TRP206      0.0015
@<TRIPOS>BOND
     1     9     8    2
     2     4     3    2
     3     8     7    1
     4     6     7    1
     5     3     2    1
     6     7    10    1
     7    10    11    1
     8     1     2    1
     9     2     5    1
    10    11    13   am
    11    11    12    2
    12    18    15    1
    13    18    19    1
    14    27    24    1
    15    27    28    1
    16    24    23    1
    17    24    25    1
    18    15    16    1
    19    15    14    1
    20    19    20    1
    21    25    26    2
    22    20    22   am
    23    20    21    2
    24    16    17    2
    25    28    29   ar
    26    28    30   ar
    27    29    31   ar
    28    30    32   ar
    29    33    34    1
    30    35    34    1
    31    35    36    2
    32    34    37    1
    33    31    32   ar
    34    46    45    2
    35    37    38    1
    36    39    38   ar
    37    39    41   ar
    38    64    65    1
    39    64    61    1
    40    67    65   ar
    41    67    69   ar
    42    38    40   ar
    43    41    42   ar
    44   112   110    1
    45    65    66   ar
    46    69    70   ar
    47   111   110    1
    48   116   115    2
    49    40    42   ar
    50   110   107    1
    51    56    55    2
    52    60    61    1
    53    43    44    1
    54    45    44    1
    55    66    68   ar
    56    70    68   ar
    57    59    57    1
    58    57    58    1
    59    57    54    1
    60   117   118    1
    61   117   114    1
    62    61    62    1
    63    53    54    1
    64   118   119    1
    65   119   113    1
    66   115   114    1
    67   115   120   am
    68    44    47    1
    69   126   120    1
    70   126   125    1
    71    62    63    2
    72    47    48    1
    73    54    55    1
    74   113   114    1
    75   113   108   am
    76   120   121    1
    77   107   108    1
    78   107   106    1
    79   108   109    2
    80    49    48   ar
    81    49    51   ar
    82    48    50   ar
    83   125   124    1
    84   124   121    1
    85   106   101   am
    86   121   122    1
    87    51    52   ar
    88    50    52   ar
    89   104   103    1
    90   102   101    2
    91    76    75    1
    92    77    75    1
    93   101   100    1
    94    97    96    1
    95    98    96    1
    96    75    72    1
    97   122   123    2
    98    83    82    1
    99   103   100    1
   100   103   105    1
   101    96    95    1
   102    95    92    1
   103   100    99    1
   104    99    93   am
   105    84    82    1
   106    71    72    1
   107    82    79    1
   108    72    73    1
   109    93    92    1
   110    93    94    2
   111    92    91    1
   112    79    80    1
   113    79    78    1
   114   140   139   ar
   115   140   138   ar
   116    80    81    2
   117    73    74    2
   118   139   137   ar
   119   138   136   ar
   120    91    87   am
   121    88    87    2
   122   137   134   ar
   123    87    86    1
   124   136   134   ar
   125   136   135   ar
   126   134   132   ar
   127   135   133   ar
   128    90    89    1
   129    86    89    1
   130    86    85    1
   131   132   133   ar
   132   132   131    1
   133   128   131    1
   134   128   129    1
   135   128   127    1
   136   129   130    2
