@<TRIPOS>MOLECULE
tmp/5u0fA00.pdb
 177 171 0 0 0
SMALL
GASTEIGER

@<TRIPOS>ATOM
      1  N         29.3690   -0.3290   10.3270 N.3     3  TRP3       -0.1241
      2  CA        28.8200   -1.3030   11.1930 C.3     3  TRP3        0.1605
      3  C         27.7850   -2.1660   10.4330 C.2     3  TRP3        0.2264
      4  O         27.2000   -1.7510    9.4420 O.2     3  TRP3       -0.2867
      5  CB        28.1860   -0.5800   12.3670 C.3     3  TRP3        0.0550
      6  CG        26.9590    0.2260   12.0160 C.ar    3  TRP3        0.0003
      7  CD1       26.9040    1.5610   11.7050 C.ar    3  TRP3        0.0946
      8  CD2       25.6140   -0.2420   11.9710 C.ar    3  TRP3        0.0152
      9  NE1       25.6220    1.9330   11.5100 N.ar    3  TRP3       -0.2442
     10  CE2       24.8050    0.8510   11.6390 C.ar    3  TRP3        0.0810
     11  CE3       25.0060   -1.4860   12.2370 C.ar    3  TRP3        0.0012
     12  CZ2       23.4260    0.7580   11.5250 C.ar    3  TRP3        0.0191
     13  CZ3       23.6440   -1.5770   12.1150 C.ar    3  TRP3        0.0001
     14  CH2       22.8660   -0.4600   11.7330 C.ar    3  TRP3        0.0015
     15  N         17.8470   -2.6460    7.3210 N.3    63  ALA63      -0.1245
     16  CA        16.4740   -3.1220    7.3300 C.3    63  ALA63       0.1562
     17  C         15.7620   -2.4220    6.1830 C.2    63  ALA63       0.2260
     18  O         16.4400   -1.7610    5.3650 O.2    63  ALA63      -0.2867
     19  CB        15.8230   -2.8100    8.6810 C.3    63  ALA63       0.0290
     20  N         12.7400    0.5400    5.8080 N.3    65  ASN65      -0.1240
     21  CA        11.9330    1.4860    6.5260 C.3    65  ASN65       0.1653
     22  C         10.7140    1.8910    5.7210 C.2    65  ASN65       0.2266
     23  O         10.8660    2.2920    4.5690 O.2    65  ASN65      -0.2867
     24  CB        12.6860    2.7910    6.8340 C.3    65  ASN65       0.1155
     25  CG        13.7950    2.6530    7.8590 C.2    65  ASN65       0.2627
     26  OD1       13.9310    1.6390    8.5560 O.2    65  ASN65      -0.2716
     27  ND2       14.6740    3.6610    7.8460 N.am   65  ASN65      -0.0877
     28  N          8.4440    6.3830   11.1680 N.3    90  GLN90      -0.1245
     29  CA         8.7470    5.2560   10.3450 C.3    90  GLN90       0.1566
     30  C          8.4690    3.9890   11.0940 C.2    90  GLN90       0.2260
     31  O          8.4480    3.9890   12.3480 O.2    90  GLN90      -0.2867
     32  CB        10.2030    5.2740    9.8310 C.3    90  GLN90       0.0367
     33  CG        11.2420    5.2760   10.9560 C.3    90  GLN90       0.0905
     34  CD        12.0480    4.0060   11.0490 C.2    90  GLN90       0.2608
     35  OE1       11.5200    2.9440   11.1200 O.2    90  GLN90      -0.2717
     36  NE2       13.3530    4.1310   11.0880 N.am   90  GLN90      -0.0878
     37  N          9.9580   -0.3390   10.8770 N.3    92  HIS92      -0.1241
     38  CA        10.8150   -1.3230   10.2430 C.3    92  HIS92       0.1621
     39  C         10.7450   -2.5770   11.0820 C.2    92  HIS92       0.2264
     40  O         10.1380   -2.5730   12.1540 O.2    92  HIS92      -0.2867
     41  CB        12.2700   -0.8100   10.1530 C.3    92  HIS92       0.0745
     42  CG        12.8280   -0.5530   11.5070 C.ar   92  HIS92       0.0817
     43  ND1       12.6790    0.6750   12.1160 N.ar   92  HIS92      -0.2268
     44  CD2       13.4150   -1.3660   12.4060 C.ar   92  HIS92       0.1154
     45  CE1       13.1520    0.5990   13.3530 C.ar   92  HIS92       0.1986
     46  NE2       13.6030   -0.6290   13.5460 N.ar   92  HIS92      -0.2212
     47  N         13.0800   -6.2820   12.4700 N.3    94  HIS94      -0.1241
     48  CA        14.2950   -7.0600   12.6380 C.3    94  HIS94       0.1621
     49  C         13.8400   -8.5160   12.5340 C.2    94  HIS94       0.2264
     50  O         12.7970   -8.8720   13.0280 O.2    94  HIS94      -0.2867
     51  CB        14.9690   -6.8220   13.9860 C.3    94  HIS94       0.0745
     52  CG        15.2640   -5.3720   14.2340 C.ar   94  HIS94       0.0817
     53  ND1       16.4780   -4.7920   13.9590 N.ar   94  HIS94      -0.2268
     54  CD2       14.4610   -4.3580   14.6560 C.ar   94  HIS94       0.1154
     55  CE1       16.4320   -3.4890   14.2260 C.ar   94  HIS94       0.1986
     56  NE2       15.2140   -3.1970   14.6540 N.ar   94  HIS94      -0.2212
     57  N          9.1780   -2.4590   14.8670 N.3   117  HIS117     -0.1241
     58  CA         9.4290   -1.2080   15.5710 C.3   117  HIS117      0.1621
     59  C          8.7410   -0.0390   14.8770 C.2   117  HIS117      0.2264
     60  O          9.0880    0.2910   13.7500 O.2   117  HIS117     -0.2867
     61  CB        10.9210   -0.9220   15.6660 C.3   117  HIS117      0.0745
     62  CG        11.6530   -1.8580   16.5480 C.ar  117  HIS117      0.0817
     63  ND1       13.0270   -2.0410   16.5330 N.ar  117  HIS117     -0.2268
     64  CD2       11.1500   -2.7200   17.4670 C.ar  117  HIS117      0.1154
     65  CE1       13.3260   -2.9600   17.4330 C.ar  117  HIS117      0.1986
     66  NE2       12.2170   -3.3670   18.0350 N.ar  117  HIS117     -0.2212
     67  N          8.4310    3.7310   15.2000 N.3   119  VAL119     -0.1245
     68  CA         9.2500    4.7680   15.8130 C.3   119  VAL119      0.1561
     69  C          8.5400    6.0990   15.8200 C.2   119  VAL119      0.2260
     70  O          8.0610    6.5510   14.7820 O.2   119  VAL119     -0.2867
     71  CB        10.5970    4.9010   15.0660 C.3   119  VAL119      0.0252
     72  CG1       11.4690    5.9850   15.7070 C.3   119  VAL119      0.0019
     73  CG2       11.3010    3.5400   14.9570 C.3   119  VAL119      0.0019
     74  N         13.0000   15.2970   14.6560 N.3   128  PHE128     -0.1241
     75  CA        13.5340   14.0230   15.0530 C.3   128  PHE128      0.1605
     76  C         14.9950   14.1670   15.4960 C.2   128  PHE128      0.2264
     77  O         15.3970   13.5630   16.4720 O.2   128  PHE128     -0.2867
     78  CB        13.4130   13.0590   13.8900 C.3   128  PHE128      0.0534
     79  CG        13.9880   11.7070   14.1890 C.ar  128  PHE128     -0.0203
     80  CD1       13.1960   10.7310   14.7990 C.ar  128  PHE128     -0.0042
     81  CD2       15.2830   11.3860   13.8830 C.ar  128  PHE128     -0.0042
     82  CE1       13.6890    9.4700   15.0980 C.ar  128  PHE128     -0.0003
     83  CE2       15.7630   10.1200   14.1930 C.ar  128  PHE128     -0.0003
     84  CZ        14.9700    9.1820   14.7820 C.ar  128  PHE128     -0.0000
     85  N         16.2970   12.8620   19.2960 N.3   132  VAL132     -0.1245
     86  CA        17.1790   11.7570   19.6260 C.3   132  VAL132      0.1561
     87  C         18.2830   12.1500   20.6180 C.2   132  VAL132      0.2260
     88  O         18.9560   11.2720   21.1230 O.2   132  VAL132     -0.2867
     89  CB        17.7900   11.0190   18.4290 C.3   132  VAL132      0.0252
     90  CG1       16.7270   10.3740   17.6170 C.3   132  VAL132      0.0019
     91  CG2       18.6540   11.9410   17.5850 C.3   132  VAL132      0.0019
     92  N         12.1940    9.7490   22.0600 N.3   138  LEU138     -0.1245
     93  CA        11.5340    8.7790   21.2020 C.3   138  LEU138      0.1561
     94  C         10.6730    7.8320   22.0130 C.2   138  LEU138      0.2260
     95  O         10.9530    7.5540   23.1890 O.2   138  LEU138     -0.2867
     96  CB        12.5320    7.9100   20.4460 C.3   138  LEU138      0.0270
     97  CG        13.3180    8.5370   19.3200 C.3   138  LEU138      0.0019
     98  CD1       14.0590    7.4950   18.5480 C.3   138  LEU138      0.0001
     99  CD2       12.7370    9.7030   18.5690 C.3   138  LEU138      0.0001
    100  N          9.2210    3.9820   21.0820 N.3   140  VAL140     -0.1245
    101  CA         9.2140    2.8770   20.0880 C.3   140  VAL140      0.1561
    102  C          8.2230    1.8390   20.5790 C.2   140  VAL140      0.2260
    103  O          8.3160    1.3420   21.6950 O.2   140  VAL140     -0.2867
    104  CB        10.5860    2.3000   19.7800 C.3   140  VAL140      0.0252
    105  CG1       10.4090    1.1910   18.7020 C.3   140  VAL140      0.0019
    106  CG2       11.5390    3.3810   19.3000 C.3   140  VAL140      0.0019
    107  N         17.2410    2.4370   24.6310 N.3   194  SER194     -0.1202
    108  CA        18.0690    3.0380   23.5760 C.3   194  SER194      0.2020
    109  C         17.6120    2.6460   22.1820 C.2   194  SER194      0.2619
    110  O         16.8430    1.6940   22.0280 O.2   194  SER194     -0.2717
    111  CB        19.5570    2.6350   23.7790 C.3   194  SER194      0.2103
    112  OG        19.8070    1.3300   23.3450 O.3   194  SER194     -0.2182
    113  N         18.1730    3.2850   21.1960 N.am  195  LEU195     -0.1965
    114  CA        18.2040    2.7660   19.8230 C.3   195  LEU195      0.1728
    115  C         18.9340    1.4280   19.8710 C.2   195  LEU195      0.2617
    116  O         19.9200    1.2330   20.6140 O.2   195  LEU195     -0.2715
    117  CB        18.9800    3.7250   18.9100 C.3   195  LEU195      0.0311
    118  CG        18.5750    5.1950   18.8850 C.3   195  LEU195      0.0022
    119  CD1       19.4460    5.9140   17.8570 C.3   195  LEU195      0.0001
    120  CD2       17.1040    5.3640   18.5880 C.3   195  LEU195      0.0001
    121  N         18.5320    0.4970   19.0230 N.am  196  THR196     -0.1937
    122  CA        19.1650   -0.8390   18.9730 C.3   196  THR196      0.2028
    123  C         20.1820   -0.9940   17.8580 C.2   196  THR196      0.2643
    124  O         20.7740   -2.0460   17.6960 O.2   196  THR196     -0.2714
    125  CB        18.1160   -1.9170   18.8340 C.3   196  THR196      0.1808
    126  OG1       17.4790   -1.7290   17.5590 O.3   196  THR196     -0.2208
    127  CG2       17.1220   -1.9410   19.9930 C.3   196  THR196      0.0379
    128  N         20.4570    0.0960   17.1250 N.am  197  THR197     -0.1937
    129  CA        21.5790    0.1740   16.1910 C.3   197  THR197      0.2013
    130  C         22.4110    1.3840   16.5360 C.2   197  THR197      0.2484
    131  O         21.9050    2.3170   17.1390 O.2   197  THR197     -0.2729
    132  CB        21.1300    0.3320   14.7140 C.3   197  THR197      0.1807
    133  OG1       20.5160    1.6060   14.5420 O.3   197  THR197     -0.2208
    134  CG2       20.1930   -0.7400   14.3370 C.3   197  THR197      0.0379
    135  N         23.6660    1.4150   16.0740 N.am  198  PRO198     -0.2715
    136  CA        24.3700    2.6810   16.0770 C.3   198  PRO198      0.1521
    137  C         23.4860    3.8190   15.5570 C.2   198  PRO198      0.2440
    138  O         22.7850    3.6120   14.5480 O.2   198  PRO198     -0.2731
    139  CB        25.5860    2.4150   15.1970 C.3   198  PRO198      0.0310
    140  CG        25.8730    0.9240   15.4240 C.3   198  PRO198      0.0237
    141  CD        24.4760    0.3450   15.4590 C.3   198  PRO198      0.0939
    142  N         23.4910    4.9960   16.1920 N.am  199  PRO199     -0.2727
    143  CA        24.4020    5.4320   17.2460 C.3   199  PRO199      0.1402
    144  C         24.0440    5.0300   18.6940 C.2   199  PRO199      0.2269
    145  O         24.7000    5.5090   19.6060 O.2   199  PRO199     -0.2865
    146  CB        24.3640    6.9540   17.0760 C.3   199  PRO199      0.0296
    147  CG        22.9690    7.2380   16.5640 C.3   199  PRO199      0.0237
    148  CD        22.6800    6.1000   15.6390 C.3   199  PRO199      0.0939
    149  N         21.8020    5.6680   20.8420 N.3   201  LEU201     -0.1245
    150  CA        21.4710    6.7800   21.7200 C.3   201  LEU201      0.1561
    151  C         20.4270    6.3830   22.7230 C.2   201  LEU201      0.2260
    152  O         19.4790    5.6650   22.4020 O.2   201  LEU201     -0.2867
    153  CB        20.9850    7.9630   20.9260 C.3   201  LEU201      0.0270
    154  CG        22.0570    8.5820   20.0050 C.3   201  LEU201      0.0019
    155  CD1       21.4310    9.6080   19.0640 C.3   201  LEU201      0.0001
    156  CD2       23.2160    9.2180   20.7990 C.3   201  LEU201      0.0001
    157  N         15.1110    6.4530   24.1890 N.3   204  VAL204     -0.1245
    158  CA        13.8720    5.7480   23.8690 C.3   204  VAL204      0.1561
    159  C         13.1050    5.3130   25.1240 C.2   204  VAL204      0.2260
    160  O         13.6730    4.6300   26.0000 O.2   204  VAL204     -0.2867
    161  CB        14.1490    4.4770   23.0380 C.3   204  VAL204      0.0252
    162  CG1       12.8650    3.7070   22.6990 C.3   204  VAL204      0.0019
    163  CG2       14.9160    4.8290   21.7770 C.3   204  VAL204      0.0019
    164  N         10.6280    2.5410   25.6260 N.3   206  TRP206     -0.1241
    165  CA        10.1620    1.3150   24.9780 C.3   206  TRP206      0.1605
    166  C          8.8020    0.9160   25.4840 C.2   206  TRP206      0.2264
    167  O          8.5410    0.8760   26.6840 O.2   206  TRP206     -0.2867
    168  CB        11.1820    0.1630   25.2290 C.3   206  TRP206      0.0550
    169  CG        12.3160    0.2360   24.2740 C.ar  206  TRP206      0.0003
    170  CD1       13.5390    0.8090   24.4650 C.ar  206  TRP206      0.0946
    171  CD2       12.2580   -0.1940   22.9200 C.ar  206  TRP206      0.0152
    172  NE1       14.2510    0.7390   23.2890 N.ar  206  TRP206     -0.2442
    173  CE2       13.4820    0.1420   22.3220 C.ar  206  TRP206      0.0810
    174  CE3       11.2870   -0.8430   22.1460 C.ar  206  TRP206      0.0012
    175  CZ2       13.7780   -0.1910   21.0060 C.ar  206  TRP206      0.0191
    176  CZ3       11.5730   -1.1410   20.8310 C.ar  206  TRP206      0.0001
    177  CH2       12.8200   -0.8400   20.2810 C.ar  206  TRP206      0.0015
@<TRIPOS>BOND
     1    23    22    2
     2    18    17    2
     3    22    21    1
     4    20    21    1
     5    17    16    1
     6    21    24    1
     7    24    25    1
     8    15    16    1
     9    16    19    1
    10    27    25   am
    11    25    26    2
    12     4     3    2
    13    32    29    1
    14    32    33    1
    15    41    38    1
    16    41    42    1
    17    38    37    1
    18    38    39    1
    19     1     2    1
    20    29    30    1
    21    29    28    1
    22     3     2    1
    23    33    34    1
    24    34    36   am
    25    34    35    2
    26    39    40    2
    27    30    31    2
    28     2     5    1
    29    42    43   ar
    30    42    44   ar
    31     9    10   ar
    32     9     7   ar
    33    12    10   ar
    34    12    14   ar
    35    10     8   ar
    36     7     6   ar
    37    14    13   ar
    38     8     6   ar
    39     8    11   ar
    40     6     5    1
    41    13    11   ar
    42    43    45   ar
    43    44    46   ar
    44    47    48    1
    45    49    48    1
    46    49    50    2
    47    48    51    1
    48    45    46   ar
    49    60    59    2
    50    81    79   ar
    51    81    83   ar
    52    78    79    1
    53    78    75    1
    54    53    55   ar
    55    53    52   ar
    56    51    52    1
    57    79    80   ar
    58    83    84   ar
    59    55    56   ar
    60    52    54   ar
    61   134   132    1
    62   133   132    1
    63   138   137    2
    64    56    54   ar
    65    74    75    1
    66   132   129    1
    67    84    82   ar
    68    70    69    2
    69    80    82   ar
    70    57    58    1
    71    59    58    1
    72    73    71    1
    73    75    76    1
    74    71    72    1
    75    71    68    1
    76   139   140    1
    77   139   136    1
    78    67    68    1
    79   140   141    1
    80   141   135    1
    81    76    77    2
    82   137   136    1
    83   137   142   am
    84    58    61    1
    85   148   142    1
    86   148   147    1
    87    61    62    1
    88    68    69    1
    89   135   136    1
    90   135   130   am
    91   129   130    1
    92   129   128    1
    93   142   143    1
    94    63    62   ar
    95    63    65   ar
    96   130   131    2
    97    62    64   ar
    98   147   146    1
    99   146   143    1
   100   128   123   am
   101   143   144    1
   102    65    66   ar
   103    64    66   ar
   104   126   125    1
   105    91    89    1
   106    90    89    1
   107   124   123    2
   108   119   118    1
   109   123   122    1
   110    89    86    1
   111    98    97    1
   112    99    97    1
   113   120   118    1
   114   144   145    2
   115   105   104    1
   116   125   122    1
   117   125   127    1
   118   118   117    1
   119   117   114    1
   120   122   121    1
   121   121   115   am
   122   155   154    1
   123    85    86    1
   124   106   104    1
   125    97    96    1
   126    86    87    1
   127   104   101    1
   128   114   115    1
   129   114   113    1
   130   115   116    2
   131   154   156    1
   132   154   153    1
   133   101   102    1
   134   101   100    1
   135   177   176   ar
   136   177   175   ar
   137    96    93    1
   138   102   103    2
   139    87    88    2
   140   176   174   ar
   141   149   150    1
   142   153   150    1
   143   175   173   ar
   144   113   109   am
   145    93    94    1
   146    93    92    1
   147   150   151    1
   148   163   161    1
   149    94    95    2
   150   110   109    2
   151   174   171   ar
   152   109   108    1
   153   173   171   ar
   154   173   172   ar
   155   152   151    2
   156   162   161    1
   157   171   169   ar
   158   161   158    1
   159   172   170   ar
   160   112   111    1
   161   108   111    1
   162   108   107    1
   163   158   157    1
   164   158   159    1
   165   169   170   ar
   166   169   168    1
   167   165   168    1
   168   165   166    1
   169   165   164    1
   170   159   160    2
   171   166   167    2
