@<TRIPOS>MOLECULE
tmp/5u0gA00.pdb
 174 170 0 0 0
SMALL
GASTEIGER

@<TRIPOS>ATOM
      1  N          8.0590   -0.1360   10.1720 N.3     3  TRP3       -0.1241
      2  CA         7.4580   -1.0930   11.0970 C.3     3  TRP3        0.1605
      3  C          6.4360   -1.9390   10.3780 C.2     3  TRP3        0.2264
      4  O          5.8330   -1.5090    9.3950 O.2     3  TRP3       -0.2867
      5  CB         6.7970   -0.3920   12.2700 C.3     3  TRP3        0.0550
      6  CG         5.6060    0.4140   11.9320 C.ar    3  TRP3        0.0003
      7  CD1        5.5790    1.7310   11.6280 C.ar    3  TRP3        0.0946
      8  CD2        4.2470   -0.0310   11.9430 C.ar    3  TRP3        0.0152
      9  NE1        4.3070    2.1370   11.4120 N.ar    3  TRP3       -0.2442
     10  CE2        3.4560    1.0720   11.5860 C.ar    3  TRP3        0.0810
     11  CE3        3.6320   -1.2650   12.1830 C.ar    3  TRP3        0.0012
     12  CZ2        2.0750    1.0000   11.5060 C.ar    3  TRP3        0.0191
     13  CZ3        2.2470   -1.3460   12.0880 C.ar    3  TRP3        0.0001
     14  CH2        1.4830   -0.2190   11.7470 C.ar    3  TRP3        0.0015
     15  N         -3.3530    0.6440    3.5230 N.3    60  ASN60      -0.1240
     16  CA        -2.1970    1.4560    3.9370 C.3    60  ASN60       0.1653
     17  C         -0.9320    0.6310    4.2180 C.2    60  ASN60       0.2266
     18  O          0.0280    1.1390    4.7860 O.2    60  ASN60      -0.2867
     19  CB        -2.5670    2.3150    5.1300 C.3    60  ASN60       0.1155
     20  CG        -2.8990    1.5210    6.3500 C.2    60  ASN60       0.2627
     21  OD1       -2.5710    0.3450    6.4530 O.2    60  ASN60      -0.2716
     22  ND2       -3.5590    2.1630    7.2860 N.am   60  ASN60      -0.0877
     23  N         -0.7140   -1.8280    6.2580 N.3    62  HIS62      -0.1226
     24  CA        -0.8500   -2.4280    7.5960 C.3    62  HIS62       0.1752
     25  C         -2.2300   -3.0780    7.7950 C.2    62  HIS62       0.2595
     26  O         -2.3270   -4.1080    8.4340 O.2    62  HIS62      -0.2718
     27  CB        -0.5860   -1.4250    8.7170 C.3    62  HIS62       0.0759
     28  CG         0.6440   -0.6030    8.5180 C.ar   62  HIS62       0.0818
     29  ND1        1.9110   -1.1450    8.5080 N.ar   62  HIS62      -0.2268
     30  CD2        0.8010    0.7230    8.3420 C.ar   62  HIS62       0.1154
     31  CE1        2.8080   -0.1840    8.3600 C.ar   62  HIS62       0.1986
     32  NE2        2.1600    0.9600    8.2260 N.ar   62  HIS62      -0.2212
     33  N         -3.2740   -2.4210    7.3040 N.am   63  ALA63      -0.1980
     34  CA        -4.6400   -2.8910    7.3270 C.3    63  ALA63       0.1597
     35  C         -5.3610   -2.1860    6.1810 C.2    63  ALA63       0.2287
     36  O         -4.7110   -1.5480    5.3220 O.2    63  ALA63      -0.2864
     37  CB        -5.2720   -2.5630    8.6710 C.3    63  ALA63       0.0319
     38  N        -12.5380    6.6530   11.1980 N.3    90  GLN90      -0.1245
     39  CA       -12.2950    5.5040   10.3520 C.3    90  GLN90       0.1566
     40  C        -12.5790    4.2470   11.1120 C.2    90  GLN90       0.2260
     41  O        -12.6010    4.2590   12.3580 O.2    90  GLN90      -0.2867
     42  CB       -10.8480    5.4330    9.8040 C.3    90  GLN90       0.0367
     43  CG        -9.7620    5.5500   10.8510 C.3    90  GLN90       0.0905
     44  CD        -9.0190    4.2580   11.1290 C.2    90  GLN90       0.2608
     45  OE1       -9.5910    3.1530   11.1250 O.2    90  GLN90      -0.2717
     46  NE2       -7.7290    4.3920   11.4150 N.am   90  GLN90      -0.0878
     47  N        -11.1710   -0.0890   10.8520 N.3    92  HIS92      -0.1241
     48  CA       -10.3070   -1.0790   10.2190 C.3    92  HIS92       0.1621
     49  C        -10.3910   -2.3400   11.0460 C.2    92  HIS92       0.2264
     50  O        -11.0390   -2.3370   12.1090 O.2    92  HIS92      -0.2867
     51  CB        -8.8700   -0.6100   10.1690 C.3    92  HIS92       0.0745
     52  CG        -8.3260   -0.3250   11.5190 C.ar   92  HIS92       0.0817
     53  ND1       -8.4810    0.8830   12.1410 N.ar   92  HIS92      -0.2268
     54  CD2       -7.7140   -1.1320   12.4060 C.ar   92  HIS92       0.1154
     55  CE1       -7.9620    0.8180   13.3550 C.ar   92  HIS92       0.1986
     56  NE2       -7.5170   -0.4060   13.5390 N.ar   92  HIS92      -0.2212
     57  N         -8.0640   -6.0460   12.3970 N.3    94  HIS94      -0.1241
     58  CA        -6.8770   -6.8730   12.5790 C.3    94  HIS94       0.1621
     59  C         -7.3390   -8.3240   12.4760 C.2    94  HIS94       0.2264
     60  O         -8.4110   -8.6810   12.9950 O.2    94  HIS94      -0.2867
     61  CB        -6.2000   -6.6320   13.9010 C.3    94  HIS94       0.0745
     62  CG        -5.9110   -5.1900   14.1820 C.ar   94  HIS94       0.0817
     63  ND1       -4.6970   -4.6090   13.8960 N.ar   94  HIS94      -0.2268
     64  CD2       -6.6990   -4.2050   14.6550 C.ar   94  HIS94       0.1154
     65  CE1       -4.7330   -3.3300   14.2190 C.ar   94  HIS94       0.1986
     66  NE2       -5.9290   -3.0600   14.6880 N.ar   94  HIS94      -0.2212
     67  N        -11.9730   -2.2250   14.8150 N.3   117  HIS117     -0.1241
     68  CA       -11.7280   -0.9970   15.5370 C.3   117  HIS117      0.1621
     69  C        -12.3950    0.1640   14.8360 C.2   117  HIS117      0.2264
     70  O        -12.0320    0.4710   13.7020 O.2   117  HIS117     -0.2867
     71  CB       -10.2370   -0.7280   15.6460 C.3   117  HIS117      0.0745
     72  CG        -9.5400   -1.6980   16.5490 C.ar  117  HIS117      0.0817
     73  ND1       -8.1780   -1.9340   16.5450 N.ar  117  HIS117     -0.2268
     74  CD2      -10.0520   -2.5150   17.4920 C.ar  117  HIS117      0.1154
     75  CE1       -7.8910   -2.8530   17.4500 C.ar  117  HIS117      0.1986
     76  NE2       -9.0090   -3.2150   18.0490 N.ar  117  HIS117     -0.2212
     77  N        -12.6230    3.9780   15.1730 N.3   119  VAL119     -0.1245
     78  CA       -11.7710    4.9930   15.8010 C.3   119  VAL119      0.1561
     79  C        -12.4790    6.3290   15.8190 C.2   119  VAL119      0.2260
     80  O        -12.9160    6.7940   14.7700 O.2   119  VAL119     -0.2867
     81  CB       -10.4450    5.1180   15.0400 C.3   119  VAL119      0.0252
     82  CG1       -9.5180    6.1200   15.7370 C.3   119  VAL119      0.0019
     83  CG2       -9.7310    3.7790   14.9440 C.3   119  VAL119      0.0019
     84  N         -8.1290   15.6840   14.7720 N.3   128  PHE128     -0.1241
     85  CA        -7.5570   14.4040   15.1290 C.3   128  PHE128      0.1605
     86  C         -6.1040   14.4770   15.5880 C.2   128  PHE128      0.2264
     87  O         -5.7240   13.8530   16.5750 O.2   128  PHE128     -0.2867
     88  CB        -7.7200   13.4510   13.9490 C.3   128  PHE128      0.0534
     89  CG        -7.1520   12.1000   14.1860 C.ar  128  PHE128     -0.0203
     90  CD1       -7.9250   11.1110   14.7580 C.ar  128  PHE128     -0.0042
     91  CD2       -5.8560   11.8060   13.8240 C.ar  128  PHE128     -0.0042
     92  CE1       -7.4110    9.8420   14.9680 C.ar  128  PHE128     -0.0003
     93  CE2       -5.3350   10.5510   14.0380 C.ar  128  PHE128     -0.0003
     94  CZ        -6.1160    9.5730   14.5920 C.ar  128  PHE128     -0.0000
     95  N         -4.8380   13.1740   19.4170 N.3   132  VAL132     -0.1245
     96  CA        -3.9340   12.0410   19.7470 C.3   132  VAL132      0.1561
     97  C         -2.8210   12.4230   20.7080 C.2   132  VAL132      0.2260
     98  O         -2.1640   11.5290   21.2520 O.2   132  VAL132     -0.2867
     99  CB        -3.3290   11.3060   18.4990 C.3   132  VAL132      0.0252
    100  CG1       -4.4280   10.7420   17.6210 C.3   132  VAL132      0.0019
    101  CG2       -2.4030   12.1910   17.6690 C.3   132  VAL132      0.0019
    102  N         -8.8650    9.9620   22.1190 N.3   138  LEU138     -0.1245
    103  CA        -9.5710    8.9790   21.2540 C.3   138  LEU138      0.1561
    104  C        -10.4290    8.0470   22.0640 C.2   138  LEU138      0.2260
    105  O        -10.1600    7.7990   23.2390 O.2   138  LEU138     -0.2867
    106  CB        -8.5740    8.1650   20.4370 C.3   138  LEU138      0.0270
    107  CG        -7.6510    8.8410   19.4350 C.3   138  LEU138      0.0019
    108  CD1       -6.8670    7.8310   18.6540 C.3   138  LEU138      0.0001
    109  CD2       -8.2710    9.9030   18.5450 C.3   138  LEU138      0.0001
    110  N        -11.8290    4.1770   21.0190 N.3   140  VAL140     -0.1245
    111  CA       -11.8720    3.1160   20.0550 C.3   140  VAL140      0.1561
    112  C        -12.8640    2.0780   20.5260 C.2   140  VAL140      0.2260
    113  O        -12.7800    1.6010   21.6690 O.2   140  VAL140     -0.2867
    114  CB       -10.4950    2.5120   19.7270 C.3   140  VAL140      0.0252
    115  CG1      -10.6240    1.4910   18.5960 C.3   140  VAL140      0.0019
    116  CG2       -9.5180    3.5940   19.2940 C.3   140  VAL140      0.0019
    117  N         -2.8940    3.5160   21.2120 N.3   195  LEU195     -0.1231
    118  CA        -2.9330    3.0180   19.8620 C.3   195  LEU195      0.1693
    119  C         -2.1990    1.6650   19.8690 C.2   195  LEU195      0.2593
    120  O         -1.2100    1.5010   20.5920 O.2   195  LEU195     -0.2718
    121  CB        -2.1790    3.9340   18.9180 C.3   195  LEU195      0.0284
    122  CG        -2.5100    5.3970   18.9040 C.3   195  LEU195      0.0019
    123  CD1       -1.6740    6.1420   17.8790 C.3   195  LEU195      0.0001
    124  CD2       -3.9770    5.6240   18.6530 C.3   195  LEU195      0.0001
    125  N         -2.6610    0.7260   19.0500 N.am  196  THR196     -0.1939
    126  CA        -2.0250   -0.5970   18.9730 C.3   196  THR196      0.2028
    127  C         -1.0370   -0.7270   17.8420 C.2   196  THR196      0.2643
    128  O         -0.4410   -1.7970   17.6820 O.2   196  THR196     -0.2714
    129  CB        -3.0640   -1.7180   18.8430 C.3   196  THR196      0.1808
    130  OG1       -3.7120   -1.5640   17.5780 O.3   196  THR196     -0.2208
    131  CG2       -4.0830   -1.6860   19.9630 C.3   196  THR196      0.0379
    132  N         -0.8030    0.3640   17.1150 N.am  197  THR197     -0.1937
    133  CA         0.2780    0.4640   16.1380 C.3   197  THR197      0.2013
    134  C          1.1160    1.6780   16.4710 C.2   197  THR197      0.2484
    135  O          0.6290    2.6410   17.1110 O.2   197  THR197     -0.2729
    136  CB        -0.2540    0.6330   14.7160 C.3   197  THR197      0.1807
    137  OG1       -1.0210    1.8340   14.5900 O.3   197  THR197     -0.2208
    138  CG2       -1.1250   -0.5580   14.3080 C.3   197  THR197      0.0379
    139  N          2.3600    1.6760   15.9790 N.am  198  PRO198     -0.2715
    140  CA         3.1190    2.9250   16.0330 C.3   198  PRO198      0.1521
    141  C          2.2560    4.0800   15.5010 C.2   198  PRO198      0.2440
    142  O          1.5350    3.9070   14.4640 O.2   198  PRO198     -0.2731
    143  CB         4.3070    2.6120   15.1470 C.3   198  PRO198      0.0310
    144  CG         4.5230    1.1490   15.3670 C.3   198  PRO198      0.0237
    145  CD         3.1400    0.5910   15.3610 C.3   198  PRO198      0.0939
    146  N          2.3160    5.2510   16.1300 N.am  199  PRO199     -0.2727
    147  CA         3.2490    5.6460   17.2060 C.3   199  PRO199      0.1402
    148  C          2.8830    5.2640   18.6580 C.2   199  PRO199      0.2269
    149  O          3.5070    5.7390   19.6170 O.2   199  PRO199     -0.2865
    150  CB         3.2500    7.1700   17.0680 C.3   199  PRO199      0.0296
    151  CG         1.8940    7.5020   16.6060 C.3   199  PRO199      0.0237
    152  CD         1.5180    6.4010   15.6510 C.3   199  PRO199      0.0939
    153  N          0.6210    5.9090   20.8180 N.3   201  LEU201     -0.1245
    154  CA         0.3270    6.9970   21.7260 C.3   201  LEU201      0.1561
    155  C         -0.7030    6.5970   22.7720 C.2   201  LEU201      0.2260
    156  O         -1.6620    5.8820   22.4640 O.2   201  LEU201     -0.2867
    157  CB        -0.0880    8.2620   20.9580 C.3   201  LEU201      0.0270
    158  CG         0.9510    8.7790   19.9710 C.3   201  LEU201      0.0019
    159  CD1        0.3160    9.8500   19.0910 C.3   201  LEU201      0.0001
    160  CD2        2.1450    9.3430   20.7220 C.3   201  LEU201      0.0001
    161  N        -10.4920    2.7330   25.6100 N.3   206  TRP206     -0.1241
    162  CA       -10.9300    1.5340   24.9300 C.3   206  TRP206      0.1605
    163  C        -12.2900    1.1320   25.4290 C.2   206  TRP206      0.2264
    164  O        -12.5410    1.1200   26.6250 O.2   206  TRP206     -0.2867
    165  CB        -9.9020    0.3860   25.1480 C.3   206  TRP206      0.0550
    166  CG        -8.8060    0.4650   24.1760 C.ar  206  TRP206      0.0003
    167  CD1       -7.5850    1.0240   24.3610 C.ar  206  TRP206      0.0946
    168  CD2       -8.8730    0.0710   22.8200 C.ar  206  TRP206      0.0152
    169  NE1       -6.8790    1.0110   23.1910 N.ar  206  TRP206     -0.2442
    170  CE2       -7.6370    0.3960   22.2290 C.ar  206  TRP206      0.0810
    171  CE3       -9.8440   -0.5860   22.0470 C.ar  206  TRP206      0.0012
    172  CZ2       -7.3730    0.1340   20.9100 C.ar  206  TRP206      0.0191
    173  CZ3       -9.5760   -0.8480   20.7570 C.ar  206  TRP206      0.0001
    174  CH2       -8.3430   -0.5320   20.1880 C.ar  206  TRP206      0.0015
@<TRIPOS>BOND
     1    15    16    1
     2    16    17    1
     3    16    19    1
     4    17    18    2
     5    19    20    1
     6    36    35    2
     7    35    34    1
     8    23    24    1
     9    20    21    2
    10    20    22   am
    11    33    34    1
    12    33    25   am
    13    34    37    1
    14    24    25    1
    15    24    27    1
    16    25    26    2
    17    32    30   ar
    18    32    31   ar
    19    30    28   ar
    20    31    29   ar
    21    29    28   ar
    22    28    27    1
    23     4     3    2
    24    42    39    1
    25    42    43    1
    26    51    48    1
    27    51    52    1
    28     1     2    1
    29    48    47    1
    30    48    49    1
    31    39    40    1
    32    39    38    1
    33     3     2    1
    34    43    44    1
    35    49    50    2
    36     2     5    1
    37    40    41    2
    38    45    44    2
    39    44    46   am
    40     9    10   ar
    41     9     7   ar
    42    12    10   ar
    43    12    14   ar
    44    52    53   ar
    45    52    54   ar
    46    10     8   ar
    47     7     6   ar
    48    14    13   ar
    49     6     8   ar
    50     6     5    1
    51     8    11   ar
    52    13    11   ar
    53    53    55   ar
    54    57    58    1
    55    54    56   ar
    56    59    58    1
    57    59    60    2
    58    58    61    1
    59    55    56   ar
    60    70    69    2
    61    91    93   ar
    62    91    89   ar
    63    63    62   ar
    64    63    65   ar
    65    61    62    1
    66    88    89    1
    67    88    85    1
    68    93    94   ar
    69    62    64   ar
    70    89    90   ar
    71    65    66   ar
    72   138   136    1
    73   142   141    2
    74   137   136    1
    75    94    92   ar
    76    64    66   ar
    77   136   133    1
    78    90    92   ar
    79    80    79    2
    80    84    85    1
    81    67    68    1
    82    69    68    1
    83    83    81    1
    84    81    82    1
    85    81    78    1
    86    85    86    1
    87   143   144    1
    88   143   140    1
    89    77    78    1
    90   145   144    1
    91   145   139    1
    92   141   140    1
    93   141   146   am
    94    68    71    1
    95    86    87    2
    96    71    72    1
    97   152   146    1
    98   152   151    1
    99    78    79    1
   100   139   140    1
   101   139   134   am
   102   146   147    1
   103   133   134    1
   104   133   132    1
   105   134   135    2
   106    73    72   ar
   107    73    75   ar
   108    72    74   ar
   109   151   150    1
   110   150   147    1
   111   132   127   am
   112   147   148    1
   113    75    76   ar
   114    74    76   ar
   115   130   129    1
   116   100    99    1
   117   101    99    1
   118   128   127    2
   119   127   126    1
   120   123   122    1
   121    99    96    1
   122   109   107    1
   123   115   114    1
   124   124   122    1
   125   108   107    1
   126   148   149    2
   127   129   126    1
   128   129   131    1
   129   122   121    1
   130   121   118    1
   131   126   125    1
   132   125   119   am
   133   159   158    1
   134   116   114    1
   135    95    96    1
   136   107   106    1
   137   114   111    1
   138    96    97    1
   139   118   119    1
   140   118   117    1
   141   119   120    2
   142   158   160    1
   143   158   157    1
   144   111   112    1
   145   111   110    1
   146   174   173   ar
   147   174   172   ar
   148   106   103    1
   149   112   113    2
   150    97    98    2
   151   173   171   ar
   152   153   154    1
   153   172   170   ar
   154   157   154    1
   155   103   104    1
   156   103   102    1
   157   154   155    1
   158   171   168   ar
   159   104   105    2
   160   170   168   ar
   161   170   169   ar
   162   156   155    2
   163   168   166   ar
   164   169   167   ar
   165   166   167   ar
   166   166   165    1
   167   162   165    1
   168   162   163    1
   169   162   161    1
   170   163   164    2
