@<TRIPOS>MOLECULE
tmp/5u0lA00.pdb
 96 91 0 0 0
SMALL
GASTEIGER

@<TRIPOS>ATOM
      1  N         28.7130   -5.1720   44.0550 N.3   107  LYS107     -0.1245
      2  CA        30.1530   -5.1470   43.8270 C.3   107  LYS107      0.1561
      3  C         30.8850   -6.2750   44.5180 C.2   107  LYS107      0.2260
      4  O         31.9750   -6.6580   44.0700 O.2   107  LYS107     -0.2867
      5  CB        30.7700   -3.8350   44.3180 C.3   107  LYS107      0.0271
      6  CG        32.2760   -3.7470   43.9970 C.3   107  LYS107      0.0035
      7  CD        32.5530   -3.9510   42.4230 C.3   107  LYS107      0.0206
      8  CE        32.0090   -2.8440   41.5560 C.3   107  LYS107      0.1093
      9  NZ        32.4930   -2.9120   40.1040 N.3   107  LYS107     -0.1314
     10  N         29.4240    4.2250   44.8690 N.3   152  HIS152     -0.1226
     11  CA        29.6200    3.0890   43.9690 C.3   152  HIS152      0.1752
     12  C         31.0020    3.0970   43.3240 C.2   152  HIS152      0.2595
     13  O         31.6780    2.0590   43.2720 O.2   152  HIS152     -0.2718
     14  CB        28.5460    3.0740   42.9080 C.3   152  HIS152      0.0759
     15  CG        28.8220    2.0990   41.8090 C.ar  152  HIS152      0.0818
     16  ND1       28.8920    0.7380   42.0240 N.ar  152  HIS152     -0.2268
     17  CD2       29.0510    2.2860   40.4820 C.ar  152  HIS152      0.1154
     18  CE1       29.1600    0.1300   40.8800 C.ar  152  HIS152      0.1986
     19  NE2       29.2460    1.0450   39.9270 N.ar  152  HIS152     -0.2212
     20  N         31.4420    4.2560   42.8130 N.am  153  LEU153     -0.1980
     21  CA        32.7380    4.2890   42.1310 C.3   153  LEU153      0.1596
     22  C         33.8890    4.0810   43.1000 C.2   153  LEU153      0.2287
     23  O         34.6600    3.1280   42.9030 O.2   153  LEU153     -0.2864
     24  CB        32.8900    5.5820   41.3110 C.3   153  LEU153      0.0297
     25  CG        32.0740    5.4360   40.0030 C.3   153  LEU153      0.0022
     26  CD1       32.1220    6.6530   39.0810 C.3   153  LEU153      0.0001
     27  CD2       32.5500    4.1860   39.2900 C.3   153  LEU153      0.0001
     28  N         34.1650    0.6130   43.9260 N.3   156  GLY156     -0.1210
     29  CA        34.6770   -0.2650   42.8890 C.3   156  GLY156      0.1956
     30  C         36.1760   -0.4530   42.9320 C.2   156  GLY156      0.2611
     31  O         36.6910   -1.4330   42.3670 O.2   156  GLY156     -0.2717
     32  N         36.8910    0.4740   43.5680 N.am  157  HIS157     -0.1975
     33  CA        38.3120    0.2720   43.8260 C.3   157  HIS157      0.1656
     34  C         38.5610   -0.4110   45.1670 C.2   157  HIS157      0.2291
     35  O         39.4250   -1.2930   45.2680 O.2   157  HIS157     -0.2864
     36  CB        39.0530    1.6090   43.8220 C.3   157  HIS157      0.0771
     37  CG        38.9930    2.3530   42.5160 C.ar  157  HIS157      0.0820
     38  ND1       39.5990    1.8920   41.3670 N.ar  157  HIS157     -0.2267
     39  CD2       38.4530    3.5540   42.2000 C.ar  157  HIS157      0.1154
     40  CE1       39.4140    2.7640   40.3920 C.ar  157  HIS157      0.1986
     41  NE2       38.7280    3.7840   40.8730 N.ar  157  HIS157     -0.2212
     42  N         39.4820    7.8490   39.8240 N.3   222  THR222     -0.1218
     43  CA        38.3140    8.0620   38.9780 C.3   222  THR222      0.1862
     44  C         37.9990    9.5470   38.9880 C.2   222  THR222      0.2287
     45  O         37.8090   10.1320   40.0620 O.2   222  THR222     -0.2866
     46  CB        37.1070    7.2810   39.4670 C.3   222  THR222      0.1770
     47  OG1       37.4150    5.8880   39.5050 O.3   222  THR222     -0.2211
     48  CG2       35.9200    7.5170   38.5600 C.3   222  THR222      0.0375
     49  N         40.5140    5.8400   35.7010 N.3   246  GLU246     -0.1245
     50  CA        39.1970    5.7060   35.0860 C.3   246  GLU246      0.1567
     51  C         38.7000    7.1270   34.8440 C.2   246  GLU246      0.2260
     52  O         38.4430    7.8780   35.7940 O.2   246  GLU246     -0.2867
     53  CB        38.2480    4.9120   35.9790 C.3   246  GLU246      0.0388
     54  CG        38.9040    3.7430   36.6940 C.3   246  GLU246      0.1160
     55  CD        39.5420    2.7040   35.7660 C.2   246  GLU246      0.3649
     56  OE1       39.0550    2.5250   34.6360 O.co2 246  GLU246     -0.2457
     57  OE2       40.5470    2.0670   36.1690 O.co2 246  GLU246     -0.2457
     58  N         25.8890   -0.6180   32.0310 N.3   438  ALA438     -0.1231
     59  CA        27.1400   -1.3480   32.1480 C.3   438  ALA438      0.1694
     60  C         26.9340   -2.5260   33.0750 C.2   438  ALA438      0.2593
     61  O         25.9800   -2.5650   33.8560 O.2   438  ALA438     -0.2718
     62  CB        28.2630   -0.4620   32.6840 C.3   438  ALA438      0.0304
     63  N         27.8250   -3.5070   32.9660 N.am  439  SER439     -0.1938
     64  CA        27.7620   -4.7150   33.7870 C.3   439  SER439      0.2055
     65  C         29.0250   -4.8350   34.6310 C.2   439  SER439      0.2643
     66  O         30.1350   -4.9720   34.0930 O.2   439  SER439     -0.2714
     67  CB        27.5720   -5.9770   32.9480 C.3   439  SER439      0.2130
     68  OG        27.6230   -7.1190   33.7870 O.3   439  SER439     -0.2179
     69  N         28.8560   -4.8030   35.9520 N.am  440  SER440     -0.1949
     70  CA        29.9870   -5.0610   36.8320 C.3   440  SER440      0.1924
     71  C         30.5650   -6.4500   36.6130 C.2   440  SER440      0.2314
     72  O         31.6680   -6.7300   37.0920 O.2   440  SER440     -0.2863
     73  CB        29.5730   -4.9350   38.2930 C.3   440  SER440      0.2116
     74  OG        28.6550   -5.9820   38.5740 O.3   440  SER440     -0.2180
     75  N         35.3350   -2.6830   32.8070 N.3   444  PHE444     -0.1241
     76  CA        34.7690   -1.3470   32.6650 C.3   444  PHE444      0.1605
     77  C         35.9320   -0.3600   32.5720 C.2   444  PHE444      0.2264
     78  O         36.4630    0.0800   33.5970 O.2   444  PHE444     -0.2867
     79  CB        33.8370   -1.0030   33.8140 C.3   444  PHE444      0.0534
     80  CG        33.1750    0.3260   33.6520 C.ar  444  PHE444     -0.0203
     81  CD1       32.1610    0.4920   32.7220 C.ar  444  PHE444     -0.0042
     82  CD2       33.5800    1.4150   34.3870 C.ar  444  PHE444     -0.0042
     83  CE1       31.5510    1.7170   32.5590 C.ar  444  PHE444     -0.0003
     84  CE2       32.9680    2.6470   34.2240 C.ar  444  PHE444     -0.0003
     85  CZ        31.9570    2.8000   33.3080 C.ar  444  PHE444     -0.0000
     86  N         38.4600   -1.2220   35.1950 N.3   456  SER456     -0.1202
     87  CA        37.9700   -1.5970   36.5020 C.3   456  SER456      0.2020
     88  C         36.7900   -2.5490   36.3330 C.2   456  SER456      0.2618
     89  O         36.7460   -3.3300   35.3690 O.2   456  SER456     -0.2717
     90  CB        37.5890   -0.3360   37.2960 C.3   456  SER456      0.2103
     91  OG        37.2990   -0.6100   38.6770 O.3   456  SER456     -0.2182
     92  N         35.8320   -2.4920   37.2590 N.am  457  ALA457     -0.1979
     93  CA        34.7580   -3.4850   37.4030 C.3   457  ALA457      0.1597
     94  C         35.4050   -4.8680   37.3690 C.2   457  ALA457      0.2287
     95  O         36.3880   -5.0970   38.0800 O.2   457  ALA457     -0.2864
     96  CB        33.6890   -3.2460   36.3700 C.3   457  ALA457      0.0319
@<TRIPOS>BOND
     1    58    59    1
     2    59    62    1
     3    59    60    1
     4    83    81   ar
     5    83    85   ar
     6    77    76    1
     7    77    78    2
     8    76    75    1
     9    76    79    1
    10    81    80   ar
    11    67    68    1
    12    67    64    1
    13    63    60   am
    14    63    64    1
    15    60    61    2
    16    85    84   ar
    17    80    79    1
    18    80    82   ar
    19    64    65    1
    20    66    65    2
    21    84    82   ar
    22    65    69   am
    23    56    55   ar
    24    51    50    1
    25    51    52    2
    26    50    49    1
    27    50    53    1
    28    86    87    1
    29    89    88    2
    30    55    57   ar
    31    55    54    1
    32    69    70    1
    33    53    54    1
    34    88    87    1
    35    88    92   am
    36    96    93    1
    37    87    90    1
    38    71    70    1
    39    71    72    2
    40    70    73    1
    41    92    93    1
    42    90    91    1
    43    94    93    1
    44    94    95    2
    45    73    74    1
    46    48    46    1
    47    43    44    1
    48    43    46    1
    49    43    42    1
    50    44    45    2
    51    26    25    1
    52    27    25    1
    53    46    47    1
    54    19    17   ar
    55    19    18   ar
    56    25    24    1
    57     9     8    1
    58    40    41   ar
    59    40    38   ar
    60    17    15   ar
    61    41    39   ar
    62    18    16   ar
    63    24    21    1
    64    38    37   ar
    65     8     7    1
    66    15    16   ar
    67    15    14    1
    68    21    20    1
    69    21    22    1
    70    39    37   ar
    71    31    30    2
    72     7     6    1
    73    37    36    1
    74    20    12   am
    75    29    30    1
    76    29    28    1
    77    23    22    2
    78    14    11    1
    79    30    32   am
    80    13    12    2
    81    12    11    1
    82    32    33    1
    83    36    33    1
    84    33    34    1
    85     2     1    1
    86     2     5    1
    87     2     3    1
    88    11    10    1
    89     6     5    1
    90     4     3    2
    91    34    35    2
