@<TRIPOS>MOLECULE
tmp/5u0mA00.pdb
 102 99 0 0 0
SMALL
GASTEIGER

@<TRIPOS>ATOM
      1  N         30.2980   11.9630   41.0220 N.3   148  ASN148     -0.1225
      2  CA        29.0310   11.5140   40.4550 C.3   148  ASN148      0.1785
      3  C         28.5600   10.2270   41.1220 C.2   148  ASN148      0.2597
      4  O         27.3690   10.0700   41.4190 O.2   148  ASN148     -0.2718
      5  CB        29.1730   11.3240   38.9470 C.3   148  ASN148      0.1169
      6  CG        30.2470   10.3150   38.5830 C.2   148  ASN148      0.2627
      7  OD1       30.9190    9.7590   39.4500 O.2   148  ASN148     -0.2716
      8  ND2       30.3870   10.0480   37.2930 N.am  148  ASN148     -0.0877
      9  N         29.4850    9.2980   41.3690 N.am  149  PHE149     -0.1976
     10  CA        29.2250    8.0680   42.1110 C.3   149  PHE149      0.1639
     11  C         30.2170    8.0210   43.2660 C.2   149  PHE149      0.2290
     12  O         31.2100    7.2790   43.2200 O.2   149  PHE149     -0.2864
     13  CB        29.3380    6.8260   41.2270 C.3   149  PHE149      0.0560
     14  CG        28.1650    6.6200   40.3090 C.ar  149  PHE149     -0.0200
     15  CD1       27.0120    6.0000   40.7710 C.ar  149  PHE149     -0.0042
     16  CD2       28.2100    7.0370   38.9910 C.ar  149  PHE149     -0.0042
     17  CE1       25.9260    5.8000   39.9380 C.ar  149  PHE149     -0.0003
     18  CE2       27.1260    6.8420   38.1510 C.ar  149  PHE149     -0.0003
     19  CZ        25.9830    6.2220   38.6270 C.ar  149  PHE149     -0.0000
     20  N         29.7120    3.9810   44.4370 N.3   152  HIS152     -0.1226
     21  CA        29.9560    2.8130   43.5940 C.3   152  HIS152      0.1752
     22  C         31.4020    2.7280   43.1270 C.2   152  HIS152      0.2595
     23  O         32.0380    1.6800   43.2600 O.2   152  HIS152     -0.2718
     24  CB        29.0410    2.8110   42.3760 C.3   152  HIS152      0.0759
     25  CG        29.4190    1.7700   41.3680 C.ar  152  HIS152      0.0818
     26  ND1       29.1930    0.4250   41.5650 N.ar  152  HIS152     -0.2268
     27  CD2       30.0620    1.8720   40.1810 C.ar  152  HIS152      0.1154
     28  CE1       29.6520   -0.2530   40.5280 C.ar  152  HIS152      0.1986
     29  NE2       30.1860    0.6020   39.6750 N.ar  152  HIS152     -0.2212
     30  N         31.9260    3.8090   42.5300 N.am  153  LEU153     -0.1980
     31  CA        33.2450    3.7280   41.9000 C.3   153  LEU153      0.1596
     32  C         34.3480    3.5460   42.9300 C.2   153  LEU153      0.2287
     33  O         35.1160    2.5670   42.8360 O.2   153  LEU153     -0.2864
     34  CB        33.4790    4.9580   41.0210 C.3   153  LEU153      0.0297
     35  CG        32.5820    5.0320   39.7860 C.3   153  LEU153      0.0022
     36  CD1       32.7180    6.3740   39.0910 C.3   153  LEU153      0.0001
     37  CD2       32.9310    3.8950   38.8350 C.3   153  LEU153      0.0001
     38  N         26.8300   10.3420   34.2840 N.3   279  ARG279     -0.1231
     39  CA        27.4550    9.0290   34.2730 C.3   279  ARG279      0.1694
     40  C         28.5290    9.0030   33.1970 C.2   279  ARG279      0.2592
     41  O         28.2800    9.3870   32.0480 O.2   279  ARG279     -0.2718
     42  CB        26.4330    7.9160   34.0400 C.3   279  ARG279      0.0321
     43  CG        25.5090    7.6790   35.2210 C.3   279  ARG279      0.0489
     44  CD        24.6880    6.4150   35.0350 C.3   279  ARG279      0.2205
     45  NE        23.8520    6.1340   36.1970 N.pl3 279  ARG279     -0.0865
     46  CZ        23.0760    5.0620   36.3190 C.cat 279  ARG279      0.5346
     47  NH1       23.0310    4.1590   35.3490 N.pl3 279  ARG279      0.1354
     48  NH2       22.3460    4.8910   37.4140 N.pl3 279  ARG279      0.1354
     49  N         29.7280    8.5660   33.5790 N.am  280  CYS280     -0.1956
     50  CA        30.8640    8.6100   32.6680 C.3   280  CYS280      0.1843
     51  C         30.6150    7.8490   31.3720 C.2   280  CYS280      0.2626
     52  O         31.2610    8.1460   30.3630 O.2   280  CYS280     -0.2714
     53  CB        32.0960    8.0650   33.3780 C.3   280  CYS280      0.0997
     54  SG        31.8320    6.4430   34.1020 S.3   280  CYS280     -0.0797
     55  N         29.6920    6.8890   31.3690 N.am  281  THR281     -0.1950
     56  CA        29.3330    6.1700   30.1550 C.3   281  THR281      0.1897
     57  C         28.1680    6.8130   29.4150 C.2   281  THR281      0.2313
     58  O         27.5940    6.1800   28.5260 O.2   281  THR281     -0.2863
     59  CB        28.9870    4.7100   30.4660 C.3   281  THR281      0.1794
     60  OG1       27.8060    4.6530   31.2770 O.3   281  THR281     -0.2208
     61  CG2       30.1420    4.0320   31.1880 C.3   281  THR281      0.0378
     62  N         23.6090    3.1470   26.8870 N.3   435  LEU435     -0.1231
     63  CA        25.0440    3.1930   27.1520 C.3   435  LEU435      0.1693
     64  C         25.3190    3.0960   28.6470 C.2   435  LEU435      0.2593
     65  O         26.3090    2.4850   29.0700 O.2   435  LEU435     -0.2718
     66  CB        25.6530    4.4670   26.5670 C.3   435  LEU435      0.0284
     67  CG        25.6470    4.5880   25.0410 C.3   435  LEU435      0.0019
     68  CD1       26.2680    5.9090   24.6130 C.3   435  LEU435      0.0001
     69  CD2       26.3570    3.4170   24.3830 C.3   435  LEU435      0.0001
     70  N         24.4530    3.6930   29.4580 N.am  436  THR436     -0.1939
     71  CA        24.5260    3.5340   30.8970 C.3   436  THR436      0.2028
     72  C         24.2300    2.0800   31.2690 C.2   436  THR436      0.2643
     73  O         23.9810    1.2240   30.4150 O.2   436  THR436     -0.2714
     74  CB        23.5570    4.4960   31.5750 C.3   436  THR436      0.1808
     75  OG1       22.2160    4.1890   31.1690 O.3   436  THR436     -0.2208
     76  CG2       23.8850    5.9280   31.1750 C.3   436  THR436      0.0379
     77  N         24.2740    1.7920   32.5650 N.am  437  GLY437     -0.1939
     78  CA        24.0080    0.4490   33.0430 C.3   437  GLY437      0.2014
     79  C         25.0300   -0.5680   32.5810 C.2   437  GLY437      0.2638
     80  O         24.6800   -1.5830   31.9710 O.2   437  GLY437     -0.2714
     81  N         26.2990   -0.3160   32.8890 N.am  438  ALA438     -0.1977
     82  CA        27.3460   -1.2670   32.5680 C.3   438  ALA438      0.1597
     83  C         27.1530   -2.5490   33.3730 C.2   438  ALA438      0.2287
     84  O         26.2760   -2.6490   34.2360 O.2   438  ALA438     -0.2864
     85  CB        28.7200   -0.6630   32.8470 C.3   438  ALA438      0.0319
     86  N         29.0860   -4.9870   35.9030 N.3   440  SER440     -0.1217
     87  CA        30.2320   -5.2470   36.7620 C.3   440  SER440      0.1889
     88  C         30.8220   -6.6300   36.5260 C.2   440  SER440      0.2288
     89  O         31.9510   -6.8890   36.9570 O.2   440  SER440     -0.2866
     90  CB        29.8200   -5.0940   38.2250 C.3   440  SER440      0.2089
     91  OG        28.8580   -6.0750   38.5770 O.3   440  SER440     -0.2183
     92  N         35.7560   -3.0720   32.3570 N.3   444  PHE444     -0.1241
     93  CA        35.2730   -1.7100   32.1730 C.3   444  PHE444      0.1605
     94  C         36.4630   -0.7650   32.0590 C.2   444  PHE444      0.2264
     95  O         36.8620   -0.1280   33.0400 O.2   444  PHE444     -0.2867
     96  CB        34.3610   -1.3050   33.3330 C.3   444  PHE444      0.0534
     97  CG        33.7800    0.0730   33.2020 C.ar  444  PHE444     -0.0203
     98  CD1       32.6790    0.3030   32.3960 C.ar  444  PHE444     -0.0042
     99  CD2       34.3390    1.1420   33.8860 C.ar  444  PHE444     -0.0042
    100  CE1       32.1400    1.5770   32.2790 C.ar  444  PHE444     -0.0003
    101  CE2       33.8080    2.4170   33.7710 C.ar  444  PHE444     -0.0003
    102  CZ        32.7080    2.6340   32.9680 C.ar  444  PHE444     -0.0000
@<TRIPOS>BOND
     1    69    67    1
     2    68    67    1
     3    67    66    1
     4    66    63    1
     5    62    63    1
     6    63    64    1
     7    58    57    2
     8    64    65    2
     9    64    70   am
    10    57    56    1
    11    70    71    1
    12    56    59    1
    13    56    55    1
    14    52    51    2
    15    73    72    2
    16    59    61    1
    17    59    60    1
    18    71    72    1
    19    71    74    1
    20    75    74    1
    21    76    74    1
    22    72    77   am
    23    55    51   am
    24    51    50    1
    25    80    79    2
    26    41    40    2
    27    94    93    1
    28    94    95    2
    29    93    92    1
    30    93    96    1
    31   100    98   ar
    32   100   102   ar
    33    98    97   ar
    34    77    78    1
    35    82    85    1
    36    82    81    1
    37    82    83    1
    38    79    81   am
    39    79    78    1
    40    50    53    1
    41    50    49    1
    42   102   101   ar
    43    40    49   am
    44    40    39    1
    45    97    96    1
    46    97    99   ar
    47    83    84    2
    48    53    54    1
    49   101    99   ar
    50    42    39    1
    51    42    43    1
    52    39    38    1
    53    44    43    1
    54    44    45    1
    55    47    46    1
    56    86    87    1
    57    45    46    2
    58    46    48    1
    59    88    87    1
    60    88    89    2
    61    87    90    1
    62     8     6   am
    63    18    19   ar
    64    18    16   ar
    65    90    91    1
    66     6     5    1
    67     6     7    2
    68    19    17   ar
    69    37    35    1
    70     5     2    1
    71    16    14   ar
    72    36    35    1
    73    29    27   ar
    74    29    28   ar
    75    35    34    1
    76    17    15   ar
    77    27    25   ar
    78    14    15   ar
    79    14    13    1
    80     2     1    1
    81     2     3    1
    82    28    26   ar
    83    34    31    1
    84     3     9   am
    85     3     4    2
    86    13    10    1
    87    25    26   ar
    88    25    24    1
    89     9    10    1
    90    31    30    1
    91    31    32    1
    92    10    11    1
    93    24    21    1
    94    30    22   am
    95    33    32    2
    96    22    23    2
    97    22    21    1
    98    12    11    2
    99    21    20    1
