@<TRIPOS>MOLECULE
tmp/5u0nA01.pdb
 175 168 0 0 0
SMALL
GASTEIGER

@<TRIPOS>ATOM
      1  N         52.8800   82.3830   19.2800 N.3    94  ASP94      -0.1225
      2  CA        54.2300   82.9190   19.1500 C.3    94  ASP94       0.1805
      3  C         54.4880   83.9210   20.2750 C.2    94  ASP94       0.2598
      4  O         53.8630   84.9770   20.3200 O.2    94  ASP94      -0.2718
      5  CB        54.3910   83.5810   17.7790 C.3    94  ASP94       0.1424
      6  CG        55.8000   84.0960   17.5190 C.2    94  ASP94       0.3668
      7  OD1       56.6740   84.0430   18.4110 O.co2  94  ASP94      -0.2456
      8  OD2       56.0300   84.5700   16.3930 O.co2  94  ASP94      -0.2456
      9  N         55.3750   83.5820   21.2050 N.am   95  VAL95      -0.1966
     10  CA        55.6430   84.4860   22.3170 C.3    95  VAL95       0.1727
     11  C         57.1290   84.5950   22.5290 C.2    95  VAL95       0.2616
     12  O         57.8930   83.7490   22.0620 O.2    95  VAL95      -0.2715
     13  CB        54.9850   84.0300   23.6310 C.3    95  VAL95       0.0290
     14  CG1       53.4650   84.0470   23.5090 C.3    95  VAL95       0.0023
     15  CG2       55.4980   82.6430   24.0280 C.3    95  VAL95       0.0023
     16  N         57.5390   85.6350   23.2430 N.am   96  GLU96      -0.1963
     17  CA        58.9640   85.8930   23.4330 C.3    96  GLU96       0.1733
     18  C         59.6300   84.7540   24.2140 C.2    96  GLU96       0.2616
     19  O         58.9840   84.0160   24.9690 O.2    96  GLU96      -0.2715
     20  CB        59.1820   87.2390   24.1350 C.3    96  GLU96       0.0429
     21  CG        58.4410   87.3630   25.4260 C.3    96  GLU96       0.1163
     22  CD        57.0700   88.0170   25.2850 C.2    96  GLU96       0.3649
     23  OE1       56.4150   87.9070   24.2060 O.co2  96  GLU96      -0.2457
     24  OE2       56.6430   88.6220   26.2910 O.co2  96  GLU96      -0.2457
     25  N         60.9270   84.6090   24.0000 N.am   97  GLU97      -0.1977
     26  CA        61.6910   83.5030   24.5490 C.3    97  GLU97       0.1602
     27  C         61.5820   83.3680   26.0720 C.2    97  GLU97       0.2287
     28  O         61.6010   82.2570   26.6110 O.2    97  GLU97      -0.2864
     29  CB        63.1540   83.6580   24.1260 C.3    97  GLU97       0.0415
     30  CG        63.3400   83.4670   22.6140 C.3    97  GLU97       0.1163
     31  CD        63.0780   82.0220   22.1920 C.2    97  GLU97       0.3649
     32  OE1       63.4510   81.1260   22.9760 O.co2  97  GLU97      -0.2457
     33  OE2       62.4980   81.7710   21.1020 O.co2  97  GLU97      -0.2457
     34  N         58.5060   81.3220   27.4370 N.3   100  GLN100     -0.1245
     35  CA        58.3120   79.9790   26.9330 C.3   100  GLN100      0.1566
     36  C         58.6310   78.8970   27.9790 C.2   100  GLN100      0.2260
     37  O         59.6920   78.8850   28.5890 O.2   100  GLN100     -0.2867
     38  CB        59.1790   79.7600   25.7040 C.3   100  GLN100      0.0367
     39  CG        58.8470   80.6720   24.5260 C.3   100  GLN100      0.0905
     40  CD        59.8610   80.5290   23.4140 C.2   100  GLN100      0.2608
     41  OE1       60.7230   79.6670   23.4810 O.2   100  GLN100     -0.2717
     42  NE2       59.7620   81.3710   22.3870 N.am  100  GLN100     -0.0878
     43  N         57.6330   75.1790   18.6450 N.3   106  ASP106     -0.1239
     44  CA        57.7620   76.0990   17.5040 C.3   106  ASP106      0.1674
     45  C         56.3640   76.4620   16.9860 C.2   106  ASP106      0.2266
     46  O         55.5950   75.5820   16.5970 O.2   106  ASP106     -0.2867
     47  CB        58.6170   75.4410   16.4080 C.3   106  ASP106      0.1410
     48  CG        58.9260   76.3640   15.2370 C.2   106  ASP106      0.3668
     49  OD1       58.0220   77.0770   14.7420 O.co2 106  ASP106     -0.2456
     50  OD2       60.0990   76.3480   14.7840 O.co2 106  ASP106     -0.2456
     51  N         57.2090   79.4340   13.0680 N.3   109  TRP109     -0.1227
     52  CA        57.9590   80.6150   12.6680 C.3   109  TRP109      0.1737
     53  C         58.2210   80.6070   11.1630 C.2   109  TRP109      0.2595
     54  O         57.9730   81.6060   10.4890 O.2   109  TRP109     -0.2718
     55  CB        59.2820   80.7130   13.4410 C.3   109  TRP109      0.0564
     56  CG        59.1050   81.1610   14.8590 C.ar  109  TRP109      0.0003
     57  CD1       58.3990   82.2460   15.2900 C.ar  109  TRP109      0.0946
     58  CD2       59.6320   80.5320   16.0330 C.ar  109  TRP109      0.0152
     59  NE1       58.4520   82.3330   16.6660 N.ar  109  TRP109     -0.2442
     60  CE2       59.2150   81.2970   17.1470 C.ar  109  TRP109      0.0810
     61  CE3       60.4330   79.4030   16.2520 C.ar  109  TRP109      0.0012
     62  CZ2       59.5540   80.9740   18.4580 C.ar  109  TRP109      0.0191
     63  CZ3       60.7820   79.0730   17.5670 C.ar  109  TRP109      0.0001
     64  CH2       60.3330   79.8580   18.6510 C.ar  109  TRP109      0.0015
     65  N         58.6840   79.4730   10.6400 N.am  110  GLU110     -0.1979
     66  CA        59.1380   79.3910    9.2560 C.3   110  GLU110      0.1602
     67  C         58.4580   78.3250    8.3790 C.2   110  GLU110      0.2287
     68  O         58.7070   78.2690    7.1730 O.2   110  GLU110     -0.2864
     69  CB        60.6440   79.1440    9.2410 C.3   110  GLU110      0.0415
     70  CG        61.4230   80.2620    9.8840 C.3   110  GLU110      0.1163
     71  CD        62.8510   80.2770    9.4270 C.2   110  GLU110      0.3649
     72  OE1       63.7350   79.9920   10.2590 O.co2 110  GLU110     -0.2457
     73  OE2       63.0800   80.5550    8.2300 O.co2 110  GLU110     -0.2457
     74  N         63.9160   71.2670   10.1240 N.3   193  ASN193     -0.1225
     75  CA        63.8110   72.6710   10.5170 C.3   193  ASN193      0.1785
     76  C         64.6000   72.8000   11.8150 C.2   193  ASN193      0.2598
     77  O         64.0390   72.7440   12.9140 O.2   193  ASN193     -0.2718
     78  CB        62.3460   73.1130   10.6590 C.3   193  ASN193      0.1169
     79  CG        62.1940   74.6030   11.0150 C.2   193  ASN193      0.2627
     80  OD1       63.1700   75.3490   11.0950 O.2   193  ASN193     -0.2716
     81  ND2       60.9530   75.0380   11.1910 N.am  193  ASN193     -0.0877
     82  N         65.9180   72.9510   11.6660 N.am  194  SER194     -0.1938
     83  CA        66.8480   72.7940   12.7810 C.3   194  SER194      0.2040
     84  C         66.6100   73.8000   13.9180 C.2   194  SER194      0.2485
     85  O         66.2290   74.9490   13.6710 O.2   194  SER194     -0.2729
     86  CB        68.2870   72.9200   12.2750 C.3   194  SER194      0.2129
     87  OG        68.6220   74.2720   11.9880 O.3   194  SER194     -0.2179
     88  N         66.8140   73.3630   15.1700 N.am  195  PRO195     -0.2715
     89  CA        66.7810   74.3050   16.2950 C.3   195  PRO195      0.1536
     90  C         68.1010   75.0700   16.4110 C.2   195  PRO195      0.2599
     91  O         68.9050   74.8450   17.3320 O.2   195  PRO195     -0.2715
     92  CB        66.5440   73.4000   17.5030 C.3   195  PRO195      0.0310
     93  CG        67.1970   72.1090   17.1230 C.3   195  PRO195      0.0237
     94  CD        67.0610   71.9780   15.6130 C.3   195  PRO195      0.0939
     95  N         68.3390   75.9370   15.4340 N.am  196  THR196     -0.1937
     96  CA        69.4850   76.8290   15.4650 C.3   196  THR196      0.2028
     97  C         69.0280   78.2430   15.1200 C.2   196  THR196      0.2642
     98  O         68.2180   78.4320   14.2110 O.2   196  THR196     -0.2714
     99  CB        70.5880   76.3920   14.4870 C.3   196  THR196      0.1808
    100  OG1       70.0510   76.2910   13.1570 O.3   196  THR196     -0.2208
    101  CG2       71.1900   75.0640   14.9040 C.3   196  THR196      0.0379
    102  N         69.5490   79.2320   15.8400 N.am  197  ASN197     -0.1971
    103  CA        69.2810   80.6220   15.5100 C.3   197  ASN197      0.1688
    104  C         70.4490   81.5440   15.9150 C.2   197  ASN197      0.2292
    105  O         71.4230   81.6600   15.1860 O.2   197  ASN197     -0.2864
    106  CB        67.9620   81.0740   16.1620 C.3   197  ASN197      0.1181
    107  CG        67.4220   82.3750   15.5630 C.2   197  ASN197      0.2629
    108  OD1       67.7970   82.7640   14.4600 O.2   197  ASN197     -0.2716
    109  ND2       66.5400   83.0490   16.2970 N.am  197  ASN197     -0.0877
    110  N         65.0260   74.9100   21.2390 N.3   207  LEU207     -0.1231
    111  CA        64.7920   75.6360   19.9910 C.3   207  LEU207      0.1693
    112  C         66.0570   76.3540   19.5060 C.2   207  LEU207      0.2591
    113  O         66.1260   76.8270   18.3690 O.2   207  LEU207     -0.2718
    114  CB        63.6150   76.5980   20.1650 C.3   207  LEU207      0.0284
    115  CG        62.3030   75.8090   20.3190 C.3   207  LEU207      0.0019
    116  CD1       61.1630   76.6720   20.7960 C.3   207  LEU207      0.0001
    117  CD2       61.9100   75.1390   19.0000 C.3   207  LEU207      0.0001
    118  N         67.0640   76.3980   20.3660 N.am  208  GLU208     -0.1979
    119  CA        68.3800   76.9050   20.0070 C.3   208  GLU208      0.1602
    120  C         69.4160   76.0060   20.6620 C.2   208  GLU208      0.2287
    121  O         69.8660   76.2700   21.7860 O.2   208  GLU208     -0.2864
    122  CB        68.5630   78.3620   20.4450 C.3   208  GLU208      0.0415
    123  CG        67.9310   79.3940   19.5090 C.3   208  GLU208      0.1163
    124  CD        68.0100   80.8120   20.0780 C.2   208  GLU208      0.3649
    125  OE1       67.5480   81.0120   21.2170 O.co2 208  GLU208     -0.2457
    126  OE2       68.5420   81.7150   19.3970 O.co2 208  GLU208     -0.2457
    127  N         66.6120   73.7280    7.1710 N.3   234  ASN234     -0.1240
    128  CA        66.6300   75.1270    7.5500 C.3   234  ASN234      0.1653
    129  C         67.5810   75.3070    8.7230 C.2   234  ASN234      0.2266
    130  O         67.4550   74.6130    9.7350 O.2   234  ASN234     -0.2867
    131  CB        65.2350   75.6340    7.9430 C.3   234  ASN234      0.1155
    132  CG        65.2720   77.0620    8.4990 C.2   234  ASN234      0.2627
    133  OD1       66.0580   77.8890    8.0340 O.2   234  ASN234     -0.2716
    134  ND2       64.4310   77.3500    9.5020 N.am  234  ASN234     -0.0877
    135  N         69.3160   85.3980    4.6400 N.3   268  GLN268     -0.1245
    136  CA        69.5530   86.5260    5.5310 C.3   268  GLN268      0.1566
    137  C         70.9810   86.4960    6.0470 C.2   268  GLN268      0.2260
    138  O         71.5090   85.4200    6.3350 O.2   268  GLN268     -0.2867
    139  CB        68.5750   86.5050    6.7200 C.3   268  GLN268      0.0367
    140  CG        67.0870   86.5220    6.3470 C.3   268  GLN268      0.0905
    141  CD        66.1740   86.2730    7.5470 C.2   268  GLN268      0.2608
    142  OE1       66.5570   85.6210    8.5170 O.2   268  GLN268     -0.2717
    143  NE2       64.9610   86.8030    7.4820 N.am  268  GLN268     -0.0878
    144  N         73.7560   88.4900    8.9320 N.3   270  ARG270     -0.1245
    145  CA        73.9220   89.3670   10.0990 C.3   270  ARG270      0.1563
    146  C         75.3820   89.4270   10.5440 C.2   270  ARG270      0.2260
    147  O         76.0940   88.4290   10.4680 O.2   270  ARG270     -0.2867
    148  CB        73.0760   88.8910   11.2900 C.3   270  ARG270      0.0307
    149  CG        71.5720   88.9990   11.1390 C.3   270  ARG270      0.0489
    150  CD        70.9110   88.4480   12.4010 C.3   270  ARG270      0.2205
    151  NE        69.4750   88.2140   12.2520 N.pl3 270  ARG270     -0.0865
    152  CZ        68.7470   87.5080   13.1150 C.cat 270  ARG270      0.5346
    153  NH1       67.4450   87.3340   12.9150 N.pl3 270  ARG270      0.1354
    154  NH2       69.3240   86.9710   14.1840 N.pl3 270  ARG270      0.1354
    155  N         71.2170   82.8130    7.6790 N.3   280  ARG280     -0.1245
    156  CA        70.1250   81.8530    7.6520 C.3   280  ARG280      0.1563
    157  C         69.8680   81.4550    6.2130 C.2   280  ARG280      0.2260
    158  O         69.8330   82.3050    5.3140 O.2   280  ARG280     -0.2867
    159  CB        68.8380   82.4120    8.2730 C.3   280  ARG280      0.0307
    160  CG        67.6470   81.4820    8.0430 C.3   280  ARG280      0.0489
    161  CD        66.4740   81.7770    8.9410 C.3   280  ARG280      0.2205
    162  NE        66.8040   81.6910   10.3620 N.pl3 280  ARG280     -0.0865
    163  CZ        66.9900   80.5580   11.0310 C.cat 280  ARG280      0.5346
    164  NH1       66.9040   79.3860   10.4090 N.pl3 280  ARG280      0.1354
    165  NH2       67.2780   80.5980   12.3280 N.pl3 280  ARG280      0.1354
    166  N         63.1790   85.2050    2.3610 N.3   300  HIS300     -0.1241
    167  CA        62.4370   85.8750    3.4340 C.3   300  HIS300      0.1621
    168  C         61.9260   87.2370    2.9600 C.2   300  HIS300      0.2264
    169  O         60.7490   87.5640    3.1250 O.2   300  HIS300     -0.2867
    170  CB        63.2910   86.0430    4.6960 C.3   300  HIS300      0.0745
    171  CG        63.5710   84.7530    5.4090 C.ar  300  HIS300      0.0817
    172  ND1       64.7360   84.0330    5.2220 N.ar  300  HIS300     -0.2268
    173  CD2       62.8310   84.0410    6.2890 C.ar  300  HIS300      0.1154
    174  CE1       64.7030   82.9480    5.9690 C.ar  300  HIS300      0.1986
    175  NE2       63.5550   82.9230    6.6250 N.ar  300  HIS300     -0.2212
@<TRIPOS>BOND
     1   166   167    1
     2   168   169    2
     3   168   167    1
     4   167   170    1
     5   135   136    1
     6   170   171    1
     7   172   171   ar
     8   172   174   ar
     9   158   157    2
    10   171   173   ar
    11   136   137    1
    12   136   139    1
    13   174   175   ar
    14   137   138    2
    15   157   156    1
    16   173   175   ar
    17   140   139    1
    18   140   141    1
    19   127   128    1
    20    68    67    2
    21   143   141   am
    22   141   142    2
    23   128   131    1
    24   128   129    1
    25   156   155    1
    26   156   159    1
    27   131   132    1
    28   133   132    2
    29   160   159    1
    30   160   161    1
    31    73    71   ar
    32    67    66    1
    33   132   134   am
    34   129   130    2
    35   144   145    1
    36   161   162    1
    37    69    66    1
    38    69    70    1
    39    66    65    1
    40    71    70    1
    41    71    72   ar
    42   145   146    1
    43   145   148    1
    44    74    75    1
    45   162   163    2
    46   164   163    1
    47   147   146    2
    48    54    53    2
    49    75    78    1
    50    75    76    1
    51    65    53   am
    52    78    79    1
    53    79    80    2
    54    79    81   am
    55   163   165    1
    56   149   148    1
    57   149   150    1
    58    53    52    1
    59    82    76   am
    60    82    83    1
    61    76    77    2
    62    87    86    1
    63   151   150    1
    64   151   152    2
    65    86    83    1
    66    52    51    1
    67    52    55    1
    68    83    84    1
    69   153   152    1
    70   152   154    1
    71   100    99    1
    72    55    56    1
    73    85    84    2
    74    84    88   am
    75    98    97    2
    76   108   107    2
    77    99   101    1
    78    99    96    1
    79    49    48   ar
    80    50    48   ar
    81    56    57   ar
    82    56    58   ar
    83    97    96    1
    84    97   102   am
    85    88    94    1
    86    88    89    1
    87   105   104    2
    88    48    47    1
    89    57    59   ar
    90    95    96    1
    91    95    90   am
    92   103   102    1
    93   103   104    1
    94   103   106    1
    95   107   106    1
    96   107   109   am
    97    94    93    1
    98    58    61   ar
    99    58    60   ar
   100    61    63   ar
   101    89    90    1
   102    89    92    1
   103     8     6   ar
   104    47    44    1
   105    90    91    2
   106    46    45    2
   107    59    60   ar
   108    45    44    1
   109    93    92    1
   110    60    62   ar
   111    44    43    1
   112     6     5    1
   113     6     7   ar
   114    63    64   ar
   115     5     2    1
   116   113   112    2
   117    62    64   ar
   118   117   115    1
   119     2     1    1
   120     2     3    1
   121   126   124   ar
   122   112   111    1
   123   112   118   am
   124   123   124    1
   125   123   122    1
   126   111   114    1
   127   111   110    1
   128   119   118    1
   129   119   122    1
   130   119   120    1
   131   124   125   ar
   132   114   115    1
   133     3     4    2
   134     3     9   am
   135   115   116    1
   136   120   121    2
   137    33    31   ar
   138     9    10    1
   139    12    11    2
   140    31    30    1
   141    31    32   ar
   142    10    11    1
   143    10    13    1
   144    42    40   am
   145    11    16   am
   146    30    29    1
   147    16    17    1
   148    40    41    2
   149    40    39    1
   150    17    20    1
   151    17    18    1
   152    14    13    1
   153    13    15    1
   154    25    18   am
   155    25    26    1
   156    29    26    1
   157    20    21    1
   158    23    22   ar
   159    18    19    2
   160    39    38    1
   161    26    27    1
   162    22    21    1
   163    22    24   ar
   164    38    35    1
   165    27    28    2
   166    35    34    1
   167    35    36    1
   168    36    37    2
