@<TRIPOS>MOLECULE
tmp/5u0tA01.pdb
 164 158 0 0 0
SMALL
GASTEIGER

@<TRIPOS>ATOM
      1  N         -6.3630    8.0290   15.5460 N.3    94  ASP94      -0.1225
      2  CA        -7.5820    7.9860   16.3340 C.3    94  ASP94       0.1805
      3  C         -7.9570    9.4130   16.7640 C.2    94  ASP94       0.2598
      4  O         -7.2190   10.0540   17.5190 O.2    94  ASP94      -0.2718
      5  CB        -7.3780    7.0600   17.5340 C.3    94  ASP94       0.1424
      6  CG        -8.6460    6.8400   18.3380 C.2    94  ASP94       0.3668
      7  OD1       -9.7230    7.3130   17.9090 O.co2  94  ASP94      -0.2456
      8  OD2       -8.5570    6.1700   19.3950 O.co2  94  ASP94      -0.2456
      9  N         -9.0810    9.9170   16.2560 N.am   95  VAL95      -0.1966
     10  CA        -9.5170   11.2890   16.5610 C.3    95  VAL95       0.1727
     11  C        -10.9950   11.3350   16.9240 C.2    95  VAL95       0.2616
     12  O        -11.7430   10.3860   16.6500 O.2    95  VAL95      -0.2715
     13  CB        -9.2610   12.2550   15.3800 C.3    95  VAL95       0.0290
     14  CG1       -7.7740   12.3140   15.0510 C.3    95  VAL95       0.0023
     15  CG2      -10.0810   11.8560   14.1430 C.3    95  VAL95       0.0023
     16  N        -11.4140   12.4450   17.5300 N.am   96  GLU96      -0.1963
     17  CA       -12.7980   12.6080   17.9810 C.3    96  GLU96       0.1733
     18  C        -13.7780   12.5790   16.8060 C.2    96  GLU96       0.2616
     19  O        -13.4220   12.9370   15.6860 O.2    96  GLU96      -0.2715
     20  CB       -12.9500   13.9110   18.7680 C.3    96  GLU96       0.0429
     21  CG       -12.1840   13.9210   20.0920 C.3    96  GLU96       0.1163
     22  CD       -12.1550   15.2930   20.7650 C.2    96  GLU96       0.3649
     23  OE1      -12.9440   16.1840   20.3720 O.co2  96  GLU96      -0.2457
     24  OE2      -11.3370   15.4790   21.6930 O.co2  96  GLU96      -0.2457
     25  N        -15.0070   12.1430   17.0680 N.am   97  GLU97      -0.1977
     26  CA       -15.9990   11.9530   16.0130 C.3    97  GLU97       0.1602
     27  C        -16.2080   13.1970   15.1600 C.2    97  GLU97       0.2287
     28  O        -16.3850   13.0980   13.9420 O.2    97  GLU97      -0.2864
     29  CB       -17.3380   11.5130   16.6070 C.3    97  GLU97       0.0415
     30  CG       -17.3600   10.0700   17.0970 C.3    97  GLU97       0.1163
     31  CD       -17.0750    9.0650   15.9900 C.2    97  GLU97       0.3649
     32  OE1      -17.8030    9.0680   14.9760 O.co2  97  GLU97      -0.2457
     33  OE2      -16.1110    8.2820   16.1330 O.co2  97  GLU97      -0.2457
     34  N        -13.7500   13.7620   12.1070 N.3   100  GLN100     -0.1245
     35  CA       -13.5980   12.6910   11.1250 C.3   100  GLN100      0.1566
     36  C        -14.2380   13.0240    9.7730 C.2   100  GLN100      0.2260
     37  O        -15.4270   13.3340    9.6790 O.2   100  GLN100     -0.2867
     38  CB       -14.1860   11.3870   11.6650 C.3   100  GLN100      0.0367
     39  CG       -13.4830   10.8600   12.9130 C.3   100  GLN100      0.0905
     40  CD       -14.2120    9.6910   13.5410 C.2   100  GLN100      0.2608
     41  OE1      -15.0410    9.0520   12.8970 O.2   100  GLN100     -0.2717
     42  NE2      -13.9150    9.4100   14.8110 N.am  100  GLN100     -0.0878
     43  N        -11.3700    3.4480   10.2460 N.3   106  ASP106     -0.1239
     44  CA       -11.1950    2.8830   11.5900 C.3   106  ASP106      0.1674
     45  C         -9.7020    2.8330   11.9520 C.2   106  ASP106      0.2266
     46  O         -8.9070    2.1650   11.2740 O.2   106  ASP106     -0.2867
     47  CB       -11.8360    1.4840   11.6590 C.3   106  ASP106      0.1410
     48  CG       -11.8260    0.8770   13.0590 C.2   106  ASP106      0.3668
     49  OD1      -10.8110    0.9900   13.7820 O.co2 106  ASP106     -0.2456
     50  OD2      -12.8440    0.2550   13.4310 O.co2 106  ASP106     -0.2456
     51  N         -9.5150    0.5890   16.3720 N.3   109  TRP109     -0.1227
     52  CA       -10.1140    0.6410   17.6980 C.3   109  TRP109      0.1737
     53  C        -10.1070   -0.7470   18.3540 C.2   109  TRP109      0.2595
     54  O         -9.6670   -0.8920   19.4810 O.2   109  TRP109     -0.2718
     55  CB       -11.5420    1.1890   17.6310 C.3   109  TRP109      0.0564
     56  CG       -11.6220    2.6890   17.4520 C.ar  109  TRP109      0.0003
     57  CD1      -10.9240    3.6400   18.1450 C.ar  109  TRP109      0.0946
     58  CD2      -12.4780    3.4010   16.5510 C.ar  109  TRP109      0.0152
     59  NE1      -11.2800    4.8960   17.7130 N.ar  109  TRP109     -0.2442
     60  CE2      -12.2430    4.7780   16.7470 C.ar  109  TRP109      0.0810
     61  CE3      -13.4230    3.0090   15.5990 C.ar  109  TRP109      0.0012
     62  CZ2      -12.9020    5.7630   16.0100 C.ar  109  TRP109      0.0191
     63  CZ3      -14.0880    3.9860   14.8780 C.ar  109  TRP109      0.0001
     64  CH2      -13.8210    5.3480   15.0850 C.ar  109  TRP109      0.0015
     65  N        -10.5770   -1.7670   17.6510 N.am  110  GLU110     -0.1979
     66  CA       -10.7260   -3.0850   18.2840 C.3   110  GLU110      0.1602
     67  C         -9.9850   -4.2160   17.5650 C.2   110  GLU110      0.2287
     68  O         -9.9060   -5.3180   18.0950 O.2   110  GLU110     -0.2864
     69  CB       -12.2150   -3.4520   18.3970 C.3   110  GLU110      0.0415
     70  CG       -12.9810   -2.6580   19.4530 C.3   110  GLU110      0.1163
     71  CD       -14.3470   -3.2550   19.7620 C.2   110  GLU110      0.3649
     72  OE1      -15.3620   -2.7610   19.2180 O.co2 110  GLU110     -0.2457
     73  OE2      -14.4070   -4.2270   20.5480 O.co2 110  GLU110     -0.2457
     74  N        -16.1200   -6.6870   11.2540 N.3   193  ASN193     -0.1225
     75  CA       -16.0580   -5.7180   12.3340 C.3   193  ASN193      0.1785
     76  C        -17.0620   -4.6240   11.9880 C.2   193  ASN193      0.2598
     77  O        -16.7220   -3.6290   11.3400 O.2   193  ASN193     -0.2718
     78  CB       -14.6340   -5.1590   12.5050 C.3   193  ASN193      0.1169
     79  CG       -14.5160   -4.2400   13.7000 C.2   193  ASN193      0.2627
     80  OD1      -15.4850   -4.0460   14.4460 O.2   193  ASN193     -0.2716
     81  ND2      -13.3240   -3.6680   13.9010 N.am  193  ASN193     -0.0877
     82  N        -18.3080   -4.8330   12.4060 N.am  194  SER194     -0.1938
     83  CA       -19.4280   -4.0710   11.8690 C.3   194  SER194      0.2040
     84  C        -19.3780   -2.6320   12.3510 C.2   194  SER194      0.2485
     85  O        -18.9440   -2.3620   13.4730 O.2   194  SER194     -0.2729
     86  CB       -20.7730   -4.7120   12.2620 C.3   194  SER194      0.2129
     87  OG       -21.0220   -4.5620   13.6550 O.3   194  SER194     -0.2179
     88  N        -19.8260   -1.7040   11.4950 N.am  195  PRO195     -0.2715
     89  CA       -19.9630   -0.2980   11.8890 C.3   195  PRO195      0.1536
     90  C        -21.2440   -0.0840   12.6790 C.2   195  PRO195      0.2599
     91  O        -22.2030    0.5230   12.2000 O.2   195  PRO195     -0.2715
     92  CB       -20.0010    0.4340   10.5550 C.3   195  PRO195      0.0310
     93  CG       -20.5910   -0.5520    9.6180 C.3   195  PRO195      0.0237
     94  CD       -20.1940   -1.9190   10.0830 C.3   195  PRO195      0.0939
     95  N        -21.2500   -0.6210   13.8920 N.am  196  THR196     -0.1937
     96  CA       -22.3500   -0.4440   14.8130 C.3   196  THR196      0.2028
     97  C        -21.7640   -0.1540   16.1930 C.2   196  THR196      0.2642
     98  O        -20.7930   -0.7900   16.6320 O.2   196  THR196     -0.2714
     99  CB       -23.2840   -1.6910   14.8880 C.3   196  THR196      0.1808
    100  OG1      -22.5320   -2.8490   15.2790 O.3   196  THR196     -0.2208
    101  CG2      -23.9700   -1.9690   13.5370 C.3   196  THR196      0.0379
    102  N        -22.3570    0.8200   16.8690 N.am  197  ASN197     -0.1971
    103  CA       -21.9590    1.1400   18.2190 C.3   197  ASN197      0.1688
    104  C        -23.1410    1.6790   19.0310 C.2   197  ASN197      0.2292
    105  O        -23.8760    0.9100   19.6390 O.2   197  ASN197     -0.2864
    106  CB       -20.8040    2.1390   18.2070 C.3   197  ASN197      0.1181
    107  CG       -20.1420    2.2570   19.5570 C.2   197  ASN197      0.2629
    108  OD1      -20.3230    1.3970   20.4150 O.2   197  ASN197     -0.2716
    109  ND2      -19.3850    3.3220   19.7630 N.am  197  ASN197     -0.0877
    110  N        -19.2850    4.5740    9.9280 N.3   207  LEU207     -0.1231
    111  CA       -18.7650    3.8010   11.0580 C.3   207  LEU207      0.1693
    112  C        -19.8380    3.5370   12.1150 C.2   207  LEU207      0.2591
    113  O        -19.6570    2.7010   13.0150 O.2   207  LEU207     -0.2718
    114  CB       -17.5590    4.5100   11.6690 C.3   207  LEU207      0.0284
    115  CG       -16.3200    4.4390   10.7540 C.3   207  LEU207      0.0019
    116  CD1      -15.2240    5.3990   11.1870 C.3   207  LEU207      0.0001
    117  CD2      -15.7830    3.0010   10.6830 C.3   207  LEU207      0.0001
    118  N        -20.9640    4.2330   11.9890 N.am  208  GLU208     -0.1979
    119  CA       -22.1610    3.9260   12.7750 C.3   208  GLU208      0.1602
    120  C        -23.3610    3.9530   11.8460 C.2   208  GLU208      0.2287
    121  O        -24.0550    4.9730   11.7270 O.2   208  GLU208     -0.2864
    122  CB       -22.3460    4.9070   13.9300 C.3   208  GLU208      0.0415
    123  CG       -21.4380    4.6180   15.1120 C.3   208  GLU208      0.1163
    124  CD       -21.6130    5.6190   16.2380 C.2   208  GLU208      0.3649
    125  OE1      -21.3820    6.8240   15.9960 O.co2 208  GLU208     -0.2457
    126  OE2      -22.0010    5.1980   17.3520 O.co2 208  GLU208     -0.2457
    127  N        -17.9710   -8.6390   15.0780 N.3   234  ASN234     -0.1240
    128  CA       -17.9880   -7.6940   16.1820 C.3   234  ASN234      0.1653
    129  C        -19.1830   -6.7860   15.9950 C.2   234  ASN234      0.2266
    130  O        -19.3240   -6.1800   14.9330 O.2   234  ASN234     -0.2867
    131  CB       -16.7060   -6.8590   16.2440 C.3   234  ASN234      0.1155
    132  CG       -16.7670   -5.7880   17.3410 C.2   234  ASN234      0.2627
    133  OD1      -17.3760   -6.0060   18.3920 O.2   234  ASN234     -0.2716
    134  ND2      -16.1570   -4.6290   17.0900 N.am  234  ASN234     -0.0877
    135  N        -19.6360   -6.5330   26.8940 N.3   268  GLN268     -0.1245
    136  CA       -20.0340   -5.3160   27.5930 C.3   268  GLN268      0.1566
    137  C        -21.5590   -5.1560   27.5610 C.2   268  GLN268      0.2260
    138  O        -22.2090   -5.4730   26.5640 O.2   268  GLN268     -0.2867
    139  CB       -19.3360   -4.1010   26.9870 C.3   268  GLN268      0.0367
    140  CG       -17.8260   -4.1200   27.1800 C.3   268  GLN268      0.0905
    141  CD       -17.1240   -2.9430   26.5140 C.2   268  GLN268      0.2608
    142  OE1      -17.6350   -2.3580   25.5610 O.2   268  GLN268     -0.2717
    143  NE2      -15.9480   -2.5880   27.0250 N.am  268  GLN268     -0.0878
    144  N        -22.2430   -4.9510   23.6440 N.3   280  ARG280     -0.1245
    145  CA       -21.2220   -5.1900   22.6340 C.3   280  ARG280      0.1563
    146  C        -20.7270   -6.6120   22.8230 C.2   280  ARG280      0.2260
    147  O        -20.5100   -7.0670   23.9630 O.2   280  ARG280     -0.2867
    148  CB       -20.0580   -4.2000   22.7310 C.3   280  ARG280      0.0307
    149  CG       -18.8560   -4.5980   21.8620 C.3   280  ARG280      0.0489
    150  CD       -17.9050   -3.4270   21.6050 C.3   280  ARG280      0.2205
    151  NE       -18.5490   -2.2970   20.9230 N.pl3 280  ARG280     -0.0865
    152  CZ       -18.8820   -2.2730   19.6300 C.cat 280  ARG280      0.5346
    153  NH1      -18.6540   -3.3330   18.8540 N.pl3 280  ARG280      0.1354
    154  NH2      -19.4550   -1.1860   19.1130 N.pl3 280  ARG280      0.1354
    155  N        -13.2790   -7.8830   26.8260 N.3   300  HIS300     -0.1241
    156  CA       -12.6590   -6.5660   26.9280 C.3   300  HIS300      0.1621
    157  C        -11.9450   -6.4350   28.2820 C.2   300  HIS300      0.2264
    158  O        -10.8180   -5.9360   28.3510 O.2   300  HIS300     -0.2867
    159  CB       -13.6800   -5.4330   26.7530 C.3   300  HIS300      0.0745
    160  CG       -14.2360   -5.3200   25.3660 C.ar  300  HIS300      0.0817
    161  ND1      -15.4420   -5.8760   24.9990 N.ar  300  HIS300     -0.2268
    162  CD2      -13.7510   -4.7100   24.2570 C.ar  300  HIS300      0.1154
    163  CE1      -15.6760   -5.6160   23.7250 C.ar  300  HIS300      0.1986
    164  NE2      -14.6620   -4.9140   23.2490 N.ar  300  HIS300     -0.2212
@<TRIPOS>BOND
     1    93    94    1
     2    93    92    1
     3    37    36    2
     4    36    35    1
     5   110   111    1
     6    94    88    1
     7    43    44    1
     8    92    89    1
     9   117   115    1
    10   115   116    1
    11   115   114    1
    12   111   114    1
    13   111   112    1
    14    35    38    1
    15    35    34    1
    16    74    75    1
    17    46    45    2
    18    77    76    2
    19    88    89    1
    20    88    84   am
    21    44    47    1
    22    44    45    1
    23    47    48    1
    24    38    39    1
    25   121   120    2
    26   120   119    1
    27    83    86    1
    28    83    84    1
    29    83    82    1
    30    89    90    1
    31    76    75    1
    32    76    82   am
    33   118   112   am
    34   118   119    1
    35   112   113    2
    36    91    90    2
    37    86    87    1
    38    75    78    1
    39    84    85    2
    40    78    79    1
    41    90    95   am
    42   119   122    1
    43    41    40    2
    44    39    40    1
    45    48    50   ar
    46    48    49   ar
    47   101    99    1
    48    40    42   am
    49    79    81   am
    50    79    80    2
    51    95    96    1
    52   122   123    1
    53    28    27    2
    54    15    13    1
    55    96    99    1
    56    96    97    1
    57    63    64   ar
    58    63    61   ar
    59    99   100    1
    60   130   129    2
    61    32    31   ar
    62    14    13    1
    63   127   128    1
    64    64    62   ar
    65   123   124    1
    66    27    26    1
    67    13    10    1
    68     1     2    1
    69    61    58   ar
    70    19    18    2
    71    31    33   ar
    72    31    30    1
    73   129   128    1
    74   125   124   ar
    75    62    60   ar
    76    26    29    1
    77    26    25    1
    78   128   131    1
    79    97    98    2
    80    97   102   am
    81   124   126   ar
    82   131   132    1
    83     9    10    1
    84     9     3   am
    85     2     3    1
    86     2     5    1
    87    51    52    1
    88    58    60   ar
    89    58    56   ar
    90    10    11    1
    91    29    30    1
    92    12    11    2
    93    60    59   ar
    94     3     4    2
    95    18    25   am
    96    18    17    1
    97   102   103    1
    98    11    16   am
    99   134   132   am
   100   132   133    2
   101    56    55    1
   102    56    57   ar
   103    16    17    1
   104     5     6    1
   105    67    68    2
   106    67    66    1
   107    55    52    1
   108    65    66    1
   109    65    53   am
   110    52    53    1
   111    59    57   ar
   112     7     6   ar
   113    17    20    1
   114   106   103    1
   115   106   107    1
   116   103   104    1
   117    66    69    1
   118     6     8   ar
   119    53    54    2
   120    69    70    1
   121    20    21    1
   122   153   152    1
   123   104   105    2
   124   154   152    1
   125    72    71   ar
   126    70    71    1
   127   107   109   am
   128   107   108    2
   129   152   151    2
   130    71    73   ar
   131    21    22    1
   132    23    22   ar
   133    22    24   ar
   134   151   150    1
   135   150   149    1
   136   149   148    1
   137   145   148    1
   138   145   146    1
   139   145   144    1
   140   146   147    2
   141   164   163   ar
   142   164   162   ar
   143   163   161   ar
   144   162   160   ar
   145   161   160   ar
   146   160   159    1
   147   142   141    2
   148   141   143   am
   149   141   140    1
   150   138   137    2
   151   159   156    1
   152   155   156    1
   153   135   136    1
   154   156   157    1
   155   139   140    1
   156   139   136    1
   157   137   136    1
   158   157   158    2
