@<TRIPOS>MOLECULE
tmp/5u0vB00.pdb
 100 90 0 0 0
SMALL
GASTEIGER

@<TRIPOS>ATOM
      1  N          2.0810   -2.0770    6.8220 N.3    81  ASP81      -0.1239
      2  CA         3.2580   -1.2800    6.4950 C.3    81  ASP81       0.1674
      3  C          3.2630   -1.0400    5.0190 C.2    81  ASP81       0.2266
      4  O          3.7710   -1.8840    4.2810 O.2    81  ASP81      -0.2867
      5  CB         4.5770   -1.9870    6.8080 C.3    81  ASP81       0.1410
      6  CG         4.7440   -2.2870    8.2250 C.2    81  ASP81       0.3668
      7  OD1        4.0620   -1.6060    9.0070 O.co2  81  ASP81      -0.2456
      8  OD2        5.5760   -3.1680    8.5570 O.co2  81  ASP81      -0.2456
      9  N          0.2110    2.0920    8.4480 N.3   100  ASN100     -0.1240
     10  CA         1.4900    2.4740    9.0170 C.3   100  ASN100      0.1653
     11  C          2.4790    2.8100    7.9010 C.2   100  ASN100      0.2266
     12  O          3.1550    1.9250    7.3980 O.2   100  ASN100     -0.2867
     13  CB         2.0670    1.3460    9.8800 C.3   100  ASN100      0.1155
     14  CG         3.4420    1.7100   10.4700 C.2   100  ASN100      0.2627
     15  OD1        3.7350    2.8740   10.7180 O.2   100  ASN100     -0.2716
     16  ND2        4.2760    0.7070   10.6800 N.am  100  ASN100     -0.0877
     17  N          5.7890    4.5920    6.7700 N.3   102  ILE102     -0.1245
     18  CA         7.0080    5.2540    7.1880 C.3   102  ILE102      0.1561
     19  C          7.2890    6.4690    6.3060 C.2   102  ILE102      0.2260
     20  O          8.1370    7.2760    6.6450 O.2   102  ILE102     -0.2867
     21  CB         8.2520    4.3090    7.1510 C.3   102  ILE102      0.0252
     22  CG1        8.5050    3.7810    5.7100 C.3   102  ILE102      0.0019
     23  CG2        8.1000    3.2010    8.1800 C.3   102  ILE102      0.0019
     24  CD1        9.8220    3.0070    5.5590 C.3   102  ILE102      0.0001
     25  N         -0.5580    6.3270   10.7560 N.3   122  CYS122     -0.1235
     26  CA         0.6370    6.6940   11.5070 C.3   122  CYS122      0.1677
     27  C          1.5830    7.4890   10.6280 C.2   122  CYS122      0.2270
     28  O          1.9610    7.0420    9.5320 O.2   122  CYS122     -0.2867
     29  CB         1.3460    5.4470   12.0580 C.3   122  CYS122      0.0956
     30  SG         2.7320    5.8650   13.1950 S.3   122  CYS122     -0.0801
     31  N          5.2630    9.0730   10.3360 N.3   124  MET124     -0.1245
     32  CA         6.5980    8.8650   10.8860 C.3   124  MET124      0.1570
     33  C          7.6080    9.8700   10.3210 C.2   124  MET124      0.2261
     34  O          7.6210   10.1200    9.1200 O.2   124  MET124     -0.2867
     35  CB         7.0950    7.4570   10.5860 C.3   124  MET124      0.0387
     36  CG         8.3530    7.1140   11.4330 C.3   124  MET124      0.0595
     37  SD         9.1120    5.5480   10.9800 S.3   124  MET124     -0.1393
     38  CE        10.1180    6.0860    9.5780 C.3   124  MET124      0.0692
     39  N          4.9250    9.2820   15.1030 N.3   157  ASP157     -0.1239
     40  CA         6.0780    8.4330   15.4140 C.3   157  ASP157      0.1674
     41  C          7.3520    9.2040   15.0370 C.2   157  ASP157      0.2266
     42  O          7.5400    9.5750   13.8860 O.2   157  ASP157     -0.2867
     43  CB         5.9460    7.1110   14.6440 C.3   157  ASP157      0.1410
     44  CG         7.1460    6.1450   14.8200 C.2   157  ASP157      0.3668
     45  OD1        8.2480    6.5280   15.2790 O.co2 157  ASP157     -0.2456
     46  OD2        6.9440    4.9630   14.4670 O.co2 157  ASP157     -0.2456
     47  N         12.5440    6.4250   15.1120 N.3   160  PHE160     -0.1241
     48  CA        13.8880    6.0320   15.5800 C.3   160  PHE160      0.1605
     49  C         14.6190    5.2330   14.5020 C.2   160  PHE160      0.2264
     50  O         14.0280    4.4100   13.8000 O.2   160  PHE160     -0.2867
     51  CB        13.7740    5.2290   16.8740 C.3   160  PHE160      0.0534
     52  CG        13.2710    6.0350   18.0310 C.ar  160  PHE160     -0.0203
     53  CD1       14.1330    6.8940   18.7160 C.ar  160  PHE160     -0.0042
     54  CD2       11.9300    5.9510   18.4390 C.ar  160  PHE160     -0.0042
     55  CE1       13.6910    7.6740   19.8050 C.ar  160  PHE160     -0.0003
     56  CE2       11.4810    6.7170   19.5490 C.ar  160  PHE160     -0.0003
     57  CZ        12.3500    7.5770   20.2210 C.ar  160  PHE160     -0.0000
     58  N         16.5290    4.6750   10.9810 N.3   162  PHE162     -0.1241
     59  CA        16.4200    5.2320    9.6220 C.3   162  PHE162      0.1605
     60  C         17.5320    6.2610    9.4120 C.2   162  PHE162      0.2264
     61  O         17.3050    7.3880    8.9560 O.2   162  PHE162     -0.2867
     62  CB        15.0240    5.8470    9.3910 C.3   162  PHE162      0.0534
     63  CG        13.9000    4.8390    9.4770 C.ar  162  PHE162     -0.0203
     64  CD1       13.5520    4.0790    8.3710 C.ar  162  PHE162     -0.0042
     65  CD2       13.2020    4.6360   10.6680 C.ar  162  PHE162     -0.0042
     66  CE1       12.5450    3.1240    8.4360 C.ar  162  PHE162     -0.0003
     67  CE2       12.2020    3.6880   10.7430 C.ar  162  PHE162     -0.0003
     68  CZ        11.8580    2.9300    9.6300 C.ar  162  PHE162     -0.0000
     69  N          3.5200    6.5170   18.7380 N.3   187  LEU187     -0.1245
     70  CA         3.9390    5.1740   18.3890 C.3   187  LEU187      0.1561
     71  C          5.4600    5.2140   18.2450 C.2   187  LEU187      0.2260
     72  O          6.0110    6.1760   17.6880 O.2   187  LEU187     -0.2867
     73  CB         3.2820    4.7080   17.0820 C.3   187  LEU187      0.0270
     74  CG         3.4730    3.2150   16.6900 C.3   187  LEU187      0.0019
     75  CD1        2.2520    2.6810   15.9460 C.3   187  LEU187      0.0001
     76  CD2        4.6920    3.0400   15.8300 C.3   187  LEU187      0.0001
     77  N          9.2390    2.7810   17.5940 N.3   189  GLY189     -0.1225
     78  CA         9.8360    1.5230   17.2120 C.3   189  GLY189      0.1811
     79  C         11.3280    1.5860   17.4180 C.2   189  GLY189      0.2280
     80  O         12.0380    2.2250   16.6260 O.2   189  GLY189     -0.2866
     81  N         17.1830   -2.2190   17.2030 N.3   193  LYS193     -0.1245
     82  CA        17.8230   -1.2750   16.2820 C.3   193  LYS193      0.1561
     83  C         19.2660   -0.9230   16.6620 C.2   193  LYS193      0.2260
     84  O         19.7720   -1.2480   17.7550 O.2   193  LYS193     -0.2867
     85  CB        16.9940    0.0120   16.1580 C.3   193  LYS193      0.0271
     86  CG        15.7340   -0.2000   15.3010 C.3   193  LYS193      0.0035
     87  CD        14.9010    1.0580   15.0940 C.3   193  LYS193      0.0206
     88  CE        13.7460    0.7270   14.1020 C.3   193  LYS193      0.1093
     89  NZ        12.8280    1.8930   13.9580 N.3   193  LYS193     -0.1314
     90  N          6.2700   -0.7990   19.0860 N.3   227  ARG227     -0.1245
     91  CA         6.4360   -1.7860   18.0180 C.3   227  ARG227      0.1563
     92  C          7.6760   -2.6650   18.2820 C.2   227  ARG227      0.2260
     93  O          8.8070   -2.1610   18.3360 O.2   227  ARG227     -0.2867
     94  CB         6.5610   -1.0520   16.6860 C.3   227  ARG227      0.0307
     95  CG         6.7370   -1.9440   15.4730 C.3   227  ARG227      0.0489
     96  CD         6.8240   -1.0440   14.2340 C.3   227  ARG227      0.2205
     97  NE         6.9260   -1.8560   13.0300 N.pl3 227  ARG227     -0.0865
     98  CZ         8.0520   -2.3760   12.5520 C.cat 227  ARG227      0.5346
     99  NH1        9.2210   -2.1790   13.1550 N.pl3 227  ARG227      0.1354
    100  NH2        7.9990   -3.1030   11.4410 N.pl3 227  ARG227      0.1354
@<TRIPOS>BOND
     1     4     3    2
     2     3     2    1
     3    24    22    1
     4    22    21    1
     5    19    20    2
     6    19    18    1
     7     2     5    1
     8     2     1    1
     9    17    18    1
    10     5     6    1
    11    21    18    1
    12    21    23    1
    13    12    11    2
    14    11    10    1
    15     6     8   ar
    16     6     7   ar
    17    64    66   ar
    18    64    63   ar
    19    66    68   ar
    20     9    10    1
    21    61    60    2
    22    10    13    1
    23    34    33    2
    24    62    63    1
    25    62    59    1
    26    60    59    1
    27    63    65   ar
    28    28    27    2
    29    38    37    1
    30    59    58    1
    31    68    67   ar
    32    13    14    1
    33    33    32    1
    34    31    32    1
    35    14    16   am
    36    14    15    2
    37    35    32    1
    38    35    36    1
    39    27    26    1
    40    65    67   ar
    41    25    26    1
    42    37    36    1
    43   100    98    1
    44    26    29    1
    45    29    30    1
    46    98    97    2
    47    98    99    1
    48    97    96    1
    49    50    49    2
    50    42    41    2
    51    89    88    1
    52    88    87    1
    53    96    95    1
    54    46    44   ar
    55    49    48    1
    56    43    44    1
    57    43    40    1
    58    44    45   ar
    59    41    40    1
    60    87    86    1
    61    39    40    1
    62    47    48    1
    63    86    85    1
    64    95    94    1
    65    48    51    1
    66    76    74    1
    67    75    74    1
    68    85    82    1
    69    82    83    1
    70    82    81    1
    71    80    79    2
    72    83    84    2
    73    94    91    1
    74    74    73    1
    75    51    52    1
    76    73    70    1
    77    78    79    1
    78    78    77    1
    79    72    71    2
    80    91    92    1
    81    91    90    1
    82    52    54   ar
    83    52    53   ar
    84    71    70    1
    85    92    93    2
    86    70    69    1
    87    54    56   ar
    88    53    55   ar
    89    56    57   ar
    90    55    57   ar
