@<TRIPOS>MOLECULE
tmp/5u0wB00.pdb
 107 96 0 0 0
SMALL
GASTEIGER

@<TRIPOS>ATOM
      1  N         26.7360  -17.4840  -14.3320 N.3    52  THR52      -0.1218
      2  CA        27.7870  -16.5140  -14.1000 C.3    52  THR52       0.1862
      3  C         28.7000  -16.9980  -12.9650 C.2    52  THR52       0.2287
      4  O         29.6920  -16.3510  -12.6190 O.2    52  THR52      -0.2866
      5  CB        27.1820  -15.1230  -13.7740 C.3    52  THR52       0.1770
      6  OG1       26.1740  -15.2590  -12.7610 O.3    52  THR52      -0.2211
      7  CG2       26.5360  -14.5130  -15.0270 C.3    52  THR52       0.0375
      8  N         21.0830  -11.7640  -18.4190 N.3    86  ASP86      -0.1239
      9  CA        22.4970  -12.0000  -18.1000 C.3    86  ASP86       0.1674
     10  C         23.1930  -12.6360  -19.2810 C.2    86  ASP86       0.2266
     11  O         23.0300  -13.8330  -19.5050 O.2    86  ASP86      -0.2867
     12  CB        22.6940  -12.9500  -16.9140 C.3    86  ASP86       0.1410
     13  CG        21.9350  -12.5380  -15.6960 C.2    86  ASP86       0.3668
     14  OD1       21.8980  -11.3230  -15.4110 O.co2  86  ASP86      -0.2456
     15  OD2       21.3840  -13.4430  -15.0290 O.co2  86  ASP86      -0.2456
     16  N         22.3710   -7.1400  -18.6980 N.3   105  ASN105     -0.1240
     17  CA        23.0890   -7.2800  -17.4500 C.3   105  ASN105      0.1653
     18  C         24.3160   -8.1250  -17.6680 C.2   105  ASN105      0.2266
     19  O         24.2500   -9.3410  -17.5680 O.2   105  ASN105     -0.2867
     20  CB        22.2020   -7.9170  -16.3780 C.3   105  ASN105      0.1155
     21  CG        22.9300   -8.0710  -15.0720 C.2   105  ASN105      0.2627
     22  OD1       23.7450   -7.2240  -14.7270 O.2   105  ASN105     -0.2716
     23  ND2       22.6640   -9.1570  -14.3480 N.am  105  ASN105     -0.0877
     24  N         27.9390   -9.2820  -16.6030 N.3   107  ILE107     -0.1245
     25  CA        28.9110   -9.3080  -15.5370 C.3   107  ILE107      0.1561
     26  C         30.2800   -8.9320  -16.0860 C.2   107  ILE107      0.2260
     27  O         31.1210   -8.4590  -15.3550 O.2   107  ILE107     -0.2867
     28  CB        28.9200  -10.6490  -14.7880 C.3   107  ILE107      0.0252
     29  CG1       29.0920  -11.8080  -15.7570 C.3   107  ILE107      0.0019
     30  CG2       27.6360  -10.8020  -13.9850 C.3   107  ILE107      0.0019
     31  CD1       30.0220  -12.8790  -15.2490 C.3   107  ILE107      0.0001
     32  N         23.7890   -2.4960  -17.4490 N.3   127  CYS127     -0.1235
     33  CA        24.4020   -2.5450  -16.1260 C.3   127  CYS127      0.1677
     34  C         25.8990   -2.8200  -16.2340 C.2   127  CYS127      0.2270
     35  O         26.3190   -3.8200  -16.8200 O.2   127  CYS127     -0.2867
     36  CB        23.7330   -3.6030  -15.2470 C.3   127  CYS127      0.0956
     37  SG        24.3860   -3.6020  -13.5330 S.3   127  CYS127     -0.0801
     38  N         29.0700   -3.8490  -14.2210 N.3   129  MET129     -0.1245
     39  CA        29.4530   -4.4700  -12.9510 C.3   129  MET129      0.1570
     40  C         30.9630   -4.5640  -12.8230 C.2   129  MET129      0.2261
     41  O         31.6460   -4.8310  -13.8110 O.2   129  MET129     -0.2867
     42  CB        28.8390   -5.8580  -12.8130 C.3   129  MET129      0.0387
     43  CG        28.8000   -6.3430  -11.3820 C.3   129  MET129      0.0595
     44  SD        28.5710   -8.1040  -11.2000 S.3   129  MET129     -0.1393
     45  CE        30.1490   -8.7230  -11.8270 C.3   129  MET129      0.0692
     46  N         27.0620   -1.4050  -10.8010 N.3   166  ASP166     -0.1239
     47  CA        27.0280   -2.4510   -9.8010 C.3   166  ASP166      0.1674
     48  C         28.4450   -2.7500   -9.3080 C.2   166  ASP166      0.2266
     49  O         29.3220   -3.0330  -10.1000 O.2   166  ASP166     -0.2867
     50  CB        26.3770   -3.6920  -10.3950 C.3   166  ASP166      0.1410
     51  CG        26.2550   -4.8210   -9.4090 C.2   166  ASP166      0.3668
     52  OD1       26.9330   -4.7990   -8.3790 O.co2 166  ASP166     -0.2456
     53  OD2       25.4800   -5.7380   -9.6770 O.co2 166  ASP166     -0.2456
     54  N         29.4110   -7.5440   -5.8470 N.3   169  PHE169     -0.1241
     55  CA        29.7160   -8.2240   -4.6060 C.3   169  PHE169      0.1605
     56  C         30.0590   -9.6720   -4.8770 C.2   169  PHE169      0.2264
     57  O         29.3740  -10.3540   -5.6440 O.2   169  PHE169     -0.2867
     58  CB        28.5430   -8.0940   -3.6280 C.3   169  PHE169      0.0534
     59  CG        28.3890   -6.7030   -3.0620 C.ar  169  PHE169     -0.0203
     60  CD1       29.2010   -6.2730   -2.0200 C.ar  169  PHE169     -0.0042
     61  CD2       27.4460   -5.8250   -3.5760 C.ar  169  PHE169     -0.0042
     62  CE1       29.0700   -4.9950   -1.5000 C.ar  169  PHE169     -0.0003
     63  CE2       27.3070   -4.5450   -3.0620 C.ar  169  PHE169     -0.0003
     64  CZ        28.1260   -4.1290   -2.0170 C.ar  169  PHE169     -0.0000
     65  N         32.6520  -10.7400   -6.5290 N.3   171  PHE171     -0.1241
     66  CA        33.3460  -10.9530   -7.8150 C.3   171  PHE171      0.1605
     67  C         34.7840  -10.4470   -7.7690 C.2   171  PHE171      0.2264
     68  O         35.0690   -9.2800   -8.0730 O.2   171  PHE171     -0.2867
     69  CB        32.5890  -10.2910   -8.9770 C.3   171  PHE171      0.0534
     70  CG        31.3580  -11.0470   -9.4090 C.ar  171  PHE171     -0.0203
     71  CD1       31.4510  -12.0760  -10.3380 C.ar  171  PHE171     -0.0042
     72  CD2       30.1050  -10.7250   -8.8970 C.ar  171  PHE171     -0.0042
     73  CE1       30.3200  -12.7800  -10.7430 C.ar  171  PHE171     -0.0003
     74  CE2       28.9730  -11.4210   -9.3000 C.ar  171  PHE171     -0.0003
     75  CZ        29.0810  -12.4500  -10.2260 C.ar  171  PHE171     -0.0000
     76  N         22.8490   -0.8510   -8.6800 N.3   196  LEU196     -0.1245
     77  CA        22.2660   -2.1760   -8.6270 C.3   196  LEU196      0.1561
     78  C         23.2010   -3.0080   -7.7910 C.2   196  LEU196      0.2260
     79  O         24.4050   -2.9370   -7.9850 O.2   196  LEU196     -0.2867
     80  CB        22.1030   -2.7730  -10.0340 C.3   196  LEU196      0.0270
     81  CG        21.3460   -4.0900  -10.2260 C.3   196  LEU196      0.0019
     82  CD1       20.9080   -4.2050  -11.6930 C.3   196  LEU196      0.0001
     83  CD2       22.1730   -5.3060   -9.8410 C.3   196  LEU196      0.0001
     84  N         23.8310   -7.0230   -5.8240 N.3   198  GLY198     -0.1225
     85  CA        23.4040   -8.3860   -5.5990 C.3   198  GLY198      0.1811
     86  C         24.2590   -9.0010   -4.5110 C.2   198  GLY198      0.2280
     87  O         25.4620   -9.1930   -4.6900 O.2   198  GLY198     -0.2866
     88  N         25.2230  -14.8320   -0.8330 N.3   202  LYS202     -0.1245
     89  CA        26.6180  -14.9070   -1.2500 C.3   202  LYS202      0.1561
     90  C         27.5910  -15.2090   -0.1110 C.2   202  LYS202      0.2260
     91  O         27.2050  -15.3690    1.0670 O.2   202  LYS202     -0.2867
     92  CB        27.0230  -13.6090   -1.9550 C.3   202  LYS202      0.0271
     93  CG        26.4070  -13.4970   -3.3550 C.3   202  LYS202      0.0035
     94  CD        26.9860  -12.3440   -4.1530 C.3   202  LYS202      0.0206
     95  CE        26.4630  -12.3930   -5.5950 C.3   202  LYS202      0.1093
     96  NZ        26.8390  -11.1570   -6.3210 N.3   202  LYS202     -0.1314
     97  N         19.0590   -7.3250   -6.3170 N.3   236  ARG236     -0.1245
     98  CA        18.9450   -8.6130   -6.9940 C.3   236  ARG236      0.1563
     99  C         18.9910   -9.7490   -5.9760 C.2   236  ARG236      0.2260
    100  O         19.9780   -9.9020   -5.2630 O.2   236  ARG236     -0.2867
    101  CB        20.0740   -8.7430   -8.0270 C.3   236  ARG236      0.0307
    102  CG        20.1490  -10.0670   -8.7830 C.3   236  ARG236      0.0489
    103  CD        21.3960  -10.0780   -9.6850 C.3   236  ARG236      0.2205
    104  NE        21.4350  -11.2600  -10.5510 N.pl3 236  ARG236     -0.0865
    105  CZ        21.8860  -12.4480  -10.1620 C.cat 236  ARG236      0.5346
    106  NH1       22.3560  -12.6120   -8.9290 N.pl3 236  ARG236      0.1354
    107  NH2       21.8700  -13.4750  -11.0020 N.pl3 236  ARG236      0.1354
@<TRIPOS>BOND
     1    11    10    2
     2    10     9    1
     3    16    17    1
     4     8     9    1
     5     9    12    1
     6    18    19    2
     7    18    17    1
     8    17    20    1
     9    32    33    1
    10    12    13    1
    11    35    34    2
    12    24    25    1
    13    20    21    1
    14    34    33    1
    15    33    36    1
    16    26    25    1
    17    26    27    2
    18    29    31    1
    19    29    28    1
    20    13    14   ar
    21    13    15   ar
    22    25    28    1
    23    36    37    1
    24    21    22    2
    25    21    23   am
    26     7     5    1
    27    28    30    1
    28     1     2    1
    29    38    39    1
    30     2     5    1
    31     2     3    1
    32    41    40    2
    33     5     6    1
    34     3     4    2
    35    39    40    1
    36    39    42    1
    37    42    43    1
    38    45    44    1
    39    82    81    1
    40    43    44    1
    41   107   105    1
    42    46    47    1
    43    73    71   ar
    44    73    75   ar
    45   104   105    2
    46   104   103    1
    47    50    47    1
    48    50    51    1
    49    71    70   ar
    50    81    80    1
    51    81    83    1
    52    75    74   ar
    53   105   106    1
    54    49    48    2
    55    80    77    1
    56    47    48    1
    57   103   102    1
    58    53    51   ar
    59    51    52   ar
    60    70    69    1
    61    70    72   ar
    62    74    72   ar
    63    69    66    1
    64   102   101    1
    65    76    77    1
    66    77    78    1
    67    68    67    2
    68   101    98    1
    69    79    78    2
    70    66    67    1
    71    66    65    1
    72    98    97    1
    73    98    99    1
    74    96    95    1
    75    99   100    2
    76    54    55    1
    77    84    85    1
    78    57    56    2
    79    85    86    1
    80    95    94    1
    81    56    55    1
    82    87    86    2
    83    55    58    1
    84    94    93    1
    85    58    59    1
    86    61    59   ar
    87    61    63   ar
    88    93    92    1
    89    59    60   ar
    90    63    64   ar
    91    60    62   ar
    92    64    62   ar
    93    92    89    1
    94    89    88    1
    95    89    90    1
    96    90    91    2
