@<TRIPOS>MOLECULE
tmp/5u0zA00.pdb
 163 150 0 0 0
SMALL
GASTEIGER

@<TRIPOS>ATOM
      1  N         13.5180   -8.8830   24.1200 N.3    20  ILE20      -0.1245
      2  CA        12.2940   -8.6720   24.8970 C.3    20  ILE20       0.1561
      3  C         11.9290   -9.9860   25.6000 C.2    20  ILE20       0.2260
      4  O         11.8200  -11.0200   24.9590 O.2    20  ILE20      -0.2867
      5  CB        11.1450   -8.1580   23.9750 C.3    20  ILE20       0.0252
      6  CG1       11.5230   -6.7670   23.4360 C.3    20  ILE20       0.0019
      7  CG2        9.7910   -8.0600   24.7070 C.3    20  ILE20       0.0019
      8  CD1       10.7210   -6.2700   22.2520 C.3    20  ILE20       0.0001
      9  N          1.8320   -5.2430   31.0220 N.3    51  SER51      -0.1202
     10  CA         1.6070   -4.9120   29.6070 C.3    51  SER51       0.2020
     11  C          1.1130   -3.4790   29.4580 C.2    51  SER51       0.2619
     12  O          0.5140   -2.8900   30.3720 O.2    51  SER51      -0.2717
     13  CB         0.6160   -5.8520   28.9310 C.3    51  SER51       0.2103
     14  OG        -0.7120   -5.6080   29.3700 O.3    51  SER51      -0.2182
     15  N          1.3560   -2.9430   28.2720 N.am   52  THR52      -0.1938
     16  CA         0.9510   -1.5910   27.9170 C.3    52  THR52       0.2028
     17  C         -0.3260   -1.5920   27.0190 C.2    52  THR52       0.2642
     18  O         -0.5450   -0.6450   26.2430 O.2    52  THR52      -0.2714
     19  CB         2.1430   -0.8760   27.2320 C.3    52  THR52       0.1808
     20  OG1        3.3780   -1.2330   27.8900 O.3    52  THR52      -0.2208
     21  CG2        1.9810    0.6270   27.2690 C.3    52  THR52       0.0379
     22  N         -1.1740   -2.6330   27.1360 N.am   53  ARG53      -0.1963
     23  CA        -2.4500   -2.7100   26.3810 C.3    53  ARG53       0.1714
     24  C         -3.4350   -1.6170   26.8710 C.2    53  ARG53       0.2458
     25  O         -3.8650   -1.6700   28.0240 O.2    53  ARG53      -0.2730
     26  CB        -3.0810   -4.0960   26.5250 C.3    53  ARG53       0.0347
     27  CG        -2.3000   -5.2080   25.8430 C.3    53  ARG53       0.0492
     28  CD        -2.9390   -6.5810   25.9650 C.3    53  ARG53       0.2205
     29  NE        -2.9740   -7.0480   27.3480 N.pl3  53  ARG53      -0.0865
     30  CZ        -4.0580   -7.0380   28.1100 C.cat  53  ARG53       0.5346
     31  NH1       -5.2100   -6.5860   27.6240 N.pl3  53  ARG53       0.1354
     32  NH2       -3.9990   -7.4810   29.3590 N.pl3  53  ARG53       0.1354
     33  N         -3.7840   -0.6250   26.0080 N.am   54  PRO54      -0.2727
     34  CA        -4.5340    0.5680   26.4680 C.3    54  PRO54       0.1402
     35  C         -5.7470    0.3880   27.4160 C.2    54  PRO54       0.2269
     36  O         -5.7370    0.9540   28.5120 O.2    54  PRO54      -0.2865
     37  CB        -4.9270    1.2430   25.1550 C.3    54  PRO54       0.0296
     38  CG        -3.7550    0.9580   24.2670 C.3    54  PRO54       0.0237
     39  CD        -3.3600   -0.4590   24.5950 C.3    54  PRO54       0.0939
     40  N         11.5080   -3.8070   33.1550 N.3    86  ASP86      -0.1239
     41  CA        10.5030   -2.9490   32.5950 C.3    86  ASP86       0.1674
     42  C          9.4090   -2.7200   33.6510 C.2    86  ASP86       0.2266
     43  O          8.4410   -3.4770   33.7790 O.2    86  ASP86      -0.2867
     44  CB         9.9730   -3.6520   31.3440 C.3    86  ASP86       0.1410
     45  CG         9.6560   -2.7120   30.2390 C.2    86  ASP86       0.3668
     46  OD1        8.9650   -1.6820   30.5020 O.co2  86  ASP86      -0.2456
     47  OD2       10.1010   -3.0290   29.1110 O.co2  86  ASP86      -0.2456
     48  N         14.2900    0.2210   33.1180 N.3   105  ASN105     -0.1240
     49  CA        13.7220    0.7210   31.8710 C.3   105  ASN105      0.1653
     50  C         12.2830    1.0740   32.1320 C.2   105  ASN105      0.2266
     51  O         11.4090    0.2050   32.0870 O.2   105  ASN105     -0.2867
     52  CB        13.8410   -0.3300   30.7760 C.3   105  ASN105      0.1155
     53  CG        13.0600    0.0280   29.5310 C.2   105  ASN105      0.2627
     54  OD1       13.1370    1.1530   29.0510 O.2   105  ASN105     -0.2716
     55  ND2       12.2810   -0.9230   29.0130 N.am  105  ASN105     -0.0877
     56  N          9.0580    3.1290   31.0790 N.3   107  ILE107     -0.1245
     57  CA         8.2870    3.8130   30.0670 C.3   107  ILE107      0.1561
     58  C          7.6140    5.0900   30.5920 C.2   107  ILE107      0.2260
     59  O          7.2910    5.9750   29.8150 O.2   107  ILE107     -0.2867
     60  CB         7.2500    2.8770   29.4200 C.3   107  ILE107      0.0252
     61  CG1        6.2480    2.3510   30.4550 C.3   107  ILE107      0.0019
     62  CG2        7.9410    1.7180   28.7040 C.3   107  ILE107      0.0019
     63  CD1        4.9210    3.0550   30.3920 C.3   107  ILE107      0.0001
     64  N         16.6680    4.3470   32.0230 N.3   127  CYS127     -0.1235
     65  CA        16.2550    4.7460   30.6830 C.3   127  CYS127      0.1677
     66  C         15.0360    5.6460   30.8160 C.2   127  CYS127      0.2270
     67  O         14.0720    5.2900   31.4950 O.2   127  CYS127     -0.2867
     68  CB        15.9540    3.5250   29.8180 C.3   127  CYS127      0.0956
     69  SG        15.3750    4.0160   28.1720 S.3   127  CYS127     -0.0801
     70  N         12.1040    7.3710   28.8000 N.3   129  MET129     -0.1245
     71  CA        11.3740    7.2530   27.5430 C.3   129  MET129      0.1570
     72  C         10.3440    8.3560   27.3780 C.2   129  MET129      0.2261
     73  O          9.6260    8.6460   28.2990 O.2   129  MET129     -0.2867
     74  CB        10.6580    5.9100   27.4510 C.3   129  MET129      0.0387
     75  CG        10.2570    5.5690   26.0230 C.3   129  MET129      0.0595
     76  SD         9.1900    4.1230   25.9300 S.3   129  MET129     -0.1393
     77  CE         7.6640    4.9220   26.4560 C.3   129  MET129      0.0692
     78  N         -3.1990    7.4270   25.3150 N.3   138  MET138     -0.1245
     79  CA        -2.1750    8.1230   24.5330 C.3   138  MET138      0.1570
     80  C         -2.3930    8.0240   23.0130 C.2   138  MET138      0.2261
     81  O         -2.1420    9.0040   22.2860 O.2   138  MET138     -0.2867
     82  CB        -0.7830    7.6180   24.8930 C.3   138  MET138      0.0387
     83  CG        -0.5620    6.1290   24.6560 C.3   138  MET138      0.0595
     84  SD         1.0490    5.5650   25.1880 S.3   138  MET138     -0.1393
     85  CE         1.0560    3.9140   24.4850 C.3   138  MET138      0.0692
     86  N         15.2690    7.5040   25.1840 N.3   175  ASP175     -0.1239
     87  CA        14.4750    6.7050   24.2410 C.3   175  ASP175      0.1674
     88  C         13.2790    7.5630   23.8220 C.2   175  ASP175      0.2266
     89  O         12.4690    7.9770   24.6620 O.2   175  ASP175     -0.2867
     90  CB        13.9970    5.4080   24.9230 C.3   175  ASP175      0.1410
     91  CG        13.1950    4.4810   23.9880 C.2   175  ASP175      0.3668
     92  OD1       12.5680    4.9590   23.0170 O.co2 175  ASP175     -0.2456
     93  OD2       13.1810    3.2560   24.2390 O.co2 175  ASP175     -0.2456
     94  N          8.9140    5.1950   20.4930 N.3   178  PHE178     -0.1241
     95  CA         8.1490    5.0150   19.2610 C.3   178  PHE178      0.1605
     96  C          6.8120    4.3510   19.5950 C.2   178  PHE178      0.2264
     97  O          6.7520    3.4130   20.4020 O.2   178  PHE178     -0.2867
     98  CB         8.9310    4.2460   18.2050 C.3   178  PHE178      0.0534
     99  CG        10.1490    4.9790   17.6880 C.ar  178  PHE178     -0.0203
    100  CD1       10.0370    5.9190   16.6890 C.ar  178  PHE178     -0.0042
    101  CD2       11.4140    4.7050   18.1920 C.ar  178  PHE178     -0.0042
    102  CE1       11.1470    6.5740   16.1950 C.ar  178  PHE178     -0.0003
    103  CE2       12.5320    5.3500   17.7000 C.ar  178  PHE178     -0.0003
    104  CZ        12.3860    6.2890   16.7060 C.ar  178  PHE178     -0.0000
    105  N          4.4330    5.5480   21.4560 N.3   180  PHE180     -0.1241
    106  CA         3.8320    6.0160   22.7220 C.3   180  PHE180      0.1605
    107  C          3.2880    7.4390   22.6070 C.2   180  PHE180      0.2264
    108  O          3.9720    8.4170   22.9370 O.2   180  PHE180     -0.2867
    109  CB         4.8480    5.9270   23.8530 C.3   180  PHE180      0.0534
    110  CG         5.1690    4.5190   24.2640 C.ar  180  PHE180     -0.0203
    111  CD1        6.1830    3.8140   23.6380 C.ar  180  PHE180     -0.0042
    112  CD2        4.4680    3.9110   25.2900 C.ar  180  PHE180     -0.0042
    113  CE1        6.5090    2.5350   24.0370 C.ar  180  PHE180     -0.0003
    114  CE2        4.7840    2.6390   25.6910 C.ar  180  PHE180     -0.0003
    115  CZ         5.8080    1.9460   25.0580 C.ar  180  PHE180     -0.0000
    116  N         18.4290    4.5880   23.1690 N.3   205  LEU205     -0.1245
    117  CA        17.7240    3.2990   23.1440 C.3   205  LEU205      0.1561
    118  C         16.4990    3.4830   22.2820 C.2   205  LEU205      0.2260
    119  O         15.8500    4.5420   22.3380 O.2   205  LEU205     -0.2867
    120  CB        17.2910    2.8920   24.5390 C.3   205  LEU205      0.0270
    121  CG        16.9900    1.3970   24.7260 C.3   205  LEU205      0.0019
    122  CD1       17.2090    1.0180   26.1730 C.3   205  LEU205      0.0001
    123  CD2       15.5700    1.0570   24.3820 C.3   205  LEU205      0.0001
    124  N         13.0120    1.2300   20.5320 N.3   207  GLY207     -0.1225
    125  CA        12.1960    0.0400   20.4100 C.3   207  GLY207      0.1811
    126  C         11.1290    0.2800   19.3540 C.2   207  GLY207      0.2280
    127  O         10.1090    0.9330   19.6230 O.2   207  GLY207     -0.2866
    128  N         10.2950   -2.6310   17.3320 N.3   209  SER209     -0.1217
    129  CA        10.1140   -4.0000   16.8870 C.3   209  SER209      0.1889
    130  C          8.6610   -4.3930   16.8440 C.2   209  SER209      0.2288
    131  O          8.0020   -4.3510   17.8490 O.2   209  SER209     -0.2866
    132  CB        10.8520   -4.9750   17.8230 C.3   209  SER209      0.2089
    133  OG        10.5800   -6.3320   17.4780 O.3   209  SER209     -0.2183
    134  N          6.1740   -2.8180   15.8670 N.3   211  LYS211     -0.1245
    135  CA         5.2080   -1.7730   16.2540 C.3   211  LYS211      0.1561
    136  C          4.3500   -1.2790   15.1120 C.2   211  LYS211      0.2260
    137  O          4.5920   -1.5830   13.9370 O.2   211  LYS211     -0.2867
    138  CB         5.9080   -0.5970   16.9350 C.3   211  LYS211      0.0271
    139  CG         6.4780   -0.9990   18.2770 C.3   211  LYS211      0.0035
    140  CD         6.8720    0.1890   19.1170 C.3   211  LYS211      0.0206
    141  CE         7.1920   -0.3170   20.5000 C.3   211  LYS211      0.1093
    142  NZ         7.9140    0.6910   21.2770 N.3   211  LYS211     -0.1314
    143  N         15.9750   -2.5700   20.9950 N.3   245  ARG245     -0.1245
    144  CA        15.1130   -3.4490   21.7610 C.3   245  ARG245      0.1563
    145  C         14.1740   -4.1800   20.7980 C.2   245  ARG245      0.2260
    146  O         13.3600   -3.5410   20.1030 O.2   245  ARG245     -0.2867
    147  CB        14.3170   -2.6070   22.7930 C.3   245  ARG245      0.0307
    148  CG        13.3420   -3.3980   23.6710 C.3   245  ARG245      0.0489
    149  CD        12.5480   -2.4460   24.5440 C.3   245  ARG245      0.2205
    150  NE        11.5790   -3.1310   25.4000 N.pl3 245  ARG245     -0.0865
    151  CZ        10.3510   -3.5100   25.0440 C.cat 245  ARG245      0.5346
    152  NH1        9.8560   -3.2780   23.8220 N.pl3 245  ARG245      0.1354
    153  NH2        9.6000   -4.1310   25.9440 N.pl3 245  ARG245      0.1354
    154  N         12.1470   -8.1720   19.3940 N.3   247  HIS247     -0.1241
    155  CA        11.6730   -9.5530   19.6100 C.3   247  HIS247      0.1621
    156  C         12.5670  -10.6060   18.9620 C.2   247  HIS247      0.2264
    157  O         12.7480  -11.6830   19.5040 O.2   247  HIS247     -0.2867
    158  CB        10.2770   -9.7190   19.0490 C.3   247  HIS247      0.0745
    159  CG         9.2680   -8.8130   19.6690 C.ar  247  HIS247      0.0817
    160  ND1        8.9870   -7.5650   19.1620 N.ar  247  HIS247     -0.2268
    161  CD2        8.4470   -8.9840   20.7330 C.ar  247  HIS247      0.1154
    162  CE1        8.0370   -7.0010   19.8890 C.ar  247  HIS247      0.1986
    163  NE2        7.7030   -7.8350   20.8610 N.ar  247  HIS247     -0.2212
@<TRIPOS>BOND
     1   137   136    2
     2   136   135    1
     3   134   135    1
     4   102   100   ar
     5   102   104   ar
     6   135   138    1
     7   100    99   ar
     8   104   103   ar
     9   130   129    1
    10   130   131    2
    11   129   128    1
    12   129   132    1
    13   138   139    1
    14   133   132    1
    15    99   101   ar
    16    99    98    1
    17   103   101   ar
    18    98    95    1
    19   139   140    1
    20   156   157    2
    21   156   155    1
    22   158   155    1
    23   158   159    1
    24   140   141    1
    25   160   159   ar
    26   160   162   ar
    27    95    96    1
    28    95    94    1
    29   126   127    2
    30   126   125    1
    31   154   155    1
    32    96    97    2
    33   159   161   ar
    34   162   163   ar
    35   146   145    2
    36   125   124    1
    37   141   142    1
    38   161   163   ar
    39   145   144    1
    40   143   144    1
    41   105   106    1
    42   144   147    1
    43     8     6    1
    44   118   119    2
    45   118   117    1
    46    81    80    2
    47   107   106    1
    48   107   108    2
    49   106   109    1
    50   147   148    1
    51    80    79    1
    52    92    91   ar
    53   117   116    1
    54   117   120    1
    55     6     5    1
    56   111   113   ar
    57   111   110   ar
    58   148   149    1
    59   152   151    1
    60    88    87    1
    61    88    89    2
    62   109   110    1
    63     5     7    1
    64     5     2    1
    65    91    93   ar
    66    91    90    1
    67   113   115   ar
    68     1     2    1
    69    87    90    1
    70    87    86    1
    71   110   112   ar
    72    38    39    1
    73    38    37    1
    74   123   121    1
    75    85    84    1
    76    79    82    1
    77    79    78    1
    78   120   121    1
    79   149   150    1
    80    39    33    1
    81    83    82    1
    82    83    84    1
    83   121   122    1
    84     2     3    1
    85     4     3    2
    86   151   150    2
    87   151   153    1
    88   115   114   ar
    89    37    34    1
    90   112   114   ar
    91    27    28    1
    92    27    26    1
    93    76    75    1
    94    76    77    1
    95    28    29    1
    96    33    34    1
    97    33    24   am
    98    75    74    1
    99    18    17    2
   100    23    26    1
   101    23    24    1
   102    23    22    1
   103    34    35    1
   104    24    25    2
   105    17    22   am
   106    17    16    1
   107    19    21    1
   108    19    20    1
   109    19    16    1
   110    29    30    2
   111    72    71    1
   112    72    73    2
   113    35    36    2
   114    74    71    1
   115    71    70    1
   116    31    30    1
   117    16    15    1
   118    30    32    1
   119    69    68    1
   120    15    11   am
   121    62    60    1
   122    13    14    1
   123    13    10    1
   124    55    53   am
   125    54    53    2
   126    47    45   ar
   127    60    57    1
   128    60    61    1
   129    11    10    1
   130    11    12    2
   131    53    52    1
   132    10     9    1
   133    59    58    2
   134    68    65    1
   135    57    58    1
   136    57    56    1
   137    45    46   ar
   138    45    44    1
   139    63    61    1
   140    65    66    1
   141    65    64    1
   142    52    49    1
   143    66    67    2
   144    44    41    1
   145    49    50    1
   146    49    48    1
   147    51    50    2
   148    41    40    1
   149    41    42    1
   150    42    43    2
