@<TRIPOS>MOLECULE
tmp/5u10A00.pdb
 182 171 0 0 0
SMALL
GASTEIGER

@<TRIPOS>ATOM
      1  N        -27.6170   -2.2740  106.5780 N.3    55  THR55      -0.1203
      2  CA       -27.5850   -0.8430  106.3830 C.3    55  THR55       0.1994
      3  C        -28.1350   -0.4730  105.0020 C.2    55  THR55       0.2618
      4  O        -27.9120    0.6370  104.4840 O.2    55  THR55      -0.2717
      5  CB       -26.1610   -0.3240  106.6470 C.3    55  THR55       0.1784
      6  OG1      -26.1960    1.0940  106.7600 O.3    55  THR55      -0.2211
      7  CG2      -25.1840   -0.7390  105.5710 C.3    55  THR55       0.0376
      8  N        -28.9030   -1.4000  104.4330 N.am   56  ARG56      -0.1965
      9  CA       -29.5260   -1.2000  103.1360 C.3    56  ARG56       0.1714
     10  C        -30.7470   -0.2670  103.2230 C.2    56  ARG56       0.2458
     11  O        -31.3470   -0.1380  104.2910 O.2    56  ARG56      -0.2730
     12  CB       -29.9240   -2.5490  102.5350 C.3    56  ARG56       0.0347
     13  CG       -28.7140   -3.3820  102.1690 C.3    56  ARG56       0.0492
     14  CD       -29.1420   -4.7270  101.6330 C.3    56  ARG56       0.2205
     15  NE       -28.0010   -5.5110  101.1810 N.pl3  56  ARG56      -0.0865
     16  CZ       -28.0750   -6.7790  100.7780 C.cat  56  ARG56       0.5346
     17  NH1      -29.2380   -7.4270  100.7610 N.pl3  56  ARG56       0.1354
     18  NH2      -26.9740   -7.4120  100.3860 N.pl3  56  ARG56       0.1354
     19  N        -31.1110    0.3880  102.0910 N.am   57  PRO57      -0.2727
     20  CA       -32.2740    1.2770  102.0990 C.3    57  PRO57       0.1402
     21  C        -33.5030    0.5580  102.6380 C.2    57  PRO57       0.2269
     22  O        -33.7890   -0.5460  102.2080 O.2    57  PRO57      -0.2865
     23  CB       -32.4670    1.6330  100.6130 C.3    57  PRO57       0.0296
     24  CG       -31.1420    1.4030   99.9690 C.3    57  PRO57       0.0237
     25  CD       -30.4750    0.3150  100.7540 C.3    57  PRO57       0.0939
     26  N        -18.5220   -3.4640  111.0450 N.3    89  ASP89      -0.1239
     27  CA       -19.4430   -2.5910  110.3820 C.3    89  ASP89       0.1674
     28  C        -20.5780   -2.3470  111.3750 C.2    89  ASP89       0.2266
     29  O        -21.5760   -3.0440  111.3650 O.2    89  ASP89      -0.2867
     30  CB       -19.8950   -3.2800  109.0900 C.3    89  ASP89       0.1410
     31  CG       -20.5950   -2.3560  108.1420 C.2    89  ASP89       0.3668
     32  OD1      -21.1350   -1.3210  108.5910 O.co2  89  ASP89      -0.2456
     33  OD2      -20.6150   -2.6990  106.9380 O.co2  89  ASP89      -0.2456
     34  N        -15.6840    0.4960  111.2670 N.3   108  ASN108     -0.1240
     35  CA       -16.2200    0.8990  109.9990 C.3   108  ASN108      0.1653
     36  C        -17.6800    1.2220  110.2320 C.2   108  ASN108      0.2266
     37  O        -18.5530    0.3560  110.1520 O.2   108  ASN108     -0.2867
     38  CB       -16.0430   -0.2440  108.9960 C.3   108  ASN108      0.1155
     39  CG       -16.7230    0.0300  107.6760 C.2   108  ASN108      0.2627
     40  OD1      -16.6780    1.1530  107.1750 O.2   108  ASN108     -0.2716
     41  ND2      -17.3470   -0.9910  107.0980 N.am  108  ASN108     -0.0877
     42  N        -20.9290    3.3240  109.1830 N.3   110  ILE110     -0.1245
     43  CA       -21.6460    4.0460  108.1400 C.3   110  ILE110      0.1561
     44  C        -22.2980    5.3390  108.6390 C.2   110  ILE110      0.2260
     45  O        -22.6110    6.2000  107.8310 O.2   110  ILE110     -0.2867
     46  CB       -22.7040    3.1560  107.4280 C.3   110  ILE110      0.0252
     47  CG1      -23.8680    2.7420  108.3570 C.3   110  ILE110      0.0019
     48  CG2      -22.0350    1.9250  106.8200 C.3   110  ILE110      0.0019
     49  CD1      -25.1550    3.5020  108.1390 C.3   110  ILE110      0.0001
     50  N        -13.2160    4.3870  109.9810 N.3   130  CYS130     -0.1235
     51  CA       -13.6740    4.8480  108.6590 C.3   130  CYS130      0.1677
     52  C        -14.8960    5.7370  108.8010 C.2   130  CYS130      0.2270
     53  O        -15.8910    5.3400  109.3940 O.2   130  CYS130     -0.2867
     54  CB       -13.9870    3.6690  107.7290 C.3   130  CYS130      0.0956
     55  SG       -14.4490    4.1880  106.0500 S.3   130  CYS130     -0.0801
     56  N        -17.8370    7.5470  106.8260 N.3   132  MET132     -0.1245
     57  CA       -18.5890    7.4380  105.5890 C.3   132  MET132      0.1570
     58  C        -19.6330    8.5370  105.4650 C.2   132  MET132      0.2261
     59  O        -20.2990    8.8940  106.4330 O.2   132  MET132     -0.2867
     60  CB       -19.2840    6.0710  105.5180 C.3   132  MET132      0.0387
     61  CG       -19.7240    5.6880  104.1100 C.3   132  MET132      0.0595
     62  SD       -20.8820    4.3080  104.0900 S.3   132  MET132     -0.1393
     63  CE       -22.3690    5.2090  104.4730 C.3   132  MET132      0.0692
     64  N        -32.9710    7.2970  103.5520 N.3   141  MET141     -0.1230
     65  CA       -31.9780    7.9670  102.6810 C.3   141  MET141      0.1702
     66  C        -32.2750    7.9300  101.1680 C.2   141  MET141      0.2592
     67  O        -32.0380    8.9230  100.4470 O.2   141  MET141     -0.2718
     68  CB       -30.5820    7.4020  102.9180 C.3   141  MET141      0.0401
     69  CG       -30.4170    5.9360  102.5500 C.3   141  MET141      0.0596
     70  SD       -28.9160    5.2880  103.2580 S.3   141  MET141     -0.1393
     71  CE       -28.9040    3.6010  102.6210 C.3   141  MET141      0.0692
     72  N        -32.8140    6.8070  100.6920 N.am  142  GLN142     -0.1979
     73  CA       -33.1360    6.6740   99.2630 C.3   142  GLN142      0.1601
     74  C        -34.5130    7.2300   98.8370 C.2   142  GLN142      0.2287
     75  O        -34.8510    7.1090   97.6720 O.2   142  GLN142     -0.2864
     76  CB       -32.9380    5.2200   98.7920 C.3   142  GLN142      0.0394
     77  CG       -31.4760    4.8000   98.7650 C.3   142  GLN142      0.0908
     78  CD       -30.5930    5.7650   97.9640 C.2   142  GLN142      0.2608
     79  OE1      -29.6690    6.3620   98.5020 O.2   142  GLN142     -0.2717
     80  NE2      -30.9020    5.9380   96.6800 N.am  142  GLN142     -0.0878
     81  N        -14.7820    7.4860  103.1920 N.3   178  ASP178     -0.1239
     82  CA       -15.6040    6.6940  102.2660 C.3   178  ASP178      0.1674
     83  C        -16.7570    7.5540  101.7900 C.2   178  ASP178      0.2266
     84  O        -17.5990    7.9200  102.5800 O.2   178  ASP178     -0.2867
     85  CB       -16.1280    5.4490  102.9700 C.3   178  ASP178      0.1410
     86  CG       -17.0230    4.5740  102.0700 C.2   178  ASP178      0.3668
     87  OD1      -17.5890    5.0470  101.0690 O.co2 178  ASP178     -0.2456
     88  OD2      -17.1540    3.3990  102.3860 O.co2 178  ASP178     -0.2456
     89  N        -21.1120    5.2960   98.5410 N.3   181  PHE181     -0.1227
     90  CA       -21.8880    5.0290   97.3350 C.3   181  PHE181      0.1736
     91  C        -23.1930    4.3420   97.7360 C.2   181  PHE181      0.2596
     92  O        -23.1900    3.4820   98.6150 O.2   181  PHE181     -0.2718
     93  CB       -21.1090    4.2010   96.3280 C.3   181  PHE181      0.0547
     94  CG       -19.9190    4.9050   95.7650 C.ar  181  PHE181     -0.0202
     95  CD1      -20.0610    5.8100   94.7280 C.ar  181  PHE181     -0.0042
     96  CD2      -18.6470    4.6450   96.2620 C.ar  181  PHE181     -0.0042
     97  CE1      -18.9580    6.4520   94.1980 C.ar  181  PHE181     -0.0003
     98  CE2      -17.5360    5.2860   95.7350 C.ar  181  PHE181     -0.0003
     99  CZ       -17.6940    6.1930   94.7070 C.ar  181  PHE181     -0.0000
    100  N        -24.3080    4.8120   97.1830 N.am  182  GLY182     -0.1942
    101  CA       -25.6550    4.2760   97.4980 C.3   182  GLY182      0.2014
    102  C        -26.3470    4.7800   98.7640 C.2   182  GLY182      0.2638
    103  O        -27.5410    4.4960   98.9850 O.2   182  GLY182     -0.2714
    104  N        -25.6320    5.5520   99.5900 N.am  183  PHE183     -0.1973
    105  CA       -26.1710    6.0360  100.8680 C.3   183  PHE183      0.1639
    106  C        -26.6990    7.4590  100.7380 C.2   183  PHE183      0.2290
    107  O        -26.0130    8.4450  101.0910 O.2   183  PHE183     -0.2864
    108  CB       -25.1210    5.9730  101.9760 C.3   183  PHE183      0.0560
    109  CG       -24.8150    4.5750  102.4520 C.ar  183  PHE183     -0.0200
    110  CD1      -23.8280    3.8240  101.8380 C.ar  183  PHE183     -0.0042
    111  CD2      -25.4900    4.0280  103.5310 C.ar  183  PHE183     -0.0042
    112  CE1      -23.5150    2.5590  102.2860 C.ar  183  PHE183     -0.0003
    113  CE2      -25.1900    2.7600  103.9850 C.ar  183  PHE183     -0.0003
    114  CZ       -24.1990    2.0230  103.3590 C.ar  183  PHE183     -0.0000
    115  N        -11.6850    4.5550  101.1170 N.3   208  LEU208     -0.1245
    116  CA       -12.3240    3.2460  101.1240 C.3   208  LEU208      0.1561
    117  C        -13.5810    3.4360  100.3010 C.2   208  LEU208      0.2260
    118  O        -14.2410    4.4870  100.3840 O.2   208  LEU208     -0.2867
    119  CB       -12.6450    2.7830  102.5520 C.3   208  LEU208      0.0270
    120  CG       -13.2630    1.3950  102.7550 C.3   208  LEU208      0.0019
    121  CD1      -12.8570    0.8440  104.1140 C.3   208  LEU208      0.0001
    122  CD2      -14.7880    1.4100  102.6500 C.3   208  LEU208      0.0001
    123  N        -17.0960    1.2970   98.5080 N.3   210  GLY210     -0.1225
    124  CA       -17.9300    0.1020   98.4100 C.3   210  GLY210      0.1811
    125  C        -19.0290    0.3270   97.3990 C.2   210  GLY210      0.2280
    126  O        -19.9610    1.0640   97.6910 O.2   210  GLY210     -0.2866
    127  N        -22.0420   -4.8110   93.5860 N.3   213  ARG213     -0.1231
    128  CA       -23.4200   -5.2540   93.3530 C.3   213  ARG213      0.1694
    129  C        -24.5020   -4.2140   93.6520 C.2   213  ARG213      0.2592
    130  O        -25.6680   -4.5710   93.7680 O.2   213  ARG213     -0.2718
    131  CB       -23.7290   -6.5400   94.1280 C.3   213  ARG213      0.0321
    132  CG       -22.7800   -7.6850   93.8430 C.3   213  ARG213      0.0489
    133  CD       -23.1960   -8.8950   94.6560 C.3   213  ARG213      0.2205
    134  NE       -22.3290  -10.0400   94.4400 N.pl3 213  ARG213     -0.0865
    135  CZ       -22.4240  -11.1880   95.0980 C.cat 213  ARG213      0.5346
    136  NH1      -23.3510  -11.3670   96.0430 N.pl3 213  ARG213      0.1354
    137  NH2      -21.5660  -12.1570   94.8340 N.pl3 213  ARG213      0.1354
    138  N        -24.1280   -2.9330   93.7240 N.am  214  LYS214     -0.1966
    139  CA       -25.0550   -1.8940   94.1750 C.3   214  LYS214      0.1728
    140  C        -25.9020   -1.3950   93.0270 C.2   214  LYS214      0.2617
    141  O        -25.6010   -1.6130   91.8440 O.2   214  LYS214     -0.2715
    142  CB       -24.3130   -0.7350   94.8650 C.3   214  LYS214      0.0311
    143  CG       -23.6970   -1.1120   96.1990 C.3   214  LYS214      0.0038
    144  CD       -23.2870    0.1090   97.0260 C.3   214  LYS214      0.0206
    145  CE       -22.8250   -0.2990   98.4200 C.3   214  LYS214      0.1093
    146  NZ       -22.3860    0.8350   99.2780 N.3   214  LYS214     -0.1314
    147  N        -26.9740   -0.6990   93.3670 N.am  215  SER215     -0.1936
    148  CA       -27.9180   -0.2710   92.3460 C.3   215  SER215      0.2055
    149  C        -27.3180    0.7130   91.3520 C.2   215  SER215      0.2642
    150  O        -27.8650    0.8710   90.2760 O.2   215  SER215     -0.2714
    151  CB       -29.1860    0.3060   92.9930 C.3   215  SER215      0.2130
    152  OG       -28.8260    1.3210   93.8860 O.3   215  SER215     -0.2179
    153  N        -26.2080    1.3920   91.6890 N.am  216  MET216     -0.1976
    154  CA       -25.5440    2.2710   90.7230 C.3   216  MET216      0.1605
    155  C        -25.0640    1.4710   89.5130 C.2   216  MET216      0.2287
    156  O        -24.9400    2.0130   88.4240 O.2   216  MET216     -0.2864
    157  CB       -24.3820    3.0640   91.3540 C.3   216  MET216      0.0413
    158  CG       -23.1930    2.2520   91.8450 C.3   216  MET216      0.0598
    159  SD       -21.8910    3.2750   92.5930 S.3   216  MET216     -0.1393
    160  CE       -21.1070    3.8870   91.1020 C.3   216  MET216      0.0692
    161  N        -24.1260   -8.6880   88.3430 N.3   228  ARG228     -0.1245
    162  CA       -23.4150   -7.4030   88.4680 C.3   228  ARG228      0.1563
    163  C        -21.9090   -7.5010   88.6210 C.2   228  ARG228      0.2260
    164  O        -21.2450   -6.4670   88.8140 O.2   228  ARG228     -0.2867
    165  CB       -24.0000   -6.6350   89.6510 C.3   228  ARG228      0.0307
    166  CG       -25.3490   -6.0460   89.3210 C.3   228  ARG228      0.0489
    167  CD       -26.0590   -5.5260   90.5450 C.3   228  ARG228      0.2205
    168  NE       -27.4480   -5.2230   90.2000 N.pl3 228  ARG228     -0.0865
    169  CZ       -28.3550   -4.7330   91.0390 C.cat 228  ARG228      0.5346
    170  NH1      -28.0350   -4.4200   92.2860 N.pl3 228  ARG228      0.1354
    171  NH2      -29.5920   -4.5170   90.6010 N.pl3 228  ARG228      0.1354
    172  N        -14.2830   -2.5250   99.0370 N.3   248  ARG248     -0.1245
    173  CA       -15.1590   -3.4100   99.8010 C.3   248  ARG248      0.1563
    174  C        -16.0010   -4.2030   98.8170 C.2   248  ARG248      0.2260
    175  O        -16.7600   -3.6050   98.0540 O.2   248  ARG248     -0.2867
    176  CB       -16.0490   -2.6190  100.7930 C.3   248  ARG248      0.0307
    177  CG       -17.0130   -3.4720  101.6160 C.3   248  ARG248      0.0489
    178  CD       -17.7310   -2.6080  102.6580 C.3   248  ARG248      0.2205
    179  NE       -18.7180   -3.3240  103.4610 N.pl3 248  ARG248     -0.0865
    180  CZ       -19.9510   -3.6680  103.0500 C.cat 248  ARG248      0.5346
    181  NH1      -20.3740   -3.4040  101.8080 N.pl3 248  ARG248      0.1354
    182  NH2      -20.7680   -4.3140  103.8830 N.pl3 248  ARG248      0.1354
@<TRIPOS>BOND
     1   161   162    1
     2   156   155    2
     3   162   163    1
     4   162   165    1
     5   163   164    2
     6   166   165    1
     7   166   167    1
     8   155   154    1
     9   168   167    1
    10   168   169    2
    11   150   149    2
    12   171   169    1
    13   154   157    1
    14   154   153    1
    15   169   170    1
    16   160   159    1
    17   149   153   am
    18   149   148    1
    19   157   158    1
    20   141   140    2
    21   158   159    1
    22   148   151    1
    23   148   147    1
    24   151   152    1
    25   140   147   am
    26   140   139    1
    27   128   127    1
    28   128   129    1
    29   128   131    1
    30   129   138   am
    31   129   130    2
    32   138   139    1
    33   132   131    1
    34   132   133    1
    35   139   142    1
    36    97    99   ar
    37    97    95   ar
    38   134   133    1
    39   134   135    2
    40    99    98   ar
    41    95    94   ar
    42   137   135    1
    43   142   143    1
    44   135   136    1
    45    98    96   ar
    46    94    96   ar
    47    94    93    1
    48   143   144    1
    49    93    90    1
    50    80    78   am
    51   144   145    1
    52   100   101    1
    53   100    91   am
    54    90    91    1
    55    90    89    1
    56   125   126    2
    57   125   124    1
    58   101   102    1
    59    75    74    2
    60    91    92    2
    61    78    79    2
    62    78    77    1
    63   175   174    2
    64   124   123    1
    65   145   146    1
    66   102   103    2
    67   102   104   am
    68    77    76    1
    69    76    73    1
    70   174   173    1
    71    74    73    1
    72   172   173    1
    73    73    72    1
    74   104   105    1
    75   173   176    1
    76    24    23    1
    77    24    25    1
    78   117   118    2
    79   117   116    1
    80    18    16    1
    81    67    66    2
    82    23    20    1
    83    72    66   am
    84   106   105    1
    85   106   107    2
    86    25    19    1
    87    17    16    1
    88    16    15    2
    89   176   177    1
    90   105   108    1
    91    87    86   ar
    92   115   116    1
    93   116   119    1
    94    66    65    1
    95    15    14    1
    96   177   178    1
    97    14    13    1
    98    83    82    1
    99    83    84    2
   100   181   180    1
   101   110   112   ar
   102   110   109   ar
   103   108   109    1
   104    86    88   ar
   105    86    85    1
   106    19    20    1
   107    19    10   am
   108    20    21    1
   109    13    12    1
   110    22    21    2
   111    82    85    1
   112    82    81    1
   113   112   114   ar
   114   109   111   ar
   115    12     9    1
   116    69    68    1
   117    69    70    1
   118   119   120    1
   119    71    70    1
   120   122   120    1
   121   178   179    1
   122    65    68    1
   123    65    64    1
   124   120   121    1
   125   180   179    2
   126   180   182    1
   127     9    10    1
   128     9     8    1
   129    10    11    2
   130   114   113   ar
   131   111   113   ar
   132    62    61    1
   133    62    63    1
   134    61    60    1
   135     8     3   am
   136     4     3    2
   137     3     2    1
   138    58    57    1
   139    58    59    2
   140    60    57    1
   141     7     5    1
   142    57    56    1
   143    55    54    1
   144     2     1    1
   145     2     5    1
   146     5     6    1
   147    48    46    1
   148    33    31   ar
   149    41    39   am
   150    40    39    2
   151    46    43    1
   152    46    47    1
   153    39    38    1
   154    54    51    1
   155    45    44    2
   156    49    47    1
   157    43    44    1
   158    43    42    1
   159    31    32   ar
   160    31    30    1
   161    51    52    1
   162    51    50    1
   163    52    53    2
   164    38    35    1
   165    30    27    1
   166    35    36    1
   167    35    34    1
   168    37    36    2
   169    27    26    1
   170    27    28    1
   171    29    28    2
