@<TRIPOS>MOLECULE
tmp/5u11B00.pdb
 164 152 0 0 0
SMALL
GASTEIGER

@<TRIPOS>ATOM
      1  N         15.6480  -10.2120   -9.4910 N.3    21  ILE21      -0.1245
      2  CA        16.5840  -10.9840  -10.3120 C.3    21  ILE21       0.1561
      3  C         15.7980  -12.1570  -10.9050 C.2    21  ILE21       0.2260
      4  O         15.1770  -12.8780  -10.1820 O.2    21  ILE21      -0.2867
      5  CB        17.7430  -11.5040   -9.4390 C.3    21  ILE21       0.0252
      6  CG1       18.5630  -10.3230   -8.8940 C.3    21  ILE21       0.0019
      7  CG2       18.6330  -12.4610  -10.2210 C.3    21  ILE21       0.0019
      8  CD1       19.3650  -10.6640   -7.6480 C.3    21  ILE21       0.0001
      9  N         20.2360  -13.7770  -13.9480 N.3    50  GLY50      -0.1225
     10  CA        20.3910  -14.5830  -12.7250 C.3    50  GLY50       0.1811
     11  C         21.5640  -15.5750  -12.7920 C.2    50  GLY50       0.2280
     12  O         22.6560  -15.2190  -13.2450 O.2    50  GLY50      -0.2866
     13  N         23.7780  -15.8290  -15.9270 N.3    53  THR53      -0.1203
     14  CA        24.6320  -14.6600  -16.2010 C.3    53  THR53       0.1994
     15  C         25.6090  -14.2940  -15.0720 C.2    53  THR53       0.2618
     16  O         26.3480  -13.3210  -15.1860 O.2    53  THR53      -0.2717
     17  CB        23.7630  -13.4420  -16.6300 C.3    53  THR53       0.1784
     18  OG1       22.8430  -13.0760  -15.5750 O.3    53  THR53      -0.2211
     19  CG2       22.9870  -13.7920  -17.9290 C.3    53  THR53       0.0376
     20  N         25.6690  -15.0890  -14.0050 N.am   54  ARG54      -0.1965
     21  CA        26.6620  -14.8440  -12.9450 C.3    54  ARG54       0.1714
     22  C         28.0970  -14.9770  -13.4610 C.2    54  ARG54       0.2458
     23  O         28.3340  -15.6620  -14.4600 O.2    54  ARG54      -0.2730
     24  CB        26.4520  -15.7710  -11.7500 C.3    54  ARG54       0.0347
     25  CG        25.2610  -15.3580  -10.9020 C.3    54  ARG54       0.0492
     26  CD        25.0500  -16.2910   -9.7140 C.3    54  ARG54       0.2205
     27  NE        26.1510  -16.2270   -8.7480 N.pl3  54  ARG54      -0.0865
     28  CZ        26.1480  -16.8110   -7.5450 C.cat  54  ARG54       0.5346
     29  NH1       25.1020  -17.5250   -7.1170 N.pl3  54  ARG54       0.1354
     30  NH2       27.2070  -16.6720   -6.7520 N.pl3  54  ARG54       0.1354
     31  N         29.0540  -14.2910  -12.8100 N.am   55  PRO55      -0.2727
     32  CA        30.4770  -14.5270  -13.1150 C.3    55  PRO55       0.1402
     33  C         30.9020  -15.9610  -12.8290 C.2    55  PRO55       0.2269
     34  O         30.5870  -16.4980  -11.7600 O.2    55  PRO55      -0.2865
     35  CB        31.2100  -13.5930  -12.1520 C.3    55  PRO55       0.0296
     36  CG        30.2390  -12.5250  -11.8570 C.3    55  PRO55       0.0237
     37  CD        28.8610  -13.0920  -11.9750 C.3    55  PRO55       0.0939
     38  N         20.6650   -8.6800  -18.8400 N.3    87  ASP87      -0.1239
     39  CA        22.0610   -9.0500  -18.5320 C.3    87  ASP87       0.1674
     40  C         22.7240   -9.6210  -19.7550 C.2    87  ASP87       0.2266
     41  O         22.5300  -10.8100  -20.0670 O.2    87  ASP87      -0.2867
     42  CB        22.1510  -10.1720  -17.4700 C.3    87  ASP87       0.1410
     43  CG        21.7800   -9.7190  -16.0950 C.2    87  ASP87       0.3668
     44  OD1       21.6720   -8.5020  -15.8840 O.co2  87  ASP87      -0.2456
     45  OD2       21.6300  -10.6030  -15.2230 O.co2  87  ASP87      -0.2456
     46  N         22.1350   -3.9820  -18.9530 N.3   106  ASN106     -0.1240
     47  CA        22.8920   -4.1860  -17.7430 C.3   106  ASN106      0.1653
     48  C         24.0230   -5.1030  -18.0840 C.2   106  ASN106      0.2266
     49  O         23.8860   -6.3230  -18.0040 O.2   106  ASN106     -0.2867
     50  CB        22.0240   -4.8110  -16.6320 C.3   106  ASN106      0.1155
     51  CG        22.7970   -4.9860  -15.3410 C.2   106  ASN106      0.2627
     52  OD1       23.5090   -4.0790  -14.9290 O.2   106  ASN106     -0.2716
     53  ND2       22.7060   -6.1620  -14.7230 N.am  106  ASN106     -0.0877
     54  N         27.5910   -6.3160  -17.0850 N.3   108  ILE108     -0.1245
     55  CA        28.6300   -6.3340  -16.0240 C.3   108  ILE108      0.1561
     56  C         30.0330   -6.0100  -16.5490 C.2   108  ILE108      0.2260
     57  O         30.8960   -5.5530  -15.7850 O.2   108  ILE108     -0.2867
     58  CB        28.6220   -7.6500  -15.1940 C.3   108  ILE108      0.0252
     59  CG1       28.8320   -8.9030  -16.0550 C.3   108  ILE108      0.0019
     60  CG2       27.3130   -7.7480  -14.4140 C.3   108  ILE108      0.0019
     61  CD1       29.0920  -10.1670  -15.2550 C.3   108  ILE108      0.0001
     62  N         23.5410    0.6120  -17.8250 N.3   128  CYS128     -0.1235
     63  CA        24.2260    0.5550  -16.5270 C.3   128  CYS128      0.1677
     64  C         25.7590    0.3730  -16.6690 C.2   128  CYS128      0.2270
     65  O         26.2290   -0.5070  -17.3730 O.2   128  CYS128     -0.2867
     66  CB        23.6140   -0.5360  -15.6160 C.3   128  CYS128      0.0956
     67  SG        24.2810   -0.4870  -13.9130 S.3   128  CYS128     -0.0801
     68  N         28.8810   -0.6090  -14.6360 N.3   130  MET130     -0.1245
     69  CA        29.2610   -1.2680  -13.3850 C.3   130  MET130      0.1570
     70  C         30.7550   -1.4080  -13.2990 C.2   130  MET130      0.2261
     71  O         31.3680   -1.8090  -14.2510 O.2   130  MET130     -0.2867
     72  CB        28.6290   -2.6490  -13.2590 C.3   130  MET130      0.0387
     73  CG        28.7750   -3.2170  -11.8440 C.3   130  MET130      0.0595
     74  SD        28.3130   -4.9340  -11.6990 S.3   130  MET130     -0.1393
     75  CE        29.7810   -5.7560  -12.3400 C.3   130  MET130      0.0692
     76  N         26.9380    1.8580  -11.2140 N.3   167  ASP167     -0.1239
     77  CA        26.9310    0.7950  -10.2220 C.3   167  ASP167      0.1674
     78  C         28.3740    0.4970   -9.7590 C.2   167  ASP167      0.2266
     79  O         29.1870    0.1220  -10.5660 O.2   167  ASP167     -0.2867
     80  CB        26.2560   -0.4430  -10.8300 C.3   167  ASP167      0.1410
     81  CG        26.1340   -1.6070   -9.8570 C.2   167  ASP167      0.3668
     82  OD1       26.8490   -1.6580   -8.8380 O.co2 167  ASP167     -0.2456
     83  OD2       25.3150   -2.5050  -10.1330 O.co2 167  ASP167     -0.2456
     84  N         29.3860   -4.2210   -6.2660 N.3   170  PHE170     -0.1241
     85  CA        29.7470   -4.9200   -5.0360 C.3   170  PHE170      0.1605
     86  C         30.1000   -6.3630   -5.3660 C.2   170  PHE170      0.2264
     87  O         29.4410   -6.9780   -6.2090 O.2   170  PHE170     -0.2867
     88  CB        28.6050   -4.8390   -4.0090 C.3   170  PHE170      0.0534
     89  CG        28.4500   -3.4640   -3.4390 C.ar  170  PHE170     -0.0203
     90  CD1       29.3510   -2.9930   -2.4740 C.ar  170  PHE170     -0.0042
     91  CD2       27.4630   -2.6070   -3.9130 C.ar  170  PHE170     -0.0042
     92  CE1       29.2370   -1.6910   -1.9940 C.ar  170  PHE170     -0.0003
     93  CE2       27.3300   -1.3230   -3.4280 C.ar  170  PHE170     -0.0003
     94  CZ        28.2330   -0.8560   -2.4690 C.ar  170  PHE170     -0.0000
     95  N         32.7690   -7.4960   -7.0070 N.3   172  PHE172     -0.1241
     96  CA        33.3930   -7.7290   -8.3320 C.3   172  PHE172      0.1605
     97  C         34.8640   -7.2760   -8.3040 C.2   172  PHE172      0.2264
     98  O         35.2060   -6.1250   -8.6590 O.2   172  PHE172     -0.2867
     99  CB        32.6220   -7.0290   -9.4550 C.3   172  PHE172      0.0534
    100  CG        31.3240   -7.7010   -9.8300 C.ar  172  PHE172     -0.0203
    101  CD1       31.3040   -8.7620  -10.7320 C.ar  172  PHE172     -0.0042
    102  CD2       30.1040   -7.2450   -9.3180 C.ar  172  PHE172     -0.0042
    103  CE1       30.0960   -9.3600  -11.0920 C.ar  172  PHE172     -0.0003
    104  CE2       28.9020   -7.8380   -9.6860 C.ar  172  PHE172     -0.0003
    105  CZ        28.8950   -8.8980  -10.5710 C.ar  172  PHE172     -0.0000
    106  N         22.7320    2.3770   -9.0630 N.3   197  LEU197     -0.1245
    107  CA        22.2170    1.0370   -8.9520 C.3   197  LEU197      0.1561
    108  C         23.2000    0.2320   -8.1170 C.2   197  LEU197      0.2260
    109  O         24.4110    0.3440   -8.3110 O.2   197  LEU197     -0.2867
    110  CB        22.0690    0.4100  -10.3490 C.3   197  LEU197      0.0270
    111  CG        21.3050   -0.9040  -10.5040 C.3   197  LEU197      0.0019
    112  CD1       20.7490   -0.9930  -11.9280 C.3   197  LEU197      0.0001
    113  CD2       22.1500   -2.1310  -10.2320 C.3   197  LEU197      0.0001
    114  N         23.8990   -3.7940   -6.1540 N.3   199  GLY199     -0.1225
    115  CA        23.5770   -5.1950   -6.0160 C.3   199  GLY199      0.1811
    116  C         24.4020   -5.8580   -4.9530 C.2   199  GLY199      0.2280
    117  O         25.5390   -6.2370   -5.1900 O.2   199  GLY199     -0.2866
    118  N         22.5910   -8.2270   -2.7150 N.3   201  SER201     -0.1202
    119  CA        21.7480   -9.3560   -2.2890 C.3   201  SER201      0.2020
    120  C         22.5070  -10.7040   -2.2340 C.2   201  SER201      0.2619
    121  O         23.0180  -11.1760   -3.2470 O.2   201  SER201     -0.2717
    122  CB        20.5650   -9.4930   -3.2360 C.3   201  SER201      0.2103
    123  OG        19.6860  -10.5420   -2.8350 O.3   201  SER201     -0.2182
    124  N         22.5850  -11.2850   -1.0290 N.am  202  ARG202     -0.1965
    125  CA        23.1610  -12.6110   -0.7820 C.3   202  ARG202      0.1729
    126  C         24.6290  -12.7600   -1.1760 C.2   202  ARG202      0.2616
    127  O         25.0960  -13.8750   -1.3020 O.2   202  ARG202     -0.2715
    128  CB        22.3380  -13.7060   -1.4950 C.3   202  ARG202      0.0348
    129  CG        20.8930  -13.8030   -1.0610 C.3   202  ARG202      0.0492
    130  CD        20.1670  -14.8210   -1.9230 C.3   202  ARG202      0.2205
    131  NE        18.7500  -14.9440   -1.6020 N.pl3 202  ARG202     -0.0865
    132  CZ        17.9130  -15.7870   -2.2150 C.cat 202  ARG202      0.5346
    133  NH1       18.3480  -16.5870   -3.1830 N.pl3 202  ARG202      0.1354
    134  NH2       16.6350  -15.8370   -1.8600 N.pl3 202  ARG202      0.1354
    135  N         25.3650  -11.6530   -1.3170 N.am  203  LYS203     -0.1977
    136  CA        26.7550  -11.7090   -1.7210 C.3   203  LYS203      0.1596
    137  C         27.6910  -12.0470   -0.5530 C.2   203  LYS203      0.2287
    138  O         27.2880  -12.0900    0.6500 O.2   203  LYS203     -0.2864
    139  CB        27.1770  -10.4320   -2.4310 C.3   203  LYS203      0.0298
    140  CG        26.6390  -10.4120   -3.8580 C.3   203  LYS203      0.0038
    141  CD        27.1910   -9.2450   -4.6390 C.3   203  LYS203      0.0206
    142  CE        26.5820   -9.2210   -6.0420 C.3   203  LYS203      0.1093
    143  NZ        27.0450   -8.0070   -6.7450 N.3   203  LYS203     -0.1314
    144  N         19.0730   -4.0970   -6.6080 N.3   237  ARG237     -0.1245
    145  CA        18.9430   -5.3890   -7.2840 C.3   237  ARG237      0.1563
    146  C         18.9700   -6.5040   -6.2400 C.2   237  ARG237      0.2260
    147  O         19.9490   -6.6040   -5.4940 O.2   237  ARG237     -0.2867
    148  CB        20.1000   -5.5550   -8.2760 C.3   237  ARG237      0.0307
    149  CG        20.0730   -6.8430   -9.0620 C.3   237  ARG237      0.0489
    150  CD        21.2680   -6.9460   -9.9730 C.3   237  ARG237      0.2205
    151  NE        21.2090   -8.1660  -10.7800 N.pl3 237  ARG237     -0.0865
    152  CZ        21.7150   -9.3520  -10.4430 C.cat 237  ARG237      0.5346
    153  NH1       22.3400   -9.5520   -9.2810 N.pl3 237  ARG237      0.1354
    154  NH2       21.5700  -10.3680  -11.2800 N.pl3 237  ARG237      0.1354
    155  N         17.2310  -10.6430   -4.7410 N.3   239  HIS239     -0.1241
    156  CA        16.5020  -11.9170   -4.8760 C.3   239  HIS239      0.1621
    157  C         15.1890  -11.9060   -4.1390 C.2   239  HIS239      0.2264
    158  O         14.2440  -12.5440   -4.5720 O.2   239  HIS239     -0.2867
    159  CB        17.3140  -13.1050   -4.3410 C.3   239  HIS239      0.0745
    160  CG        18.6430  -13.2640   -4.9880 C.ar  239  HIS239      0.0817
    161  ND1       19.7630  -12.5830   -4.5580 N.ar  239  HIS239     -0.2268
    162  CD2       19.0310  -13.9870   -6.0620 C.ar  239  HIS239      0.1154
    163  CE1       20.7950  -12.9060   -5.3200 C.ar  239  HIS239      0.1986
    164  NE2       20.3730  -13.7430   -6.2510 N.ar  239  HIS239     -0.2212
@<TRIPOS>BOND
     1    41    40    2
     2    40    39    1
     3    46    47    1
     4    38    39    1
     5    39    42    1
     6    48    49    2
     7    48    47    1
     8    19    17    1
     9    62    63    1
    10    47    50    1
    11    42    43    1
    12    65    64    2
    13    54    55    1
    14    64    63    1
    15    50    51    1
    16    17    14    1
    17    17    18    1
    18    56    55    1
    19    56    57    2
    20    63    66    1
    21    14    13    1
    22    14    15    1
    23    43    44   ar
    24    43    45   ar
    25    59    61    1
    26    59    58    1
    27    55    58    1
    28    66    67    1
    29    51    52    2
    30    51    53   am
    31    58    60    1
    32    16    15    2
    33    15    20   am
    34    68    69    1
    35    23    22    2
    36    71    70    2
    37    20    21    1
    38     9    10    1
    39    22    21    1
    40    22    31   am
    41    69    70    1
    42    69    72    1
    43    72    73    1
    44    12    11    2
    45    32    33    1
    46    32    31    1
    47    32    35    1
    48    21    24    1
    49    33    34    2
    50    31    37    1
    51    11    10    1
    52    75    74    1
    53    35    36    1
    54    37    36    1
    55   112   111    1
    56    73    74    1
    57    24    25    1
    58   154   152    1
    59    76    77    1
    60   103   101   ar
    61   103   105   ar
    62     3     2    1
    63     3     4    2
    64    25    26    1
    65    80    77    1
    66    80    81    1
    67   151   152    2
    68   151   150    1
    69   101   100   ar
    70   105   104   ar
    71    79    78    2
    72   111   110    1
    73   111   113    1
    74   152   153    1
    75   110   107    1
    76     2     1    1
    77     2     5    1
    78    77    78    1
    79     7     5    1
    80    83    81   ar
    81   150   149    1
    82    81    82   ar
    83   100    99    1
    84   100   102   ar
    85    26    27    1
    86   104   102   ar
    87    99    96    1
    88     5     6    1
    89   106   107    1
    90   149   148    1
    91   107   108    1
    92     6     8    1
    93    27    28    2
    94    98    97    2
    95    96    97    1
    96    96    95    1
    97   109   108    2
    98   148   145    1
    99    28    29    1
   100    28    30    1
   101   145   144    1
   102   145   146    1
   103   143   142    1
   104    84    85    1
   105   164   162   ar
   106   164   163   ar
   107   146   147    2
   108    87    86    2
   109   114   115    1
   110   162   160   ar
   111   142   141    1
   112   115   116    1
   113    86    85    1
   114   163   161   ar
   115   117   116    2
   116    85    88    1
   117   160   161   ar
   118   160   159    1
   119   156   155    1
   120   156   159    1
   121   156   157    1
   122   141   140    1
   123   158   157    2
   124    88    89    1
   125    91    89   ar
   126    91    93   ar
   127   140   139    1
   128    89    90   ar
   129    93    94   ar
   130   121   120    2
   131   122   123    1
   132   122   119    1
   133   133   132    1
   134   118   119    1
   135    90    92   ar
   136    94    92   ar
   137   139   136    1
   138   119   120    1
   139   120   124   am
   140   132   134    1
   141   132   131    2
   142   130   131    1
   143   130   129    1
   144   136   135    1
   145   136   137    1
   146   128   129    1
   147   128   125    1
   148   135   126   am
   149   127   126    2
   150   126   125    1
   151   124   125    1
   152   137   138    2
