@<TRIPOS>MOLECULE
tmp/5u12A00.pdb
 162 153 0 0 0
SMALL
GASTEIGER

@<TRIPOS>ATOM
      1  N         -2.3440  -12.6720   64.6080 N.3    53  THR53      -0.1203
      2  CA        -1.2790  -11.7360   64.9450 C.3    53  THR53       0.1994
      3  C         -0.4720  -12.1440   66.1980 C.2    53  THR53       0.2618
      4  O          0.4090  -11.3900   66.6330 O.2    53  THR53      -0.2717
      5  CB        -1.8560  -10.3120   65.0830 C.3    53  THR53       0.1784
      6  OG1       -3.0610  -10.3530   65.8540 O.3    53  THR53      -0.2211
      7  CG2       -2.1850   -9.7390   63.7110 C.3    53  THR53       0.0376
      8  N         -0.7440  -13.3330   66.7530 N.am   54  ARG54      -0.1965
      9  CA         0.0200  -13.8620   67.8980 C.3    54  ARG54       0.1714
     10  C          1.5020  -14.0370   67.5240 C.2    54  ARG54       0.2458
     11  O          1.8100  -14.2330   66.3420 O.2    54  ARG54      -0.2730
     12  CB        -0.5920  -15.1790   68.4050 C.3    54  ARG54       0.0347
     13  CG        -1.8890  -14.9800   69.1690 C.3    54  ARG54       0.0492
     14  CD        -2.3070  -16.2190   69.9450 C.3    54  ARG54       0.2205
     15  NE        -3.6370  -16.0540   70.5380 N.pl3  54  ARG54      -0.0865
     16  CZ        -4.2970  -16.9870   71.2290 C.cat  54  ARG54       0.5346
     17  NH1       -3.7700  -18.1950   71.4430 N.pl3  54  ARG54       0.1354
     18  NH2       -5.5060  -16.7090   71.7140 N.pl3  54  ARG54       0.1354
     19  N          2.4200  -13.9650   68.5220 N.am   55  PRO55      -0.2727
     20  CA         3.8730  -13.8210   68.2840 C.3    55  PRO55       0.1402
     21  C          4.4390  -14.5850   67.0840 C.2    55  PRO55       0.2269
     22  O          5.1280  -13.9920   66.2490 O.2    55  PRO55      -0.2865
     23  CB         4.4870  -14.3420   69.5860 C.3    55  PRO55       0.0296
     24  CG         3.4830  -13.9810   70.6220 C.3    55  PRO55       0.0237
     25  CD         2.1320  -14.0870   69.9680 C.3    55  PRO55       0.0939
     26  N         -7.9870   -6.5640   60.3270 N.3    87  ASP87      -0.1239
     27  CA        -6.5900   -6.7880   60.7100 C.3    87  ASP87       0.1674
     28  C         -5.9040   -7.5010   59.5880 C.2    87  ASP87       0.2266
     29  O         -6.0250   -8.7270   59.4770 O.2    87  ASP87      -0.2867
     30  CB        -6.4650   -7.7530   61.8990 C.3    87  ASP87       0.1410
     31  CG        -6.8480   -7.1590   63.1880 C.2    87  ASP87       0.3668
     32  OD1       -6.6380   -5.9590   63.4210 O.co2  87  ASP87      -0.2456
     33  OD2       -7.3200   -7.9530   64.0150 O.co2  87  ASP87      -0.2456
     34  N         -6.7160   -1.9580   60.0510 N.3   106  ASN106     -0.1240
     35  CA        -5.9640   -2.0660   61.2850 C.3   106  ASN106      0.1653
     36  C         -4.7810   -3.0070   61.0480 C.2   106  ASN106      0.2266
     37  O         -4.8720   -4.2110   61.2690 O.2   106  ASN106     -0.2867
     38  CB        -6.8720   -2.5760   62.3930 C.3   106  ASN106      0.1155
     39  CG        -6.1350   -2.7650   63.7090 C.2   106  ASN106      0.2627
     40  OD1       -5.1470   -2.0960   63.9680 O.2   106  ASN106     -0.2716
     41  ND2       -6.5880   -3.7050   64.5130 N.am  106  ASN106     -0.0877
     42  N         -1.1550   -4.2700   61.9230 N.3   108  ILE108     -0.1245
     43  CA        -0.1200   -4.3020   62.9540 C.3   108  ILE108      0.1561
     44  C          1.2580   -3.9210   62.4190 C.2   108  ILE108      0.2260
     45  O          2.0950   -3.4390   63.1720 O.2   108  ILE108     -0.2867
     46  CB        -0.0350   -5.6750   63.6350 C.3   108  ILE108      0.0252
     47  CG1        0.2350   -6.7840   62.5990 C.3   108  ILE108      0.0019
     48  CG2       -1.3110   -5.8900   64.4280 C.3   108  ILE108      0.0019
     49  CD1        0.9780   -7.9890   63.1020 C.3   108  ILE108      0.0001
     50  N         -5.2830    2.5500   61.1410 N.3   128  CYS128     -0.1235
     51  CA        -4.6230    2.4980   62.4360 C.3   128  CYS128      0.1677
     52  C         -3.1150    2.2300   62.2520 C.2   128  CYS128      0.2270
     53  O         -2.7330    1.2750   61.5960 O.2   128  CYS128     -0.2867
     54  CB        -5.2570    1.4340   63.3280 C.3   128  CYS128      0.0956
     55  SG        -4.6750    1.5940   65.0280 S.3   128  CYS128     -0.0801
     56  N          0.1880    1.2510   64.1960 N.3   130  MET130     -0.1245
     57  CA         0.5790    0.5950   65.4490 C.3   130  MET130      0.1570
     58  C          2.0900    0.4490   65.5340 C.2   130  MET130      0.2261
     59  O          2.7360    0.1230   64.5360 O.2   130  MET130     -0.2867
     60  CB        -0.0570   -0.7740   65.5830 C.3   130  MET130      0.0387
     61  CG         0.0840   -1.3360   66.9970 C.3   130  MET130      0.0595
     62  SD        -0.3170   -3.0680   67.1290 S.3   130  MET130     -0.1393
     63  CE         1.2170   -3.8650   66.6280 C.3   130  MET130      0.0692
     64  N         -1.8350    3.6260   67.7400 N.3   167  ASP167     -0.1239
     65  CA        -1.8410    2.5360   68.7060 C.3   167  ASP167      0.1674
     66  C         -0.3800    2.2600   69.1530 C.2   167  ASP167      0.2266
     67  O          0.4480    1.9140   68.3300 O.2   167  ASP167     -0.2867
     68  CB        -2.4560    1.3140   68.0450 C.3   167  ASP167      0.1410
     69  CG        -2.6050    0.1170   68.9930 C.2   167  ASP167      0.3668
     70  OD1       -1.9680    0.0640   70.0640 O.co2 167  ASP167     -0.2456
     71  OD2       -3.3720   -0.7870   68.6400 O.co2 167  ASP167     -0.2456
     72  N          0.6350   -2.4340   72.5710 N.3   170  PHE170     -0.1227
     73  CA         0.9550   -3.1830   73.7890 C.3   170  PHE170      0.1736
     74  C          1.2550   -4.6270   73.4590 C.2   170  PHE170      0.2596
     75  O          0.5460   -5.2490   72.6590 O.2   170  PHE170     -0.2718
     76  CB        -0.1730   -3.0750   74.8220 C.3   170  PHE170      0.0547
     77  CG        -0.3040   -1.6920   75.3990 C.ar  170  PHE170     -0.0202
     78  CD1        0.5900   -1.2400   76.3620 C.ar  170  PHE170     -0.0042
     79  CD2       -1.2890   -0.8270   74.9550 C.ar  170  PHE170     -0.0042
     80  CE1        0.4950    0.0430   76.8650 C.ar  170  PHE170     -0.0003
     81  CE2       -1.3960    0.4560   75.4600 C.ar  170  PHE170     -0.0003
     82  CZ        -0.5100    0.8850   76.4350 C.ar  170  PHE170     -0.0000
     83  N          2.3560   -5.1290   74.0290 N.am  171  GLY171     -0.1942
     84  CA         2.7990   -6.5070   73.8400 C.3   171  GLY171      0.2014
     85  C          3.5670   -6.7870   72.5460 C.2   171  GLY171      0.2638
     86  O          3.8610   -7.9400   72.2690 O.2   171  GLY171     -0.2714
     87  N          3.8680   -5.7670   71.7400 N.am  172  PHE172     -0.1973
     88  CA         4.5360   -5.9960   70.4310 C.3   172  PHE172      0.1639
     89  C          5.9890   -5.5630   70.5040 C.2   172  PHE172      0.2290
     90  O          6.3180   -4.3970   70.2590 O.2   172  PHE172     -0.2864
     91  CB         3.8030   -5.2890   69.3030 C.3   172  PHE172      0.0560
     92  CG         2.5300   -5.9730   68.9100 C.ar  172  PHE172     -0.0200
     93  CD1        2.5450   -7.0380   68.0160 C.ar  172  PHE172     -0.0042
     94  CD2        1.3190   -5.5610   69.4470 C.ar  172  PHE172     -0.0042
     95  CE1        1.3650   -7.6660   67.6480 C.ar  172  PHE172     -0.0003
     96  CE2        0.1440   -6.1800   69.0970 C.ar  172  PHE172     -0.0003
     97  CZ         0.1660   -7.2350   68.2050 C.ar  172  PHE172     -0.0000
     98  N         -6.0130    4.1280   69.9210 N.3   197  LEU197     -0.1245
     99  CA        -6.5850    2.7940   70.0210 C.3   197  LEU197      0.1561
    100  C         -5.5990    1.9610   70.8250 C.2   197  LEU197      0.2260
    101  O         -4.4030    2.0480   70.5950 O.2   197  LEU197     -0.2867
    102  CB        -6.7710    2.2220   68.6250 C.3   197  LEU197      0.0270
    103  CG        -7.4610    0.8730   68.4250 C.3   197  LEU197      0.0019
    104  CD1       -8.0600    0.8250   67.0250 C.3   197  LEU197      0.0001
    105  CD2       -6.5000   -0.2790   68.6150 C.3   197  LEU197      0.0001
    106  N         -4.9520   -2.0290   72.8260 N.3   199  GLY199     -0.1225
    107  CA        -5.3320   -3.4240   72.9590 C.3   199  GLY199      0.1811
    108  C         -4.4460   -4.1150   73.9730 C.2   199  GLY199      0.2280
    109  O         -3.3010   -4.4560   73.6780 O.2   199  GLY199     -0.2866
    110  N         -6.1010   -6.5500   76.1460 N.3   201  SER201     -0.1202
    111  CA        -6.9820   -7.5870   76.6540 C.3   201  SER201      0.2020
    112  C         -6.2740   -8.9430   76.7240 C.2   201  SER201      0.2619
    113  O         -5.7820   -9.4380   75.7120 O.2   201  SER201     -0.2717
    114  CB        -8.2120   -7.6970   75.7690 C.3   201  SER201      0.2103
    115  OG        -9.0480   -8.7660   76.1580 O.3   201  SER201     -0.2182
    116  N         -6.2550   -9.5210   77.9270 N.am  202  ARG202     -0.1965
    117  CA        -5.6670  -10.8490   78.1900 C.3   202  ARG202      0.1729
    118  C         -4.1980  -11.0050   77.8200 C.2   202  ARG202      0.2616
    119  O         -3.7150  -12.1420   77.6980 O.2   202  ARG202     -0.2715
    120  CB        -6.4770  -11.9670   77.4960 C.3   202  ARG202      0.0348
    121  CG        -7.9230  -12.0610   77.9160 C.3   202  ARG202      0.0492
    122  CD        -8.6080  -13.1480   77.1090 C.3   202  ARG202      0.2205
    123  NE       -10.0350  -13.2370   77.3930 N.pl3 202  ARG202     -0.0865
    124  CZ       -10.8800  -14.0520   76.7520 C.cat 202  ARG202      0.5346
    125  NH1      -10.4420  -14.8520   75.7800 N.pl3 202  ARG202      0.1354
    126  NH2      -12.1760  -14.0630   77.0700 N.pl3 202  ARG202      0.1354
    127  N         -3.4650   -9.9120   77.6720 N.am  203  LYS203     -0.1963
    128  CA        -2.0790   -9.9880   77.2080 C.3   203  LYS203      0.1728
    129  C         -1.0900  -10.3570   78.3080 C.2   203  LYS203      0.2616
    130  O         -1.4250  -10.4180   79.5150 O.2   203  LYS203     -0.2715
    131  CB        -1.6610   -8.7070   76.4870 C.3   203  LYS203      0.0311
    132  CG        -2.2890   -8.6190   75.0940 C.3   203  LYS203      0.0038
    133  CD        -1.6660   -7.5250   74.2600 C.3   203  LYS203      0.0206
    134  CE        -2.3340   -7.4520   72.8870 C.3   203  LYS203      0.1093
    135  NZ        -1.9040   -6.2280   72.1740 N.3   203  LYS203     -0.1314
    136  N          0.1320  -10.6600   77.8610 N.am  204  SER204     -0.1950
    137  CA         1.2270  -11.0270   78.7540 C.3   204  SER204      0.1924
    138  C          1.5120  -10.0070   79.8160 C.2   204  SER204      0.2314
    139  O          1.8950  -10.3890   80.9200 O.2   204  SER204     -0.2863
    140  CB         2.5190  -11.3070   77.9660 C.3   204  SER204      0.2116
    141  OG         2.4130  -12.5910   77.4010 O.3   204  SER204     -0.2180
    142  N         -9.7190   -2.3380   72.4390 N.3   237  ARG237     -0.1245
    143  CA        -9.8700   -3.6000   71.7460 C.3   237  ARG237      0.1563
    144  C         -9.8700   -4.7300   72.7630 C.2   237  ARG237      0.2260
    145  O         -8.8720   -4.9120   73.4540 O.2   237  ARG237     -0.2867
    146  CB        -8.7010   -3.7720   70.7710 C.3   237  ARG237      0.0307
    147  CG        -8.7390   -5.0620   69.9840 C.3   237  ARG237      0.0489
    148  CD        -7.5670   -5.0800   69.0180 C.3   237  ARG237      0.2205
    149  NE        -7.5530   -6.2580   68.1580 N.pl3 237  ARG237     -0.0865
    150  CZ        -7.0590   -7.4570   68.4730 C.cat 237  ARG237      0.5346
    151  NH1       -6.5520   -7.7110   69.6740 N.pl3 237  ARG237      0.1354
    152  NH2       -7.1080   -8.4400   67.5690 N.pl3 237  ARG237      0.1354
    153  N        -11.5070   -8.8650   74.2420 N.3   239  HIS239     -0.1241
    154  CA       -12.2270  -10.1380   74.1280 C.3   239  HIS239      0.1621
    155  C        -13.5840  -10.1290   74.8380 C.2   239  HIS239      0.2264
    156  O        -14.5560  -10.7010   74.3360 O.2   239  HIS239     -0.2867
    157  CB       -11.3810  -11.3140   74.6750 C.3   239  HIS239      0.0745
    158  CG       -10.0660  -11.4700   73.9970 C.ar  239  HIS239      0.0817
    159  ND1       -8.9360  -10.8160   74.4180 N.ar  239  HIS239     -0.2268
    160  CD2       -9.7020  -12.1900   72.9070 C.ar  239  HIS239      0.1154
    161  CE1       -7.9330  -11.1060   73.6050 C.ar  239  HIS239      0.1986
    162  NE2       -8.3720  -11.9430   72.6840 N.ar  239  HIS239     -0.2212
@<TRIPOS>BOND
     1    29    28    2
     2    28    27    1
     3    34    35    1
     4    26    27    1
     5    27    30    1
     6    36    37    2
     7    36    35    1
     8    50    51    1
     9    35    38    1
    10    53    52    2
    11    30    31    1
    12    42    43    1
    13    52    51    1
    14    38    39    1
    15    44    43    1
    16    44    45    2
    17    51    54    1
    18    47    49    1
    19    47    46    1
    20    43    46    1
    21    31    32   ar
    22    31    33   ar
    23    54    55    1
    24    46    48    1
    25    39    40    2
    26    39    41   am
    27     7     5    1
    28    56    57    1
    29    59    58    2
    30     1     2    1
    31     2     5    1
    32     2     3    1
    33     5     6    1
    34    57    58    1
    35    57    60    1
    36    60    61    1
    37     3     4    2
    38     3     8   am
    39    22    21    2
    40    11    10    2
    41    63    62    1
    42     8     9    1
    43    61    62    1
    44   104   103    1
    45    21    20    1
    46    10     9    1
    47    10    19   am
    48   152   150    1
    49    95    93   ar
    50    95    97   ar
    51    64    65    1
    52     9    12    1
    53    93    92   ar
    54    68    65    1
    55    68    69    1
    56   149   150    2
    57   149   148    1
    58    97    96   ar
    59    20    19    1
    60    20    23    1
    61    67    66    2
    62    12    13    1
    63   103   105    1
    64   103   102    1
    65   150   151    1
    66    19    25    1
    67   102    99    1
    68    71    69   ar
    69    65    66    1
    70    92    91    1
    71    92    94   ar
    72    69    70   ar
    73   148   147    1
    74    96    94   ar
    75    13    14    1
    76    91    88    1
    77    23    24    1
    78    98    99    1
    79    14    15    1
    80    25    24    1
    81   147   146    1
    82    99   100    1
    83    90    89    2
    84    88    89    1
    85    88    87    1
    86    15    16    2
    87   101   100    2
    88   146   143    1
    89    16    17    1
    90    16    18    1
    91    87    85   am
    92   143   142    1
    93   143   144    1
    94   135   134    1
    95    86    85    2
    96    85    84    1
    97    72    73    1
    98    75    74    2
    99   162   160   ar
   100   162   161   ar
   101   144   145    2
   102   106   107    1
   103   134   133    1
   104   160   158   ar
   105   107   108    1
   106    74    73    1
   107    74    83   am
   108   161   159   ar
   109   109   108    2
   110    73    76    1
   111    84    83    1
   112   158   159   ar
   113   158   157    1
   114   154   153    1
   115   154   157    1
   116   154   155    1
   117   133   132    1
   118   156   155    2
   119    76    77    1
   120    79    77   ar
   121    79    81   ar
   122   132   131    1
   123    77    78   ar
   124    81    82   ar
   125   113   112    2
   126   114   115    1
   127   114   111    1
   128   125   124    1
   129   110   111    1
   130    78    80   ar
   131    82    80   ar
   132   131   128    1
   133   111   112    1
   134   112   116   am
   135   124   126    1
   136   124   123    2
   137   122   123    1
   138   122   121    1
   139   128   127    1
   140   128   129    1
   141   141   140    1
   142   120   121    1
   143   120   117    1
   144   127   118   am
   145   119   118    2
   146   118   117    1
   147   136   129   am
   148   136   137    1
   149   116   117    1
   150   140   137    1
   151   129   130    2
   152   137   138    1
   153   138   139    2
