@<TRIPOS>MOLECULE
tmp/5u13B00.pdb
 184 172 0 0 0
SMALL
GASTEIGER

@<TRIPOS>ATOM
      1  N         15.6760  -10.4450   -9.3820 N.3    21  ILE21      -0.1245
      2  CA        16.5540  -11.2630  -10.2170 C.3    21  ILE21       0.1561
      3  C         15.7950  -12.4430  -10.8130 C.2    21  ILE21       0.2260
      4  O         15.1920  -13.2200  -10.0950 O.2    21  ILE21      -0.2867
      5  CB        17.7660  -11.7670   -9.3930 C.3    21  ILE21       0.0252
      6  CG1       18.6030  -10.5590   -8.9380 C.3    21  ILE21       0.0019
      7  CG2       18.6230  -12.7360  -10.2380 C.3    21  ILE21       0.0019
      8  CD1       19.5670  -10.8540   -7.7790 C.3    21  ILE21       0.0001
      9  N         24.0230  -16.1360  -15.7060 N.3    49  THR49      -0.1203
     10  CA        25.3580  -15.7440  -16.1470 C.3    49  THR49       0.1994
     11  C         26.1240  -14.9470  -15.0590 C.2    49  THR49       0.2618
     12  O         26.5390  -13.8030  -15.2520 O.2    49  THR49      -0.2717
     13  CB        25.2760  -14.9920  -17.4950 C.3    49  THR49       0.1784
     14  OG1       24.1780  -14.0650  -17.4640 O.3    49  THR49      -0.2211
     15  CG2       25.0560  -15.9830  -18.6560 C.3    49  THR49       0.0376
     16  N         26.3210  -15.5900  -13.9080 N.am   50  ARG50      -0.1965
     17  CA        27.2090  -15.0680  -12.8420 C.3    50  ARG50       0.1714
     18  C         28.6770  -15.1140  -13.2930 C.2    50  ARG50       0.2458
     19  O         28.9600  -15.6100  -14.3790 O.2    50  ARG50      -0.2730
     20  CB        27.0440  -15.9010  -11.5610 C.3    50  ARG50       0.0347
     21  CG        25.6850  -15.7470  -10.9020 C.3    50  ARG50       0.0492
     22  CD        25.5360  -16.6660   -9.6990 C.3    50  ARG50       0.2205
     23  NE        24.2290  -16.5100   -9.0520 N.pl3  50  ARG50      -0.0865
     24  CZ        23.8210  -17.1730   -7.9670 C.cat  50  ARG50       0.5346
     25  NH1       24.6120  -18.0660   -7.3690 N.pl3  50  ARG50       0.1354
     26  NH2       22.6080  -16.9370   -7.4720 N.pl3  50  ARG50       0.1354
     27  N         29.6160  -14.5870  -12.4790 N.am   51  PRO51      -0.2727
     28  CA        31.0540  -14.8430  -12.7340 C.3    51  PRO51       0.1402
     29  C         31.5360  -16.2240  -12.2480 C.2    51  PRO51       0.2269
     30  O         31.1130  -16.6910  -11.1840 O.2    51  PRO51      -0.2865
     31  CB        31.7490  -13.7240  -11.9500 C.3    51  PRO51       0.0296
     32  CG        30.7920  -13.4130  -10.8510 C.3    51  PRO51       0.0237
     33  CD        29.4410  -13.4870  -11.5140 C.3    51  PRO51       0.0939
     34  N         21.0600   -8.6450  -18.6450 N.3    83  ASP83      -0.1239
     35  CA        22.5000   -8.8540  -18.2990 C.3    83  ASP83       0.1674
     36  C         23.1590   -9.5690  -19.4480 C.2    83  ASP83       0.2266
     37  O         22.9750  -10.7910  -19.6200 O.2    83  ASP83      -0.2867
     38  CB        22.6810   -9.7710  -17.0710 C.3    83  ASP83       0.1410
     39  CG        21.8710   -9.3480  -15.9000 C.2    83  ASP83       0.3668
     40  OD1       21.8400   -8.1440  -15.6140 O.co2  83  ASP83      -0.2456
     41  OD2       21.2980  -10.2410  -15.2620 O.co2  83  ASP83      -0.2456
     42  N         22.2510   -3.9930  -18.9660 N.3   102  ASN102     -0.1240
     43  CA        23.0660   -4.1000  -17.7790 C.3   102  ASN102      0.1653
     44  C         24.2440   -5.0010  -18.0920 C.2   102  ASN102      0.2266
     45  O         24.1680   -6.2120  -17.9680 O.2   102  ASN102     -0.2867
     46  CB        22.2260   -4.6770  -16.6560 C.3   102  ASN102      0.1155
     47  CG        23.0300   -4.8840  -15.3800 C.2   102  ASN102      0.2627
     48  OD1       23.9620   -4.1220  -15.0650 O.2   102  ASN102     -0.2716
     49  ND2       22.6910   -5.9450  -14.6520 N.am  102  ASN102     -0.0877
     50  N         27.7700   -6.3770  -17.1500 N.3   104  ILE104     -0.1245
     51  CA        28.7770   -6.5060  -16.0990 C.3   104  ILE104      0.1561
     52  C         30.1810   -6.1720  -16.6130 C.2   104  ILE104      0.2260
     53  O         31.0040   -5.6500  -15.8460 O.2   104  ILE104     -0.2867
     54  CB        28.7630   -7.8940  -15.4140 C.3   104  ILE104      0.0252
     55  CG1       28.8780   -9.0360  -16.4390 C.3   104  ILE104      0.0019
     56  CG2       27.5270   -8.0180  -14.5270 C.3   104  ILE104      0.0019
     57  CD1       29.1320  -10.3830  -15.7960 C.3   104  ILE104      0.0001
     58  N         23.6120    0.5640  -17.9070 N.3   124  CYS124     -0.1235
     59  CA        24.2170    0.5270  -16.5800 C.3   124  CYS124      0.1677
     60  C         25.7380    0.2490  -16.6990 C.2   124  CYS124      0.2270
     61  O         26.1270   -0.7050  -17.3370 O.2   124  CYS124     -0.2867
     62  CB        23.5300   -0.5040  -15.6830 C.3   124  CYS124      0.0956
     63  SG        24.1560   -0.3750  -13.9750 S.3   124  CYS124     -0.0801
     64  N         28.9710   -0.8470  -14.7280 N.3   126  MET126     -0.1245
     65  CA        29.3610   -1.5290  -13.4980 C.3   126  MET126      0.1570
     66  C         30.8620   -1.6810  -13.3820 C.2   126  MET126      0.2261
     67  O         31.5130   -2.0600  -14.3240 O.2   126  MET126     -0.2867
     68  CB        28.7040   -2.9020  -13.3880 C.3   126  MET126      0.0387
     69  CG        28.8450   -3.4520  -11.9730 C.3   126  MET126      0.0595
     70  SD        28.4890   -5.1870  -11.7390 S.3   126  MET126     -0.1393
     71  CE        30.0350   -5.9540  -12.2610 C.3   126  MET126      0.0692
     72  N         26.9050    1.5730  -11.2450 N.3   163  ASP163     -0.1239
     73  CA        26.9170    0.4880  -10.2670 C.3   163  ASP163      0.1674
     74  C         28.3730    0.2830   -9.8300 C.2   163  ASP163      0.2266
     75  O         29.2350    0.0680  -10.6670 O.2   163  ASP163     -0.2867
     76  CB        26.3350   -0.7610  -10.9210 C.3   163  ASP163      0.1410
     77  CG        26.2130   -1.9460   -9.9790 C.2   163  ASP163      0.3668
     78  OD1       26.8040   -1.9830   -8.8820 O.co2 163  ASP163     -0.2456
     79  OD2       25.5010   -2.8890  -10.3590 O.co2 163  ASP163     -0.2456
     80  N         29.4190   -4.4370   -6.2340 N.3   166  PHE166     -0.1241
     81  CA        29.7060   -5.1740   -5.0290 C.3   166  PHE166      0.1605
     82  C         30.0020   -6.6290   -5.3460 C.2   166  PHE166      0.2264
     83  O         29.3310   -7.2160   -6.2030 O.2   166  PHE166     -0.2867
     84  CB        28.5390   -5.0450   -4.0540 C.3   166  PHE166      0.0534
     85  CG        28.4210   -3.6600   -3.4710 C.ar  166  PHE166     -0.0203
     86  CD1       29.3020   -3.2400   -2.4660 C.ar  166  PHE166     -0.0042
     87  CD2       27.4690   -2.7660   -3.9360 C.ar  166  PHE166     -0.0042
     88  CE1       29.2110   -1.9620   -1.9540 C.ar  166  PHE166     -0.0003
     89  CE2       27.3800   -1.4900   -3.4210 C.ar  166  PHE166     -0.0003
     90  CZ        28.2480   -1.0910   -2.4210 C.ar  166  PHE166     -0.0000
     91  N         32.7370   -7.9730   -6.7960 N.3   168  PHE168     -0.1241
     92  CA        33.3790   -8.2320   -8.1050 C.3   168  PHE168      0.1605
     93  C         34.8610   -7.8400   -8.1210 C.2   168  PHE168      0.2264
     94  O         35.2420   -6.6900   -8.4730 O.2   168  PHE168     -0.2867
     95  CB        32.6320   -7.4980   -9.2300 C.3   168  PHE168      0.0534
     96  CG        31.3860   -8.2060   -9.6960 C.ar  168  PHE168     -0.0203
     97  CD1       31.4610   -9.2770  -10.5890 C.ar  168  PHE168     -0.0042
     98  CD2       30.1360   -7.7970   -9.2510 C.ar  168  PHE168     -0.0042
     99  CE1       30.3040   -9.9190  -11.0300 C.ar  168  PHE168     -0.0003
    100  CE2       28.9870   -8.4320   -9.6770 C.ar  168  PHE168     -0.0003
    101  CZ        29.0660   -9.5040  -10.5640 C.ar  168  PHE168     -0.0000
    102  N         22.7680    2.1080   -9.0370 N.3   193  LEU193     -0.1245
    103  CA        22.2070    0.7800   -8.9690 C.3   193  LEU193      0.1561
    104  C         23.1610   -0.0390   -8.1270 C.2   193  LEU193      0.2260
    105  O         24.3720   -0.0040   -8.3630 O.2   193  LEU193     -0.2867
    106  CB        22.1090    0.1740  -10.3690 C.3   193  LEU193      0.0270
    107  CG        21.3820   -1.1740  -10.5190 C.3   193  LEU193      0.0019
    108  CD1       20.6880   -1.2690  -11.8910 C.3   193  LEU193      0.0001
    109  CD2       22.3070   -2.3620  -10.2980 C.3   193  LEU193      0.0001
    110  N         23.8020   -3.9920   -6.1000 N.3   195  GLY195     -0.1225
    111  CA        23.4620   -5.3790   -5.9650 C.3   195  GLY195      0.1811
    112  C         24.3440   -6.0370   -4.9230 C.2   195  GLY195      0.2280
    113  O         25.5050   -6.3490   -5.1880 O.2   195  GLY195     -0.2866
    114  N         22.6290   -8.4790   -2.7780 N.3   197  SER197     -0.1202
    115  CA        21.7460   -9.5450   -2.3040 C.3   197  SER197      0.2020
    116  C         22.4640  -10.9240   -2.2060 C.2   197  SER197      0.2619
    117  O         22.9450  -11.4420   -3.2050 O.2   197  SER197     -0.2717
    118  CB        20.5550   -9.6530   -3.2220 C.3   197  SER197      0.2103
    119  OG        19.7000  -10.7290   -2.8400 O.3   197  SER197     -0.2182
    120  N         22.5050  -11.4870   -0.9890 N.am  198  ARG198     -0.1965
    121  CA        23.0790  -12.8260   -0.6910 C.3   198  ARG198      0.1729
    122  C         24.5750  -12.9940   -1.0240 C.2   198  ARG198      0.2616
    123  O         25.0580  -14.1370   -1.1140 O.2   198  ARG198     -0.2715
    124  CB        22.3110  -13.9610   -1.3800 C.3   198  ARG198      0.0348
    125  CG        20.8610  -14.0770   -0.9680 C.3   198  ARG198      0.0492
    126  CD        20.1640  -15.0710   -1.8840 C.3   198  ARG198      0.2205
    127  NE        18.7300  -15.2180   -1.6280 N.pl3 198  ARG198     -0.0865
    128  CZ        17.9320  -16.0520   -2.3060 C.cat 198  ARG198      0.5346
    129  NH1       18.4170  -16.8180   -3.2790 N.pl3 198  ARG198      0.1354
    130  NH2       16.6370  -16.1230   -2.0210 N.pl3 198  ARG198      0.1354
    131  N         25.3070  -11.9000   -1.1810 N.am  199  LYS199     -0.1963
    132  CA        26.6970  -11.9870   -1.6180 C.3   199  LYS199      0.1728
    133  C         27.6310  -12.3750   -0.4780 C.2   199  LYS199      0.2616
    134  O         27.2420  -12.4050    0.7320 O.2   199  LYS199     -0.2715
    135  CB        27.1690  -10.7000   -2.3010 C.3   199  LYS199      0.0311
    136  CG        26.5880  -10.5930   -3.7120 C.3   199  LYS199      0.0038
    137  CD        27.1860   -9.4740   -4.5190 C.3   199  LYS199      0.0206
    138  CE        26.5550   -9.4830   -5.8950 C.3   199  LYS199      0.1093
    139  NZ        27.0830   -8.3990   -6.7430 N.3   199  LYS199     -0.1314
    140  N         28.8620  -12.6930   -0.8770 N.am  200  SER200     -0.1950
    141  CA        29.8500  -13.1540    0.0830 C.3   200  SER200      0.1924
    142  C         30.2320  -12.0510    1.0710 C.2   200  SER200      0.2314
    143  O         30.6060  -12.3670    2.2010 O.2   200  SER200     -0.2863
    144  CB        31.0700  -13.7850   -0.6270 C.3   200  SER200      0.2116
    145  OG        31.5980  -12.8810   -1.5560 O.3   200  SER200     -0.2180
    146  N         24.4180  -19.4080    1.6760 N.3   210  PRO210     -0.2116
    147  CA        23.6880  -18.5390    0.7490 C.3   210  PRO210      0.1372
    148  C         22.2060  -18.3680    1.0390 C.2   210  PRO210      0.2244
    149  O         21.6540  -17.3270    0.7150 O.2   210  PRO210     -0.2868
    150  CB        23.8710  -19.2260   -0.6200 C.3   210  PRO210      0.0268
    151  CG        25.0480  -20.1070   -0.4570 C.3   210  PRO210      0.0207
    152  CD        25.0080  -20.5660    0.9680 C.3   210  PRO210      0.0892
    153  N         21.1140  -15.5220    4.3690 N.3   213  ARG213     -0.1245
    154  CA        21.6720  -14.1870    4.2640 C.3   213  ARG213      0.1563
    155  C         20.6210  -13.0710    4.1180 C.2   213  ARG213      0.2260
    156  O         20.9730  -11.9340    3.7900 O.2   213  ARG213     -0.2867
    157  CB        22.6350  -14.1580    3.0780 C.3   213  ARG213      0.0307
    158  CG        23.8410  -15.0560    3.3050 C.3   213  ARG213      0.0489
    159  CD        24.7940  -15.0590    2.1270 C.3   213  ARG213      0.2205
    160  NE        25.7750  -16.1340    2.2960 N.pl3 213  ARG213     -0.0865
    161  CZ        26.6990  -16.5050    1.4030 C.cat 213  ARG213      0.5346
    162  NH1       26.8310  -15.8980    0.2280 N.pl3 213  ARG213      0.1354
    163  NH2       27.5260  -17.4980    1.7180 N.pl3 213  ARG213      0.1354
    164  N         19.0580   -4.3250   -6.5750 N.3   233  ARG233     -0.1245
    165  CA        18.9240   -5.6190   -7.2310 C.3   233  ARG233      0.1563
    166  C         18.9260   -6.7360   -6.2220 C.2   233  ARG233      0.2260
    167  O         19.9130   -6.9070   -5.5020 O.2   233  ARG233     -0.2867
    168  CB        20.1140   -5.7910   -8.1860 C.3   233  ARG233      0.0307
    169  CG        20.0890   -7.0530   -9.0010 C.3   233  ARG233      0.0489
    170  CD        21.2770   -7.0680   -9.9390 C.3   233  ARG233      0.2205
    171  NE        21.2610   -8.2340  -10.8180 N.pl3 233  ARG233     -0.0865
    172  CZ        21.8210   -9.4310  -10.5660 C.cat 233  ARG233      0.5346
    173  NH1       22.4750   -9.6780   -9.4270 N.pl3 233  ARG233      0.1354
    174  NH2       21.7310  -10.4100  -11.4810 N.pl3 233  ARG233      0.1354
    175  N         17.3180  -10.8730   -4.7700 N.3   235  HIS235     -0.1241
    176  CA        16.5840  -12.1270   -4.8940 C.3   235  HIS235      0.1621
    177  C         15.2390  -12.0910   -4.1860 C.2   235  HIS235      0.2264
    178  O         14.2800  -12.6810   -4.6560 O.2   235  HIS235     -0.2867
    179  CB        17.3990  -13.3070   -4.3480 C.3   235  HIS235      0.0745
    180  CG        18.7200  -13.4630   -5.0000 C.ar  235  HIS235      0.0817
    181  ND1       19.8390  -12.8060   -4.5500 N.ar  235  HIS235     -0.2268
    182  CD2       19.1090  -14.1840   -6.0770 C.ar  235  HIS235      0.1154
    183  CE1       20.8680  -13.1120   -5.3250 C.ar  235  HIS235      0.1986
    184  NE2       20.4500  -13.9470   -6.2590 N.ar  235  HIS235     -0.2212
@<TRIPOS>BOND
     1    37    36    2
     2    36    35    1
     3    42    43    1
     4    15    13    1
     5    34    35    1
     6    35    38    1
     7    44    45    2
     8    44    43    1
     9    58    59    1
    10    43    46    1
    11    13    14    1
    12    13    10    1
    13    61    60    2
    14    50    51    1
    15    38    39    1
    16    60    59    1
    17    46    47    1
    18    52    51    1
    19    52    53    2
    20    59    62    1
    21    55    57    1
    22    55    54    1
    23    10     9    1
    24    10    11    1
    25    51    54    1
    26    39    40   ar
    27    39    41   ar
    28    62    63    1
    29    54    56    1
    30    47    48    2
    31    47    49   am
    32    12    11    2
    33    11    16   am
    34    64    65    1
    35    19    18    2
    36    67    66    2
    37    16    17    1
    38    65    68    1
    39    65    66    1
    40    68    69    1
    41    18    17    1
    42    18    27   am
    43    17    20    1
    44    28    27    1
    45    28    29    1
    46    28    31    1
    47    27    33    1
    48    71    70    1
    49    29    30    2
    50    69    70    1
    51    31    32    1
    52   108   107    1
    53    20    21    1
    54    33    32    1
    55   174   172    1
    56    72    73    1
    57    99    97   ar
    58    99   101   ar
    59    76    73    1
    60    76    77    1
    61    21    22    1
    62   171   172    2
    63   171   170    1
    64     3     2    1
    65     3     4    2
    66    75    74    2
    67    97    96   ar
    68   172   173    1
    69   101   100   ar
    70   107   106    1
    71   107   109    1
    72   106   103    1
    73    79    77   ar
    74    73    74    1
    75     7     5    1
    76     2     5    1
    77     2     1    1
    78    77    78   ar
    79   170   169    1
    80    22    23    1
    81    96    98   ar
    82    96    95    1
    83   100    98   ar
    84     5     6    1
    85    95    92    1
    86    23    24    2
    87   102   103    1
    88   169   168    1
    89   103   104    1
    90     6     8    1
    91    94    93    2
    92   105   104    2
    93   168   165    1
    94    93    92    1
    95    92    91    1
    96    24    26    1
    97    24    25    1
    98   165   164    1
    99   165   166    1
   100   139   138    1
   101   184   182   ar
   102   184   183   ar
   103    80    81    1
   104   166   167    2
   105    83    82    2
   106   110   111    1
   107   182   180   ar
   108   111   112    1
   109   138   137    1
   110    82    81    1
   111   183   181   ar
   112   113   112    2
   113    81    84    1
   114   180   181   ar
   115   180   179    1
   116   176   175    1
   117   176   179    1
   118   176   177    1
   119   178   177    2
   120   137   136    1
   121    84    85    1
   122    87    85   ar
   123    87    89   ar
   124   136   135    1
   125    85    86   ar
   126    89    90   ar
   127   129   128    1
   128   118   119    1
   129   118   115    1
   130   117   116    2
   131   114   115    1
   132    86    88   ar
   133    90    88   ar
   134   128   130    1
   135   128   127    2
   136   115   116    1
   137   135   132    1
   138   116   120   am
   139   126   127    1
   140   126   125    1
   141   132   131    1
   142   132   133    1
   143   145   144    1
   144   124   125    1
   145   124   121    1
   146   131   122   am
   147   123   122    2
   148   122   121    1
   149   120   121    1
   150   140   133   am
   151   140   141    1
   152   144   141    1
   153   150   151    1
   154   150   147    1
   155   133   134    2
   156   151   152    1
   157   141   142    1
   158   162   161    1
   159   149   148    2
   160   147   148    1
   161   147   146    1
   162   152   146    1
   163   142   143    2
   164   161   163    1
   165   161   160    2
   166   159   160    1
   167   159   158    1
   168   157   158    1
   169   157   154    1
   170   156   155    2
   171   155   154    1
   172   154   153    1
