@<TRIPOS>MOLECULE
tmp/5u14A00.pdb
 198 185 0 0 0
SMALL
GASTEIGER

@<TRIPOS>ATOM
      1  N         73.0030  -10.7680  106.2400 N.3    22  ASN22      -0.1240
      2  CA        71.7640  -10.3910  106.8950 C.3    22  ASN22       0.1653
      3  C         71.2910  -11.5280  107.7850 C.2    22  ASN22       0.2266
      4  O         71.2570  -12.6690  107.3480 O.2    22  ASN22      -0.2867
      5  CB        70.7190  -10.0380  105.8530 C.3    22  ASN22       0.1155
      6  CG        71.1240   -8.8160  105.0490 C.2    22  ASN22       0.2627
      7  OD1       71.5970   -7.8150  105.6100 O.2    22  ASN22      -0.2716
      8  ND2       70.9800   -8.8960  103.7410 N.am   22  ASN22      -0.0877
      9  N         66.5980   -2.2310  107.0040 N.3    53  THR53      -0.1203
     10  CA        66.3840   -0.8120  106.7300 C.3    53  THR53       0.1994
     11  C         65.9620   -0.5700  105.2800 C.2    53  THR53       0.2618
     12  O         66.1330    0.5270  104.7420 O.2    53  THR53      -0.2717
     13  CB        67.6120    0.0230  107.1550 C.3    53  THR53       0.1784
     14  OG1       68.7700   -0.4100  106.4380 O.3    53  THR53      -0.2211
     15  CG2       67.8310   -0.1240  108.6700 C.3    53  THR53       0.0376
     16  N         65.3590   -1.6020  104.6660 N.am   54  ARG54      -0.1965
     17  CA        64.7520   -1.4660  103.3470 C.3    54  ARG54       0.1714
     18  C         63.6060   -0.4660  103.4430 C.2    54  ARG54       0.2458
     19  O         63.0370   -0.3070  104.4980 O.2    54  ARG54      -0.2730
     20  CB        64.1790   -2.8040  102.8610 C.3    54  ARG54       0.0347
     21  CG        65.2020   -3.8990  102.6340 C.3    54  ARG54       0.0492
     22  CD        64.4990   -5.1810  102.2030 C.3    54  ARG54       0.2205
     23  NE        63.8450   -5.0260  100.9050 N.pl3  54  ARG54      -0.0865
     24  CZ        64.4900   -4.9890   99.7400 C.cat  54  ARG54       0.5346
     25  NH1       63.8130   -4.8540   98.6060 N.pl3  54  ARG54       0.1354
     26  NH2       65.8140   -5.0770   99.7010 N.pl3  54  ARG54       0.1354
     27  N         63.2500    0.2000  102.3260 N.am   55  PRO55      -0.2727
     28  CA        62.1240    1.1260  102.3970 C.3    55  PRO55       0.1402
     29  C         60.8760    0.4790  102.9620 C.2    55  PRO55       0.2269
     30  O         60.4900   -0.5810  102.4990 O.2    55  PRO55      -0.2865
     31  CB        61.8870    1.5040  100.9400 C.3    55  PRO55       0.0296
     32  CG        63.2010    1.3440  100.2890 C.3    55  PRO55       0.0237
     33  CD        63.8260    0.1560  100.9690 C.3    55  PRO55       0.0939
     34  N         75.9910   -3.6190  111.5010 N.3    87  ASP87      -0.1239
     35  CA        75.1090   -2.7060  110.8090 C.3    87  ASP87       0.1674
     36  C         73.9770   -2.5200  111.7900 C.2    87  ASP87       0.2266
     37  O         73.0150   -3.2750  111.7640 O.2    87  ASP87      -0.2867
     38  CB        74.6470   -3.3480  109.4750 C.3    87  ASP87       0.1410
     39  CG        74.0230   -2.3480  108.5060 C.2    87  ASP87       0.3668
     40  OD1       73.3860   -1.3750  108.9600 O.co2  87  ASP87      -0.2456
     41  OD2       74.1650   -2.5420  107.2750 O.co2  87  ASP87      -0.2456
     42  N         78.8130    0.2930  111.5960 N.3   106  ASN106     -0.1240
     43  CA        78.2850    0.7670  110.3330 C.3   106  ASN106      0.1653
     44  C         76.8460    1.1630  110.5770 C.2   106  ASN106      0.2266
     45  O         75.9510    0.3390  110.4990 O.2   106  ASN106     -0.2867
     46  CB        78.4240   -0.3520  109.2940 C.3   106  ASN106      0.1155
     47  CG        77.7810   -0.0200  107.9710 C.2   106  ASN106      0.2627
     48  OD1       77.7230    1.1410  107.5790 O.2   106  ASN106     -0.2716
     49  ND2       77.2880   -1.0510  107.2670 N.am  106  ASN106     -0.0877
     50  N         73.6170    3.1490  109.5300 N.3   108  ILE108     -0.1245
     51  CA        72.8900    3.8330  108.4740 C.3   108  ILE108      0.1561
     52  C         72.2350    5.1230  108.9870 C.2   108  ILE108      0.2260
     53  O         71.9570    5.9990  108.1970 O.2   108  ILE108     -0.2867
     54  CB        71.8630    2.9070  107.7550 C.3   108  ILE108      0.0252
     55  CG1       70.7260    2.4560  108.6890 C.3   108  ILE108      0.0019
     56  CG2       72.5800    1.6990  107.1350 C.3   108  ILE108      0.0019
     57  CD1       69.4090    3.1550  108.4290 C.3   108  ILE108      0.0001
     58  N         81.2320    4.2420  110.4180 N.3   128  CYS128     -0.1235
     59  CA        80.7880    4.7330  109.0990 C.3   128  CYS128      0.1677
     60  C         79.5940    5.6550  109.2480 C.2   128  CYS128      0.2270
     61  O         78.6070    5.3130  109.9100 O.2   128  CYS128     -0.2867
     62  CB        80.4530    3.5740  108.1450 C.3   128  CYS128      0.0956
     63  SG        79.9240    4.2050  106.5160 S.3   128  CYS128     -0.0801
     64  N         76.6960    7.4140  107.1970 N.3   130  MET130     -0.1245
     65  CA        75.9470    7.3410  105.9460 C.3   130  MET130      0.1570
     66  C         74.8780    8.4260  105.8290 C.2   130  MET130      0.2261
     67  O         74.1900    8.7200  106.7820 O.2   130  MET130     -0.2867
     68  CB        75.2660    5.9790  105.8510 C.3   130  MET130      0.0387
     69  CG        74.8590    5.5870  104.4350 C.3   130  MET130      0.0595
     70  SD        73.7390    4.1610  104.3850 S.3   130  MET130     -0.1393
     71  CE        72.2040    4.9600  104.8050 C.3   130  MET130      0.0692
     72  N         61.4750    7.3080  103.7910 N.3   139  MET139     -0.1230
     73  CA        62.5190    7.9480  102.9700 C.3   139  MET139      0.1702
     74  C         62.2150    7.8910  101.4730 C.2   139  MET139      0.2592
     75  O         62.5460    8.8280  100.7410 O.2   139  MET139     -0.2718
     76  CB        63.9190    7.3520  103.2660 C.3   139  MET139      0.0401
     77  CG        64.0780    5.8840  102.8470 C.3   139  MET139      0.0596
     78  SD        65.5310    5.1720  103.6020 S.3   139  MET139     -0.1393
     79  CE        65.6030    3.5380  102.8500 C.3   139  MET139      0.0692
     80  N         61.5450    6.8230  101.0110 N.am  140  GLN140     -0.1979
     81  CA        61.2660    6.6940   99.5820 C.3   140  GLN140      0.1601
     82  C         59.9040    7.2390   99.1360 C.2   140  GLN140      0.2287
     83  O         59.5630    7.1180   97.9780 O.2   140  GLN140     -0.2864
     84  CB        61.4590    5.2350   99.1200 C.3   140  GLN140      0.0394
     85  CG        62.9090    4.7490   99.1250 C.3   140  GLN140      0.0908
     86  CD        63.8440    5.6510   98.3420 C.2   140  GLN140      0.2608
     87  OE1       64.7520    6.2310   98.9160 O.2   140  GLN140     -0.2717
     88  NE2       63.6030    5.8020   97.0390 N.am  140  GLN140     -0.0878
     89  N         79.7590    7.5290  103.6020 N.3   176  ASP176     -0.1239
     90  CA        78.9740    6.7480  102.6330 C.3   176  ASP176      0.1674
     91  C         77.7820    7.5790  102.1660 C.2   176  ASP176      0.2266
     92  O         76.9820    7.9970  102.9830 O.2   176  ASP176     -0.2867
     93  CB        78.5180    5.4710  103.3040 C.3   176  ASP176      0.1410
     94  CG        77.7940    4.5130  102.3510 C.2   176  ASP176      0.3668
     95  OD1       77.1630    4.9530  101.3540 O.co2 176  ASP176     -0.2456
     96  OD2       77.8610    3.3100  102.6500 O.co2 176  ASP176     -0.2456
     97  N         73.3570    5.1330   98.9630 N.3   179  PHE179     -0.1227
     98  CA        72.5860    4.8830   97.7640 C.3   179  PHE179      0.1736
     99  C         71.2850    4.1720   98.1670 C.2   179  PHE179      0.2596
    100  O         71.3090    3.2830   98.9750 O.2   179  PHE179     -0.2718
    101  CB        73.3790    4.0730   96.7250 C.3   179  PHE179      0.0547
    102  CG        74.5590    4.8010   96.1830 C.ar  179  PHE179     -0.0202
    103  CD1       74.3930    5.7790   95.2260 C.ar  179  PHE179     -0.0042
    104  CD2       75.8370    4.5300   96.6470 C.ar  179  PHE179     -0.0042
    105  CE1       75.4810    6.4640   94.7260 C.ar  179  PHE179     -0.0003
    106  CE2       76.9320    5.2260   96.1400 C.ar  179  PHE179     -0.0003
    107  CZ        76.7480    6.1740   95.1740 C.ar  179  PHE179     -0.0000
    108  N         70.1720    4.6640   97.6570 N.am  180  GLY180     -0.1942
    109  CA        68.8590    4.1320   97.9380 C.3   180  GLY180      0.2014
    110  C         68.1770    4.6590   99.1710 C.2   180  GLY180      0.2638
    111  O         67.0090    4.3610   99.3730 O.2   180  GLY180     -0.2714
    112  N         68.8680    5.4650   99.9930 N.am  181  PHE181     -0.1973
    113  CA        68.3190    5.9120  101.2540 C.3   181  PHE181      0.1639
    114  C         67.7680    7.3570  101.0930 C.2   181  PHE181      0.2290
    115  O         68.3990    8.3570  101.4770 O.2   181  PHE181     -0.2864
    116  CB        69.3500    5.8040  102.3590 C.3   181  PHE181      0.0560
    117  CG        69.6760    4.3580  102.8000 C.ar  181  PHE181     -0.0200
    118  CD1       68.9700    3.7430  103.8310 C.ar  181  PHE181     -0.0042
    119  CD2       70.7240    3.6620  102.2290 C.ar  181  PHE181     -0.0042
    120  CE1       69.2880    2.4640  104.2680 C.ar  181  PHE181     -0.0003
    121  CE2       71.0760    2.3850  102.6770 C.ar  181  PHE181     -0.0003
    122  CZ        70.3250    1.7660  103.6750 C.ar  181  PHE181     -0.0000
    123  N         70.4850    9.0810   92.8220 N.3   188  ASN188     -0.1240
    124  CA        71.5370    8.0780   93.0090 C.3   188  ASN188      0.1653
    125  C         72.6270    8.2130   91.9630 C.2   188  ASN188      0.2266
    126  O         73.8170    8.1650   92.3080 O.2   188  ASN188     -0.2867
    127  CB        70.9640    6.6490   92.9940 C.3   188  ASN188      0.1155
    128  CG        70.1930    6.3090   94.2460 C.2   188  ASN188      0.2627
    129  OD1       70.6730    6.5020   95.3660 O.2   188  ASN188     -0.2716
    130  ND2       68.9690    5.8140   94.0750 N.am  188  ASN188     -0.0877
    131  N         82.8590    4.4730  101.4590 N.3   206  LEU206     -0.1245
    132  CA        82.1870    3.1700  101.5270 C.3   206  LEU206      0.1561
    133  C         80.9330    3.3560  100.6840 C.2   206  LEU206      0.2260
    134  O         80.3240    4.4360  100.7350 O.2   206  LEU206     -0.2867
    135  CB        81.8310    2.8480  102.9730 C.3   206  LEU206      0.0270
    136  CG        81.5770    1.3970  103.3880 C.3   206  LEU206      0.0019
    137  CD1       81.3760    1.2900  104.8900 C.3   206  LEU206      0.0001
    138  CD2       80.3880    0.7970  102.6830 C.3   206  LEU206      0.0001
    139  N         77.3840    1.1800   98.9310 N.3   208  GLY208     -0.1225
    140  CA        76.5710   -0.0100   98.8990 C.3   208  GLY208      0.1811
    141  C         75.4910    0.1660   97.8710 C.2   208  GLY208      0.2280
    142  O         74.4760    0.7680   98.1670 O.2   208  GLY208     -0.2866
    143  N         72.5800   -4.7580   93.9940 N.3   211  ARG211     -0.1231
    144  CA        71.2180   -5.2660   93.7610 C.3   211  ARG211      0.1694
    145  C         70.1100   -4.2870   94.1040 C.2   211  ARG211      0.2592
    146  O         68.9390   -4.6740   94.1690 O.2   211  ARG211     -0.2718
    147  CB        70.9690   -6.5920   94.4960 C.3   211  ARG211      0.0321
    148  CG        71.8950   -7.7260   94.0860 C.3   211  ARG211      0.0489
    149  CD        71.5330   -8.9650   94.9020 C.3   211  ARG211      0.2205
    150  NE        72.3790  -10.1270   94.6330 N.pl3 211  ARG211     -0.0865
    151  CZ        72.2670  -11.3040   95.2600 C.cat 211  ARG211      0.5346
    152  NH1       71.3160  -11.5010   96.1780 N.pl3 211  ARG211      0.1354
    153  NH2       73.1070  -12.2980   94.9770 N.pl3 211  ARG211      0.1354
    154  N         70.4510   -3.0010   94.2530 N.am  212  LYS212     -0.1966
    155  CA        69.4500   -2.0170   94.6740 C.3   212  LYS212      0.1728
    156  C         68.6450   -1.5090   93.4850 C.2   212  LYS212      0.2617
    157  O         68.9800   -1.7520   92.3350 O.2   212  LYS212     -0.2715
    158  CB        70.1290   -0.8600   95.4060 C.3   212  LYS212      0.0311
    159  CG        70.5580   -1.2220   96.7970 C.3   212  LYS212      0.0038
    160  CD        71.1530   -0.0060   97.5260 C.3   212  LYS212      0.0206
    161  CE        71.3700   -0.3460   98.9850 C.3   212  LYS212      0.1093
    162  NZ        72.1890    0.6450   99.7010 N.3   212  LYS212     -0.1314
    163  N         67.5590   -0.8010   93.7530 N.am  213  SER213     -0.1936
    164  CA        66.6680   -0.3720   92.6870 C.3   213  SER213      0.2055
    165  C         67.3050    0.5920   91.7160 C.2   213  SER213      0.2642
    166  O         66.8170    0.7110   90.6220 O.2   213  SER213     -0.2714
    167  CB        65.3980    0.2480   93.2800 C.3   213  SER213      0.2130
    168  OG        65.7690    1.4210   93.9730 O.3   213  SER213     -0.2179
    169  N         68.3950    1.3010   92.0760 N.am  214  MET214     -0.1976
    170  CA        69.0900    2.1050   91.0660 C.3   214  MET214      0.1605
    171  C         69.6130    1.2590   89.8750 C.2   214  MET214      0.2287
    172  O         69.7950    1.7690   88.7870 O.2   214  MET214     -0.2864
    173  CB        70.2280    2.9390   91.6810 C.3   214  MET214      0.0413
    174  CG        71.3980    2.1600   92.2220 C.3   214  MET214      0.0598
    175  SD        72.5900    3.2080   93.0570 S.3   214  MET214     -0.1393
    176  CE        73.5180    3.7680   91.6380 C.3   214  MET214      0.0692
    177  N         70.4400   -8.7580   88.7480 N.3   226  ARG226     -0.1245
    178  CA        71.1780   -7.4710   88.8300 C.3   226  ARG226      0.1563
    179  C         72.6900   -7.5890   88.9780 C.2   226  ARG226      0.2260
    180  O         73.3580   -6.6030   89.2730 O.2   226  ARG226     -0.2867
    181  CB        70.6180   -6.6440   89.9840 C.3   226  ARG226      0.0307
    182  CG        69.1730   -6.2530   89.7760 C.3   226  ARG226      0.0489
    183  CD        68.5360   -5.6180   90.9910 C.3   226  ARG226      0.2205
    184  NE        67.1050   -5.4470   90.7380 N.pl3 226  ARG226     -0.0865
    185  CZ        66.2220   -4.8760   91.5540 C.cat 226  ARG226      0.5346
    186  NH1       66.5770   -4.3760   92.7180 N.pl3 226  ARG226      0.1354
    187  NH2       64.9460   -4.8000   91.1720 N.pl3 226  ARG226      0.1354
    188  N         80.2760   -2.6080   99.3930 N.3   246  ARG246     -0.1245
    189  CA        79.4270   -3.5100  100.1560 C.3   246  ARG246      0.1563
    190  C         78.5620   -4.2880   99.1700 C.2   246  ARG246      0.2260
    191  O         77.7880   -3.6890   98.4270 O.2   246  ARG246     -0.2867
    192  CB        78.5580   -2.7240  101.1780 C.3   246  ARG246      0.0307
    193  CG        77.6370   -3.5710  102.0350 C.3   246  ARG246      0.0489
    194  CD        76.8780   -2.6920  103.0320 C.3   246  ARG246      0.2205
    195  NE        75.9020   -3.4190  103.8520 N.pl3 246  ARG246     -0.0865
    196  CZ        74.6900   -3.8300  103.4610 C.cat 246  ARG246      0.5346
    197  NH1       74.2440   -3.6090  102.2380 N.pl3 246  ARG246      0.1354
    198  NH2       73.9000   -4.4760  104.3230 N.pl3 246  ARG246      0.1354
@<TRIPOS>BOND
     1   177   178    1
     2   172   171    2
     3   178   179    1
     4   178   181    1
     5   179   180    2
     6   182   181    1
     7   182   183    1
     8   171   170    1
     9   166   165    2
    10   184   183    1
    11   184   185    2
    12   170   173    1
    13   170   169    1
    14   187   185    1
    15   185   186    1
    16   176   175    1
    17   173   174    1
    18   165   169   am
    19   165   164    1
    20   125   126    2
    21   125   124    1
    22   174   175    1
    23   157   156    2
    24   164   167    1
    25   164   163    1
    26   123   124    1
    27   127   124    1
    28   127   128    1
    29   167   168    1
    30   156   163   am
    31   156   155    1
    32   144   143    1
    33   144   145    1
    34   144   147    1
    35   130   128   am
    36   148   147    1
    37   148   149    1
    38   145   146    2
    39   145   154   am
    40   128   129    2
    41   154   155    1
    42   150   149    1
    43   150   151    2
    44   155   158    1
    45   105   107   ar
    46   105   103   ar
    47   153   151    1
    48   107   106   ar
    49   103   102   ar
    50   151   152    1
    51   158   159    1
    52   106   104   ar
    53   102   104   ar
    54   102   101    1
    55   101    98    1
    56   159   160    1
    57    88    86   am
    58   160   161    1
    59   108   109    1
    60   108    99   am
    61    98    99    1
    62    98    97    1
    63   141   142    2
    64   141   140    1
    65   109   110    1
    66    83    82    2
    67    99   100    2
    68    86    87    2
    69    86    85    1
    70   191   190    2
    71    25    24    1
    72   140   139    1
    73   161   162    1
    74    84    85    1
    75    84    81    1
    76    82    81    1
    77   190   189    1
    78   110   111    2
    79   110   112   am
    80   188   189    1
    81    81    80    1
    82    26    24    1
    83    24    23    2
    84   112   113    1
    85   189   192    1
    86    32    31    1
    87    32    33    1
    88   133   134    2
    89   133   132    1
    90    75    74    2
    91    23    22    1
    92    31    28    1
    93    33    27    1
    94    80    74   am
    95   114   113    1
    96   114   115    2
    97   192   193    1
    98   113   116    1
    99    95    94   ar
   100   131   132    1
   101    74    73    1
   102   132   135    1
   103   193   194    1
   104    91    90    1
   105    91    92    2
   106    22    21    1
   107   119   121   ar
   108   119   117   ar
   109   197   196    1
   110    27    28    1
   111    27    18   am
   112    94    96   ar
   113    94    93    1
   114   116   117    1
   115    28    29    1
   116    30    29    2
   117    90    93    1
   118    90    89    1
   119    21    20    1
   120   121   122   ar
   121   138   136    1
   122   117   118   ar
   123    77    76    1
   124    77    78    1
   125    79    78    1
   126    20    17    1
   127    73    76    1
   128    73    72    1
   129   135   136    1
   130   194   195    1
   131    17    18    1
   132    17    16    1
   133   136   137    1
   134    18    19    2
   135   196   195    2
   136   196   198    1
   137   122   120   ar
   138     8     6   am
   139   118   120   ar
   140    70    69    1
   141    70    71    1
   142    69    68    1
   143    16    11   am
   144    12    11    2
   145     6     7    2
   146     6     5    1
   147    11    10    1
   148    66    65    1
   149    66    67    2
   150    68    65    1
   151     5     2    1
   152    65    64    1
   153     1     2    1
   154    14    13    1
   155    63    62    1
   156    10     9    1
   157    10    13    1
   158     2     3    1
   159    56    54    1
   160    13    15    1
   161    49    47   am
   162    41    39   ar
   163     4     3    2
   164    48    47    2
   165    54    51    1
   166    54    55    1
   167    47    46    1
   168    62    59    1
   169    53    52    2
   170    57    55    1
   171    51    52    1
   172    51    50    1
   173    39    40   ar
   174    39    38    1
   175    59    60    1
   176    59    58    1
   177    60    61    2
   178    46    43    1
   179    38    35    1
   180    43    44    1
   181    43    42    1
   182    45    44    2
   183    35    34    1
   184    35    36    1
   185    37    36    2
