@<TRIPOS>MOLECULE
tmp/5u16C00.pdb
 141 141 0 0 0
SMALL
GASTEIGER

@<TRIPOS>ATOM
      1  N        -57.2330   24.8040  -39.3420 N.3     7  TYR7       -0.1241
      2  CA       -57.6490   24.5230  -40.7280 C.3     7  TYR7        0.1605
      3  C        -58.2460   23.1360  -40.8130 C.2     7  TYR7        0.2264
      4  O        -57.6460   22.1730  -40.3280 O.2     7  TYR7       -0.2867
      5  CB       -56.4820   24.6200  -41.7060 C.3     7  TYR7        0.0534
      6  CG       -56.0850   26.0310  -42.0450 C.ar    7  TYR7       -0.0201
      7  CD1      -56.6830   26.7050  -43.1080 C.ar    7  TYR7       -0.0009
      8  CD2      -55.0970   26.6860  -41.3150 C.ar    7  TYR7       -0.0009
      9  CE1      -56.3320   27.9990  -43.4150 C.ar    7  TYR7        0.0417
     10  CE2      -54.7250   27.9720  -41.6220 C.ar    7  TYR7        0.0417
     11  CZ       -55.3450   28.6240  -42.6700 C.ar    7  TYR7        0.1957
     12  OH       -54.9660   29.9110  -42.9680 O.3     7  TYR7       -0.2866
     13  N        -60.7340   31.6860  -44.3770 N.3    34  THR34      -0.1218
     14  CA       -60.4600   31.2490  -45.7480 C.3    34  THR34       0.1862
     15  C        -61.3130   30.0440  -46.1370 C.2    34  THR34       0.2287
     16  O        -61.7260   29.2640  -45.2740 O.2    34  THR34      -0.2866
     17  CB       -58.9780   30.8560  -45.9650 C.3    34  THR34       0.1770
     18  OG1      -58.6880   29.6770  -45.2060 O.3    34  THR34      -0.2211
     19  CG2      -58.0290   31.9950  -45.5890 C.3    34  THR34       0.0375
     20  N        -59.3340   29.4730  -54.0160 N.3    43  LYS43      -0.1245
     21  CA       -59.1270   29.8750  -52.6330 C.3    43  LYS43       0.1561
     22  C        -59.6850   31.2910  -52.4470 C.2    43  LYS43       0.2260
     23  O        -59.3330   32.1930  -53.2010 O.2    43  LYS43      -0.2867
     24  CB       -57.6330   29.8190  -52.2570 C.3    43  LYS43       0.0271
     25  CG       -57.3880   29.8460  -50.7480 C.3    43  LYS43       0.0035
     26  CD       -57.4100   28.4250  -50.1680 C.3    43  LYS43       0.0206
     27  CE       -57.3100   28.4310  -48.6510 C.3    43  LYS43       0.1093
     28  NZ       -56.2070   29.2510  -48.1020 N.3    43  LYS43      -0.1314
     29  N        -59.1410   39.7600  -43.9730 N.3    50  MET50      -0.1245
     30  CA       -58.2670   38.8620  -44.7290 C.3    50  MET50       0.1570
     31  C        -58.1170   39.3590  -46.1870 C.2    50  MET50       0.2261
     32  O        -57.0080   39.4860  -46.6960 O.2    50  MET50      -0.2867
     33  CB       -58.8230   37.4320  -44.7040 C.3    50  MET50       0.0387
     34  CG       -58.8010   36.7440  -43.3240 C.3    50  MET50       0.0595
     35  SD       -57.1340   36.3130  -42.7320 S.3    50  MET50      -0.1393
     36  CE       -56.7190   35.0600  -43.9550 C.3    50  MET50       0.0692
     37  N        -51.3870   35.8390  -53.2810 N.3    58  HIS58      -0.1226
     38  CA       -51.5900   34.8990  -52.1750 C.3    58  HIS58       0.1752
     39  C        -52.7060   33.9120  -52.5280 C.2    58  HIS58       0.2596
     40  O        -52.5310   32.6930  -52.4190 O.2    58  HIS58      -0.2718
     41  CB       -51.9320   35.6200  -50.8590 C.3    58  HIS58       0.0759
     42  CG       -52.3190   34.6890  -49.7460 C.ar   58  HIS58       0.0818
     43  ND1      -51.4000   34.1640  -48.8600 N.ar   58  HIS58      -0.2268
     44  CD2      -53.5170   34.1590  -49.4030 C.ar   58  HIS58       0.1154
     45  CE1      -52.0210   33.3700  -48.0060 C.ar   58  HIS58       0.1986
     46  NE2      -53.3030   33.3380  -48.3240 N.ar   58  HIS58      -0.2212
     47  N        -53.8510   34.4370  -52.9440 N.am   59  TRP59      -0.1976
     48  CA       -54.9870   33.5860  -53.2890 C.3    59  TRP59       0.1640
     49  C        -54.6390   32.6920  -54.4730 C.2    59  TRP59       0.2290
     50  O        -55.0610   31.5340  -54.5320 O.2    59  TRP59      -0.2864
     51  CB       -56.2300   34.4500  -53.5580 C.3    59  TRP59       0.0576
     52  CG       -56.4700   35.3410  -52.3740 C.ar   59  TRP59       0.0006
     53  CD1      -56.2340   36.6860  -52.2950 C.ar   59  TRP59       0.0946
     54  CD2      -56.8920   34.9320  -51.0640 C.ar   59  TRP59       0.0152
     55  NE1      -56.5110   37.1460  -51.0280 N.ar   59  TRP59      -0.2442
     56  CE2      -56.9130   36.0900  -50.2500 C.ar   59  TRP59       0.0810
     57  CE3      -57.2550   33.7050  -50.5000 C.ar   59  TRP59       0.0012
     58  CZ2      -57.2990   36.0570  -48.9070 C.ar   59  TRP59       0.0191
     59  CZ3      -57.6330   33.6730  -49.1660 C.ar   59  TRP59       0.0001
     60  CH2      -57.6480   34.8450  -48.3820 C.ar   59  TRP59       0.0015
     61  N        -52.3470   29.7730  -53.1110 N.3    62  TYR62      -0.1241
     62  CA       -53.1050   28.7940  -52.3250 C.3    62  TYR62       0.1605
     63  C        -54.2340   28.1220  -53.1160 C.2    62  TYR62       0.2264
     64  O        -54.6720   27.0300  -52.7610 O.2    62  TYR62      -0.2867
     65  CB       -53.6390   29.4260  -51.0360 C.3    62  TYR62       0.0534
     66  CG       -52.5020   29.4180  -50.0110 C.ar   62  TYR62      -0.0201
     67  CD1      -52.3250   28.3410  -49.1560 C.ar   62  TYR62      -0.0009
     68  CD2      -51.5520   30.4260  -49.9980 C.ar   62  TYR62      -0.0009
     69  CE1      -51.2540   28.2920  -48.2540 C.ar   62  TYR62       0.0417
     70  CE2      -50.4770   30.4040  -49.0970 C.ar   62  TYR62       0.0417
     71  CZ       -50.3350   29.3280  -48.2380 C.ar   62  TYR62       0.1957
     72  OH       -49.2690   29.2930  -47.3690 O.3    62  TYR62      -0.2866
     73  N        -54.3120   24.1420  -52.8520 N.3    66  LEU66      -0.1245
     74  CA       -55.5120   23.4420  -52.4040 C.3    66  LEU66       0.1561
     75  C        -56.0170   22.4470  -53.4730 C.2    66  LEU66       0.2260
     76  O        -56.5130   21.3670  -53.1340 O.2    66  LEU66      -0.2867
     77  CB       -56.5970   24.4510  -51.9990 C.3    66  LEU66       0.0270
     78  CG       -56.6210   24.7530  -50.4900 C.3    66  LEU66       0.0019
     79  CD1      -57.0600   23.5150  -49.7250 C.3    66  LEU66       0.0001
     80  CD2      -55.2550   25.2360  -49.9280 C.3    66  LEU66       0.0001
     81  N        -53.9830   19.5120  -52.7860 N.3    69  TRP69      -0.1241
     82  CA       -54.3670   18.8480  -51.5360 C.3    69  TRP69       0.1605
     83  C        -55.7100   18.1490  -51.7010 C.2    69  TRP69       0.2264
     84  O        -55.9970   17.1510  -51.0440 O.2    69  TRP69      -0.2867
     85  CB       -54.4290   19.8450  -50.3760 C.3    69  TRP69       0.0550
     86  CG       -53.0680   20.5030  -50.0740 C.ar   69  TRP69       0.0003
     87  CD1      -51.8410   20.1440  -50.5780 C.ar   69  TRP69       0.0946
     88  CD2      -52.8350   21.6430  -49.2450 C.ar   69  TRP69       0.0152
     89  NE1      -50.8610   20.9860  -50.0970 N.ar   69  TRP69      -0.2442
     90  CE2      -51.4450   21.9070  -49.2660 C.ar   69  TRP69       0.0810
     91  CE3      -53.6640   22.4620  -48.4820 C.ar   69  TRP69       0.0012
     92  CZ2      -50.8700   22.9620  -48.5460 C.ar   69  TRP69       0.0191
     93  CZ3      -53.0900   23.4990  -47.7570 C.ar   69  TRP69       0.0001
     94  CH2      -51.7090   23.7380  -47.7970 C.ar   69  TRP69       0.0015
     95  N        -55.8740   20.7240  -38.4580 N.3    96  ILE96      -0.1245
     96  CA       -54.5400   21.1060  -38.0190 C.3    96  ILE96       0.1561
     97  C        -54.6200   22.4950  -37.4010 C.2    96  ILE96       0.2260
     98  O        -55.4620   23.3050  -37.8010 O.2    96  ILE96      -0.2867
     99  CB       -53.5310   21.0770  -39.1880 C.3    96  ILE96       0.0252
    100  CG1      -52.0940   21.1380  -38.6440 C.3    96  ILE96       0.0019
    101  CG2      -53.8480   22.2120  -40.1980 C.3    96  ILE96       0.0019
    102  CD1      -50.9600   20.8920  -39.6860 C.3    96  ILE96       0.0001
    103  N        -43.8610   22.9690  -38.4610 N.3   156  TRP156     -0.1241
    104  CA       -44.9820   23.7430  -38.9990 C.3   156  TRP156      0.1605
    105  C        -45.9360   24.1480  -37.8720 C.2   156  TRP156      0.2264
    106  O        -46.3380   25.2990  -37.7920 O.2   156  TRP156     -0.2867
    107  CB       -45.7360   22.9830  -40.1120 C.3   156  TRP156      0.0550
    108  CG       -46.6430   23.9770  -40.8330 C.ar  156  TRP156      0.0003
    109  CD1      -46.3090   24.7550  -41.8950 C.ar  156  TRP156      0.0946
    110  CD2      -47.9860   24.3630  -40.4600 C.ar  156  TRP156      0.0152
    111  NE1      -47.3670   25.5810  -42.2400 N.ar  156  TRP156     -0.2442
    112  CE2      -48.4050   25.3580  -41.3710 C.ar  156  TRP156      0.0810
    113  CE3      -48.8730   23.9510  -39.4640 C.ar  156  TRP156      0.0012
    114  CZ2      -49.6680   25.9520  -41.3030 C.ar  156  TRP156      0.0191
    115  CZ3      -50.1340   24.5410  -39.4050 C.ar  156  TRP156      0.0001
    116  CH2      -50.5080   25.5410  -40.3040 C.ar  156  TRP156      0.0015
    117  N        -48.3940   32.4520  -38.5740 N.3   164  TRP164     -0.1241
    118  CA       -49.6070   32.7600  -39.3130 C.3   164  TRP164      0.1605
    119  C        -50.6400   33.3580  -38.3700 C.2   164  TRP164      0.2264
    120  O        -51.2890   34.3620  -38.6900 O.2   164  TRP164     -0.2867
    121  CB       -50.1890   31.5190  -39.9920 C.3   164  TRP164      0.0550
    122  CG       -49.5190   31.1120  -41.2850 C.ar  164  TRP164      0.0003
    123  CD1      -48.8310   29.9610  -41.5260 C.ar  164  TRP164      0.0946
    124  CD2      -49.5200   31.8440  -42.5130 C.ar  164  TRP164      0.0152
    125  NE1      -48.4030   29.9280  -42.8340 N.ar  164  TRP164     -0.2442
    126  CE2      -48.8160   31.0740  -43.4600 C.ar  164  TRP164      0.0810
    127  CE3      -50.0740   33.0680  -42.9140 C.ar  164  TRP164      0.0012
    128  CZ2      -48.6240   31.5000  -44.7700 C.ar  164  TRP164      0.0191
    129  CZ3      -49.8780   33.4910  -44.2060 C.ar  164  TRP164      0.0001
    130  CH2      -49.1580   32.7090  -45.1220 C.ar  164  TRP164      0.0015
    131  N        -52.4330   36.9740  -38.7080 N.3   168  PHE168     -0.1241
    132  CA       -53.8750   37.1620  -38.9230 C.3   168  PHE168      0.1605
    133  C        -54.5420   37.9140  -37.7720 C.2   168  PHE168      0.2264
    134  O        -55.4930   38.6640  -37.9730 O.2   168  PHE168     -0.2867
    135  CB       -54.5860   35.8180  -39.1060 C.3   168  PHE168      0.0534
    136  CG       -54.1280   35.0370  -40.3100 C.ar  168  PHE168     -0.0203
    137  CD1      -53.5610   35.6780  -41.4060 C.ar  168  PHE168     -0.0042
    138  CD2      -54.3150   33.6620  -40.3620 C.ar  168  PHE168     -0.0042
    139  CE1      -53.1540   34.9560  -42.5180 C.ar  168  PHE168     -0.0003
    140  CE2      -53.9080   32.9270  -41.4720 C.ar  168  PHE168     -0.0003
    141  CZ       -53.3310   33.5730  -42.5580 C.ar  168  PHE168     -0.0000
@<TRIPOS>BOND
     1    50    49    2
     2    49    48    1
     3    20    21    1
     4    51    48    1
     5    51    52    1
     6    75    76    2
     7    75    74    1
     8    48    47    1
     9    37    38    1
    10    23    22    2
    11    63    64    2
    12    63    62    1
    13    61    62    1
    14    47    39   am
    15    73    74    1
    16    81    82    1
    17    21    22    1
    18    21    24    1
    19    39    40    2
    20    39    38    1
    21    74    77    1
    22    52    53   ar
    23    52    54   ar
    24    62    65    1
    25    53    55   ar
    26    24    25    1
    27    38    41    1
    28    77    78    1
    29    83    82    1
    30    83    84    2
    31    82    85    1
    32    54    57   ar
    33    54    56   ar
    34    65    66    1
    35    55    56   ar
    36    41    42    1
    37    25    26    1
    38    87    89   ar
    39    87    86   ar
    40    57    59   ar
    41    78    80    1
    42    78    79    1
    43    85    86    1
    44    56    58   ar
    45    26    27    1
    46    89    90   ar
    47    86    88   ar
    48    66    68   ar
    49    66    67   ar
    50    68    70   ar
    51    42    44   ar
    52    42    43   ar
    53    44    46   ar
    54    90    88   ar
    55    90    92   ar
    56    88    91   ar
    57    59    60   ar
    58    67    69   ar
    59    70    71   ar
    60    58    60   ar
    61    43    45   ar
    62    27    28    1
    63    92    94   ar
    64    91    93   ar
    65    46    45   ar
    66    69    71   ar
    67    71    72    1
    68    94    93   ar
    69    32    31    2
    70    31    30    1
    71    15    14    1
    72    15    16    2
    73    17    14    1
    74    17    19    1
    75    17    18    1
    76    14    13    1
    77   130   128   ar
    78   130   129   ar
    79   128   126   ar
    80    30    33    1
    81    30    29    1
    82    33    34    1
    83   129   127   ar
    84    36    35    1
    85   126   125   ar
    86   126   124   ar
    87     9     7   ar
    88     9    11   ar
    89    34    35    1
    90     7     6   ar
    91    12    11    1
    92   127   124   ar
    93   125   123   ar
    94    11    10   ar
    95   141   139   ar
    96   141   140   ar
    97   139   137   ar
    98   124   122   ar
    99   111   109   ar
   100   111   112   ar
   101     6     5    1
   102     6     8   ar
   103   109   108   ar
   104     5     2    1
   105    10     8   ar
   106   123   122   ar
   107   140   138   ar
   108   137   136   ar
   109   112   114   ar
   110   112   110   ar
   111   114   116   ar
   112   122   121    1
   113   108   110   ar
   114   108   107    1
   115     3     2    1
   116     3     4    2
   117     2     1    1
   118   110   113   ar
   119   138   136   ar
   120   136   135    1
   121   116   115   ar
   122   101    99    1
   123   107   104    1
   124   121   118    1
   125   102   100    1
   126   113   115   ar
   127   118   117    1
   128   118   119    1
   129    99   100    1
   130    99    96    1
   131   135   132    1
   132   104   103    1
   133   104   105    1
   134   132   131    1
   135   132   133    1
   136   120   119    2
   137    95    96    1
   138    96    97    1
   139   134   133    2
   140   105   106    2
   141    98    97    2
