@<TRIPOS>MOLECULE
tmp/5u17A00.pdb
 148 144 0 0 0
SMALL
GASTEIGER

@<TRIPOS>ATOM
      1  N          5.3450   25.7990  246.9820 N.3     7  TYR7       -0.1241
      2  CA         5.8040   25.4850  248.3340 C.3     7  TYR7        0.1605
      3  C          6.4410   24.1140  248.3040 C.2     7  TYR7        0.2264
      4  O          5.8160   23.1640  247.8500 O.2     7  TYR7       -0.2867
      5  CB         4.6470   25.5030  249.3290 C.3     7  TYR7        0.0534
      6  CG         4.0750   26.8750  249.5710 C.ar    7  TYR7       -0.0201
      7  CD1        4.7880   27.8090  250.3040 C.ar    7  TYR7       -0.0009
      8  CD2        2.8170   27.2420  249.0640 C.ar    7  TYR7       -0.0009
      9  CE1        4.2850   29.0560  250.5420 C.ar    7  TYR7        0.0417
     10  CE2        2.3020   28.5050  249.2940 C.ar    7  TYR7        0.0417
     11  CZ         3.0450   29.4090  250.0430 C.ar    7  TYR7        0.1957
     12  OH         2.5740   30.6760  250.3200 O.3     7  TYR7       -0.2866
     13  N          8.5890   20.9990  250.4570 N.3     9  ARG9       -0.1245
     14  CA         8.8340   20.4210  251.7720 C.3     9  ARG9        0.1563
     15  C          9.9500   19.4020  251.6150 C.2     9  ARG9        0.2260
     16  O          9.9850   18.6520  250.6240 O.2     9  ARG9       -0.2867
     17  CB         7.5860   19.7570  252.3590 C.3     9  ARG9        0.0307
     18  CG         6.4510   20.6930  252.7640 C.3     9  ARG9        0.0489
     19  CD         5.2680   19.8440  253.2560 C.3     9  ARG9        0.2205
     20  NE         4.0680   20.6390  253.4370 N.pl3   9  ARG9       -0.0865
     21  CZ         2.8270   20.1500  253.5110 C.cat   9  ARG9        0.5346
     22  NH1        2.5920   18.8430  253.4320 N.pl3   9  ARG9        0.1354
     23  NH2        1.8070   20.9840  253.6530 N.pl3   9  ARG9        0.1354
     24  N         10.7260   23.6990  254.9980 N.3    24  SER24      -0.1217
     25  CA         9.7260   24.0550  254.0090 C.3    24  SER24       0.1889
     26  C          9.9170   25.4990  253.5260 C.2    24  SER24       0.2288
     27  O         10.0220   26.4400  254.3320 O.2    24  SER24      -0.2866
     28  CB         8.3250   23.8750  254.5660 C.3    24  SER24       0.2089
     29  OG         7.3650   24.0330  253.5300 O.3    24  SER24      -0.2183
     30  N          9.2370   32.5250  251.6010 N.3    34  THR34      -0.1218
     31  CA         8.9810   32.0800  252.9550 C.3    34  THR34       0.1862
     32  C          9.9080   30.9450  253.3770 C.2    34  THR34       0.2287
     33  O         10.3800   30.1730  252.5400 O.2    34  THR34      -0.2866
     34  CB         7.5280   31.5760  253.1160 C.3    34  THR34       0.1770
     35  OG1        7.3390   30.4160  252.2970 O.3    34  THR34      -0.2211
     36  CG2        6.5140   32.6560  252.7240 C.3    34  THR34       0.0375
     37  N          7.7010   30.2030  260.9160 N.3    43  LYS43      -0.1245
     38  CA         7.6490   30.5960  259.5150 C.3    43  LYS43       0.1561
     39  C          7.9840   32.0830  259.3680 C.2    43  LYS43       0.2260
     40  O          7.3460   32.9300  259.9800 O.2    43  LYS43      -0.2867
     41  CB         6.2820   30.2790  258.8990 C.3    43  LYS43       0.0271
     42  CG         6.2350   30.5740  257.4060 C.3    43  LYS43       0.0035
     43  CD         5.0780   29.8700  256.7390 C.3    43  LYS43       0.0206
     44  CE         5.1270   30.0940  255.2230 C.3    43  LYS43       0.1093
     45  NZ         3.9620   29.5120  254.5250 N.3    43  LYS43      -0.1314
     46  N         -0.3900   36.4290  259.9520 N.3    58  HIS58      -0.1241
     47  CA        -0.0930   35.4780  258.8850 C.3    58  HIS58       0.1621
     48  C          1.0170   34.5250  259.3340 C.2    58  HIS58       0.2264
     49  O          0.8260   33.3090  259.3300 O.2    58  HIS58      -0.2867
     50  CB         0.2920   36.2040  257.5830 C.3    58  HIS58       0.0745
     51  CG         0.6560   35.2830  256.4520 C.ar   58  HIS58       0.0817
     52  ND1       -0.2770   34.8000  255.5480 N.ar   58  HIS58      -0.2268
     53  CD2        1.8500   34.7540  256.0770 C.ar   58  HIS58       0.1154
     54  CE1        0.3280   34.0210  254.6670 C.ar   58  HIS58       0.1986
     55  NE2        1.6170   33.9800  254.9590 N.ar   58  HIS58      -0.2212
     56  N          0.4960   30.4650  260.1750 N.3    62  TYR62      -0.1241
     57  CA         1.1850   29.4360  259.3840 C.3    62  TYR62       0.1605
     58  C          2.3260   28.7800  260.1670 C.2    62  TYR62       0.2264
     59  O          2.7570   27.6760  259.8350 O.2    62  TYR62      -0.2867
     60  CB         1.6870   30.0150  258.0540 C.3    62  TYR62       0.0534
     61  CG         0.5520   30.0290  257.0550 C.ar   62  TYR62      -0.0201
     62  CD1        0.2230   28.8830  256.3530 C.ar   62  TYR62      -0.0009
     63  CD2       -0.2380   31.1600  256.8810 C.ar   62  TYR62      -0.0009
     64  CE1       -0.8470   28.8550  255.4890 C.ar   62  TYR62       0.0417
     65  CE2       -1.3080   31.1470  255.9980 C.ar   62  TYR62       0.0417
     66  CZ        -1.5960   29.9790  255.3090 C.ar   62  TYR62       0.1957
     67  OH        -2.6540   29.9310  254.4550 O.3    62  TYR62      -0.2866
     68  N          2.5340   24.8150  259.8710 N.3    66  LEU66      -0.1245
     69  CA         3.7630   24.1370  259.5080 C.3    66  LEU66       0.1561
     70  C          4.2690   23.1800  260.5860 C.2    66  LEU66       0.2260
     71  O          4.8100   22.1310  260.2400 O.2    66  LEU66      -0.2867
     72  CB         4.8410   25.1500  259.1270 C.3    66  LEU66       0.0270
     73  CG         4.5790   25.1780  257.6100 C.3    66  LEU66       0.0019
     74  CD1        3.5690   26.2690  257.1720 C.3    66  LEU66       0.0001
     75  CD2        5.8290   25.1620  256.7540 C.3    66  LEU66       0.0001
     76  N          2.2680   20.2280  259.8660 N.3    69  TRP69      -0.1241
     77  CA         2.6840   19.5890  258.6140 C.3    69  TRP69       0.1605
     78  C          4.0330   18.9050  258.7720 C.2    69  TRP69       0.2264
     79  O          4.3130   17.8820  258.1440 O.2    69  TRP69      -0.2867
     80  CB         2.7370   20.6270  257.4810 C.3    69  TRP69       0.0550
     81  CG         1.3490   21.1630  257.1170 C.ar   69  TRP69       0.0003
     82  CD1        0.1520   20.5900  257.4320 C.ar   69  TRP69       0.0946
     83  CD2        1.0360   22.3830  256.4180 C.ar   69  TRP69       0.0152
     84  NE1       -0.8970   21.3550  256.9400 N.ar   69  TRP69      -0.2442
     85  CE2       -0.3780   22.4600  256.3140 C.ar   69  TRP69       0.0810
     86  CE3        1.8080   23.4090  255.8690 C.ar   69  TRP69       0.0012
     87  CZ2       -1.0300   23.5140  255.6760 C.ar   69  TRP69       0.0191
     88  CZ3        1.1570   24.4550  255.2300 C.ar   69  TRP69       0.0001
     89  CH2       -0.2570   24.5000  255.1480 C.ar   69  TRP69       0.0015
     90  N          7.9500   17.1610  248.8870 N.3    94  ARG94      -0.1245
     91  CA         6.7850   17.4630  248.0950 C.3    94  ARG94       0.1563
     92  C          6.9080   18.8530  247.4820 C.2    94  ARG94       0.2260
     93  O          7.6500   19.7130  247.9780 O.2    94  ARG94      -0.2867
     94  CB         5.5190   17.3170  248.9370 C.3    94  ARG94       0.0307
     95  CG         4.7470   18.5760  249.1910 C.3    94  ARG94       0.0489
     96  CD         3.3800   18.2980  249.7620 C.3    94  ARG94       0.2205
     97  NE         2.7560   19.5740  250.0710 N.pl3  94  ARG94      -0.0865
     98  CZ         1.4660   19.7450  250.3160 C.cat  94  ARG94       0.5346
     99  NH1        1.0000   20.9580  250.5890 N.pl3  94  ARG94       0.1354
    100  NH2        0.6510   18.7130  250.2610 N.pl3  94  ARG94       0.1354
    101  N          4.1320   21.6430  245.8520 N.3    96  ILE96      -0.1245
    102  CA         2.8050   22.0640  245.4110 C.3    96  ILE96       0.1561
    103  C          2.8790   23.4680  244.8050 C.2    96  ILE96       0.2260
    104  O          3.7300   24.2740  245.1910 O.2    96  ILE96      -0.2867
    105  CB         1.7800   22.0520  246.5810 C.3    96  ILE96       0.0252
    106  CG1        0.3380   22.0290  246.0260 C.3    96  ILE96       0.0019
    107  CG2        2.0420   23.2170  247.5470 C.3    96  ILE96       0.0019
    108  CD1       -0.7150   21.8440  247.0890 C.3    96  ILE96       0.0001
    109  N        -10.8790   19.0980  247.5120 N.3   152  TYR152     -0.1241
    110  CA       -10.2520   20.2480  248.1980 C.3   152  TYR152      0.1605
    111  C         -8.9430   20.5850  247.5190 C.2   152  TYR152      0.2264
    112  O         -8.6040   21.7580  247.3790 O.2   152  TYR152     -0.2867
    113  CB        -9.9930   19.9960  249.7110 C.3   152  TYR152      0.0534
    114  CG        -8.6610   20.6040  250.1630 C.ar  152  TYR152     -0.0201
    115  CD1       -8.5700   21.9450  250.5000 C.ar  152  TYR152     -0.0009
    116  CD2       -7.4960   19.8400  250.1980 C.ar  152  TYR152     -0.0009
    117  CE1       -7.3760   22.5080  250.8620 C.ar  152  TYR152      0.0417
    118  CE2       -6.2950   20.3960  250.5600 C.ar  152  TYR152      0.0417
    119  CZ        -6.2420   21.7450  250.8900 C.ar  152  TYR152      0.1957
    120  OH        -5.0840   22.3850  251.2670 O.3   152  TYR152     -0.2866
    121  N         -7.7380   23.9920  245.6430 N.3   156  TRP156     -0.1241
    122  CA        -6.5920   24.7690  246.1530 C.3   156  TRP156      0.1605
    123  C         -5.6140   25.1140  245.0200 C.2   156  TRP156      0.2264
    124  O         -5.1370   26.2490  244.9300 O.2   156  TRP156     -0.2867
    125  CB        -5.8410   24.0310  247.2890 C.3   156  TRP156      0.0550
    126  CG        -4.9740   25.0070  248.0220 C.ar  156  TRP156      0.0003
    127  CD1       -5.3300   25.7900  249.0940 C.ar  156  TRP156      0.0946
    128  CD2       -3.6420   25.3800  247.6750 C.ar  156  TRP156      0.0152
    129  NE1       -4.2890   26.6210  249.4330 N.ar  156  TRP156     -0.2442
    130  CE2       -3.2380   26.3860  248.5820 C.ar  156  TRP156      0.0810
    131  CE3       -2.7430   24.9570  246.6830 C.ar  156  TRP156      0.0012
    132  CZ2       -1.9710   26.9610  248.5400 C.ar  156  TRP156      0.0191
    133  CZ3       -1.4860   25.5180  246.6450 C.ar  156  TRP156      0.0001
    134  CH2       -1.1100   26.5230  247.5540 C.ar  156  TRP156      0.0015
    135  N         -3.4590   33.4850  245.7500 N.3   164  TRP164     -0.1241
    136  CA        -2.2600   33.7980  246.5220 C.3   164  TRP164      0.1605
    137  C         -1.1600   34.3510  245.6060 C.2   164  TRP164      0.2264
    138  O         -0.4930   35.3510  245.9340 O.2   164  TRP164     -0.2867
    139  CB        -1.7170   32.5720  247.2550 C.3   164  TRP164      0.0550
    140  CG        -2.4130   32.1850  248.5500 C.ar  164  TRP164      0.0003
    141  CD1       -3.1070   31.0360  248.7870 C.ar  164  TRP164      0.0946
    142  CD2       -2.4270   32.9230  249.7850 C.ar  164  TRP164      0.0152
    143  NE1       -3.5560   31.0070  250.0960 N.ar  164  TRP164     -0.2442
    144  CE2       -3.1710   32.1640  250.7190 C.ar  164  TRP164      0.0810
    145  CE3       -1.9060   34.1550  250.1810 C.ar  164  TRP164      0.0012
    146  CZ2       -3.3980   32.5970  252.0300 C.ar  164  TRP164      0.0191
    147  CZ3       -2.1470   34.5980  251.4770 C.ar  164  TRP164      0.0001
    148  CH2       -2.8710   33.8120  252.3920 C.ar  164  TRP164      0.0015
@<TRIPOS>BOND
     1   103   104    2
     2   103   102    1
     3   124   123    2
     4   123   122    1
     5   102   101    1
     6   102   105    1
     7   137   138    2
     8   137   136    1
     9   121   122    1
    10   135   136    1
    11   106   105    1
    12   106   108    1
    13   122   125    1
    14   136   139    1
    15   105   107    1
    16   133   131   ar
    17   133   134   ar
    18   131   128   ar
    19     1     2    1
    20   139   140    1
    21   125   126    1
    22   112   111    2
    23    92    93    2
    24    92    91    1
    25   109   110    1
    26   111   110    1
    27   134   132   ar
    28   128   126   ar
    29   128   130   ar
    30     4     3    2
    31   126   127   ar
    32    91    90    1
    33    91    94    1
    34   110   113    1
    35     3     2    1
    36     2     5    1
    37   132   130   ar
    38   140   141   ar
    39   140   142   ar
    40   130   129   ar
    41   141   143   ar
    42    94    95    1
    43     8    10   ar
    44     8     6   ar
    45   127   129   ar
    46    95    96    1
    47    10    11   ar
    48     5     6    1
    49     6     7   ar
    50   113   114    1
    51    96    97    1
    52   142   145   ar
    53   142   144   ar
    54    11    12    1
    55    11     9   ar
    56    97    98    2
    57   143   144   ar
    58   114   116   ar
    59   114   115   ar
    60   145   147   ar
    61   116   118   ar
    62   100    98    1
    63     7     9   ar
    64    98    99    1
    65    13    14    1
    66   115   117   ar
    67   118   119   ar
    68    16    15    2
    69   144   146   ar
    70   117   119   ar
    71   119   120    1
    72   147   148   ar
    73    30    31    1
    74    15    14    1
    75    14    17    1
    76   146   148   ar
    77    35    34    1
    78    17    18    1
    79    33    32    2
    80    36    34    1
    81    18    19    1
    82    31    34    1
    83    31    32    1
    84    19    20    1
    85    22    21    1
    86    20    21    2
    87    21    23    1
    88    26    25    1
    89    26    27    2
    90    29    28    1
    91    25    28    1
    92    25    24    1
    93    67    66    1
    94    45    44    1
    95    54    55   ar
    96    54    52   ar
    97    55    53   ar
    98    89    88   ar
    99    89    87   ar
   100    44    43    1
   101    88    86   ar
   102    66    64   ar
   103    66    65   ar
   104    64    62   ar
   105    52    51   ar
   106    87    85   ar
   107    86    83   ar
   108    65    63   ar
   109    53    51   ar
   110    85    83   ar
   111    85    84   ar
   112    62    61   ar
   113    83    81   ar
   114    51    50    1
   115    43    42    1
   116    75    73    1
   117    63    61   ar
   118    84    82   ar
   119    61    60    1
   120    81    82   ar
   121    81    80    1
   122    74    73    1
   123    42    41    1
   124    80    77    1
   125    50    47    1
   126    73    72    1
   127    60    57    1
   128    79    78    2
   129    77    78    1
   130    77    76    1
   131    47    48    1
   132    47    46    1
   133    41    38    1
   134    72    69    1
   135    49    48    2
   136    39    38    1
   137    39    40    2
   138    57    58    1
   139    57    56    1
   140    69    68    1
   141    69    70    1
   142    38    37    1
   143    59    58    2
   144    71    70    2
