@<TRIPOS>MOLECULE
tmp/5u17C00.pdb
 148 144 0 0 0
SMALL
GASTEIGER

@<TRIPOS>ATOM
      1  N        -45.5680   36.7400  183.4650 N.3     8  TYR8       -0.1241
      2  CA       -45.7530   37.3110  184.7860 C.3     8  TYR8        0.1605
      3  C        -45.4250   38.8040  184.7420 C.2     8  TYR8        0.2264
      4  O        -44.3640   39.1880  184.2440 O.2     8  TYR8       -0.2867
      5  CB       -44.8650   36.6010  185.7930 C.3     8  TYR8        0.0534
      6  CG       -45.2950   35.1890  186.1550 C.ar    8  TYR8       -0.0201
      7  CD1      -46.4380   34.9630  186.9090 C.ar    8  TYR8       -0.0009
      8  CD2      -44.5380   34.0930  185.7690 C.ar    8  TYR8       -0.0009
      9  CE1      -46.8130   33.6850  187.2700 C.ar    8  TYR8        0.0417
     10  CE2      -44.9090   32.8090  186.1200 C.ar    8  TYR8        0.0417
     11  CZ       -46.0450   32.6100  186.8720 C.ar    8  TYR8        0.1957
     12  OH       -46.4080   31.3280  187.2340 O.3     8  TYR8       -0.2866
     13  N        -45.1360   42.6060  186.8090 N.3    10  ARG10      -0.1245
     14  CA       -45.0690   43.3550  188.0570 C.3    10  ARG10       0.1563
     15  C        -45.3140   44.8310  187.7870 C.2    10  ARG10       0.2260
     16  O        -44.8470   45.3680  186.7760 O.2    10  ARG10      -0.2867
     17  CB       -43.7060   43.1820  188.7470 C.3    10  ARG10       0.0307
     18  CG       -43.3790   41.7670  189.1090 C.3    10  ARG10       0.0489
     19  CD       -42.0620   41.6800  189.8640 C.3    10  ARG10       0.2205
     20  NE       -41.6540   40.2890  190.0220 N.pl3  10  ARG10      -0.0865
     21  CZ       -40.3930   39.8790  190.0720 C.cat  10  ARG10       0.5346
     22  NH1      -39.3900   40.7500  189.9820 N.pl3  10  ARG10       0.1354
     23  NH2      -40.1440   38.5880  190.2010 N.pl3  10  ARG10       0.1354
     24  N        -48.4980   42.0320  191.3650 N.3    23  SER23      -0.1217
     25  CA       -47.9330   41.0920  190.4180 C.3    23  SER23       0.1889
     26  C        -48.9880   40.0670  189.9600 C.2    23  SER23       0.2288
     27  O        -49.6470   39.3970  190.7750 O.2    23  SER23      -0.2866
     28  CB       -46.7150   40.4120  191.0300 C.3    23  SER23       0.2089
     29  OG       -46.0610   39.5840  190.0840 O.3    23  SER23      -0.2183
     30  N        -52.7700   34.0340  188.3130 N.3    33  THR33      -0.1218
     31  CA       -52.2730   34.2750  189.6700 C.3    33  THR33       0.1862
     32  C        -52.2360   35.7630  189.9880 C.2    33  THR33       0.2287
     33  O        -52.1400   36.5890  189.0810 O.2    33  THR33      -0.2866
     34  CB       -50.8430   33.7420  189.8880 C.3    33  THR33       0.1770
     35  OG1      -49.9280   34.5300  189.1210 O.3    33  THR33      -0.2211
     36  CG2      -50.7090   32.2830  189.5050 C.3    33  THR33       0.0375
     37  N        -50.0200   35.1970  197.6730 N.3    42  LYS42      -0.1245
     38  CA       -50.2100   34.8340  196.2740 C.3    42  LYS42       0.1561
     39  C        -51.3660   33.8460  196.1390 C.2    42  LYS42       0.2260
     40  O        -51.3840   32.8030  196.7890 O.2    42  LYS42      -0.2867
     41  CB       -48.9400   34.2610  195.6510 C.3    42  LYS42       0.0271
     42  CG       -49.0810   34.0530  194.1380 C.3    42  LYS42       0.0035
     43  CD       -47.7800   33.6780  193.4650 C.3    42  LYS42       0.0206
     44  CE       -47.9780   33.5410  191.9690 C.3    42  LYS42       0.1093
     45  NZ       -46.7520   33.1750  191.2170 N.3    42  LYS42      -0.1314
     46  N        -47.5820   25.2140  196.8640 N.3    57  HIS57      -0.1241
     47  CA       -47.2140   26.1370  195.7980 C.3    57  HIS57       0.1621
     48  C        -47.4900   27.5790  196.2140 C.2    57  HIS57       0.2264
     49  O        -46.6170   28.4310  196.1060 O.2    57  HIS57      -0.2867
     50  CB       -47.9690   25.8000  194.5050 C.3    57  HIS57       0.0745
     51  CG       -47.6140   26.6830  193.3470 C.ar   57  HIS57       0.0817
     52  ND1      -46.5070   26.4620  192.5550 N.ar   57  HIS57      -0.2268
     53  CD2      -48.2160   27.7880  192.8510 C.ar   57  HIS57       0.1154
     54  CE1      -46.4490   27.3860  191.6130 C.ar   57  HIS57       0.1986
     55  NE2      -47.4690   28.2100  191.7770 N.ar   57  HIS57      -0.2212
     56  N        -44.5690   30.5220  196.9580 N.3    61  TYR61      -0.1241
     57  CA       -44.4830   31.6950  196.0890 C.3    61  TYR61       0.1605
     58  C        -44.9400   32.9410  196.8260 C.2    61  TYR61       0.2264
     59  O        -44.5120   34.0310  196.5130 O.2    61  TYR61      -0.2867
     60  CB       -45.2610   31.4670  194.7670 C.3    61  TYR61       0.0534
     61  CG       -44.3790   30.6880  193.7980 C.ar   61  TYR61      -0.0201
     62  CD1      -43.4080   31.3430  193.0380 C.ar   61  TYR61      -0.0009
     63  CD2      -44.4650   29.3000  193.6920 C.ar   61  TYR61      -0.0009
     64  CE1      -42.5570   30.6410  192.1840 C.ar   61  TYR61       0.0417
     65  CE2      -43.6150   28.5900  192.8410 C.ar   61  TYR61       0.0417
     66  CZ       -42.6660   29.2750  192.0940 C.ar   61  TYR61       0.1957
     67  OH       -41.7990   28.5950  191.2550 O.3    61  TYR61      -0.2866
     68  N        -42.6460   36.1550  196.5390 N.3    65  LEU65      -0.1245
     69  CA       -43.1380   37.4450  196.0760 C.3    65  LEU65       0.1561
     70  C        -42.9960   38.5340  197.1250 C.2    65  LEU65       0.2260
     71  O        -42.8520   39.6990  196.7850 O.2    65  LEU65      -0.2867
     72  CB       -44.6000   37.3330  195.6110 C.3    65  LEU65       0.0270
     73  CG       -44.5610   37.0190  194.1080 C.3    65  LEU65       0.0019
     74  CD1      -44.6020   35.5160  193.8410 C.3    65  LEU65       0.0001
     75  CD2      -45.6120   37.7330  193.3440 C.3    65  LEU65       0.0001
     76  N        -39.6400   39.5560  196.4150 N.3    68  TRP68      -0.1241
     77  CA       -39.5650   40.1980  195.1080 C.3    68  TRP68       0.1605
     78  C        -40.1930   41.5800  195.1870 C.2    68  TRP68       0.2264
     79  O        -39.7660   42.5050  194.5090 O.2    68  TRP68      -0.2867
     80  CB       -40.2630   39.3450  194.0270 C.3    68  TRP68       0.0550
     81  CG       -39.5270   38.0880  193.7060 C.ar   68  TRP68       0.0003
     82  CD1      -38.2380   37.7810  194.0650 C.ar   68  TRP68       0.0946
     83  CD2      -40.0270   36.9480  193.0010 C.ar   68  TRP68       0.0152
     84  NE1      -37.9000   36.5350  193.6010 N.ar   68  TRP68      -0.2442
     85  CE2      -38.9780   35.9990  192.9420 C.ar   68  TRP68       0.0810
     86  CE3      -41.2420   36.6450  192.3860 C.ar   68  TRP68       0.0012
     87  CZ2      -39.1180   34.7580  192.3000 C.ar   68  TRP68       0.0191
     88  CZ3      -41.3740   35.4190  191.7370 C.ar   68  TRP68       0.0001
     89  CH2      -40.3190   34.4840  191.7240 C.ar   68  TRP68       0.0015
     90  N        -42.4120   45.2440  185.0110 N.3    93  ARG93      -0.1245
     91  CA       -41.6120   44.2160  184.4080 C.3    93  ARG93       0.1563
     92  C        -42.5380   43.2260  183.7620 C.2    93  ARG93       0.2260
     93  O        -43.6670   43.0080  184.1990 O.2    93  ARG93      -0.2867
     94  CB       -40.7130   43.5350  185.4460 C.3    93  ARG93       0.0307
     95  CG       -40.5660   42.0150  185.3170 C.3    93  ARG93       0.0489
     96  CD       -39.5810   41.4840  186.3510 C.3    93  ARG93       0.2205
     97  NE       -39.7470   40.0570  186.6260 N.pl3  93  ARG93      -0.0865
     98  CZ       -38.7480   39.1880  186.6450 C.cat  93  ARG93       0.5346
     99  NH1      -37.5070   39.5930  186.4160 N.pl3  93  ARG93       0.1354
    100  NH2      -38.9890   37.9200  186.9190 N.pl3  93  ARG93       0.1354
    101  N        -42.1530   39.1810  182.1950 N.3    95  ILE95      -0.1245
    102  CA       -41.3410   38.0460  181.8130 C.3    95  ILE95       0.1561
    103  C        -42.2680   36.9780  181.2850 C.2    95  ILE95       0.2260
    104  O        -43.3870   36.8370  181.7580 O.2    95  ILE95      -0.2867
    105  CB       -40.5040   37.4860  183.0110 C.3    95  ILE95       0.0252
    106  CG1      -39.3400   36.6300  182.5090 C.3    95  ILE95       0.0019
    107  CG2      -41.3960   36.7060  184.0140 C.3    95  ILE95       0.0019
    108  CD1      -38.3500   36.2160  183.6820 C.3    95  ILE95       0.0001
    109  N        -28.8150   32.3630  184.0150 N.3   151  TYR151     -0.1241
    110  CA       -29.9780   31.8730  184.7230 C.3   151  TYR151      0.1605
    111  C        -31.2520   32.3370  183.9890 C.2   151  TYR151      0.2264
    112  O        -32.1890   31.5550  183.8560 O.2   151  TYR151     -0.2867
    113  CB       -29.9760   32.3310  186.1980 C.3   151  TYR151      0.0534
    114  CG       -31.3660   32.5330  186.7140 C.ar  151  TYR151     -0.0201
    115  CD1      -32.1600   31.4510  187.0940 C.ar  151  TYR151     -0.0009
    116  CD2      -31.9130   33.7980  186.7660 C.ar  151  TYR151     -0.0009
    117  CE1      -33.4670   31.6410  187.5300 C.ar  151  TYR151      0.0417
    118  CE2      -33.2130   34.0010  187.1850 C.ar  151  TYR151      0.0417
    119  CZ       -33.9890   32.9320  187.5660 C.ar  151  TYR151      0.1957
    120  OH       -35.2930   33.1770  187.9860 O.3   151  TYR151     -0.2866
    121  N        -34.1590   30.0790  182.3710 N.3   155  TRP155     -0.1241
    122  CA       -35.5140   30.1440  182.8910 C.3   155  TRP155      0.1605
    123  C        -36.4970   30.3770  181.7230 C.2   155  TRP155      0.2264
    124  O        -37.5130   29.7130  181.6200 O.2   155  TRP155     -0.2867
    125  CB       -35.6700   31.2270  183.9610 C.3   155  TRP155      0.0550
    126  CG       -36.9610   31.0480  184.6790 C.ar  155  TRP155      0.0003
    127  CD1      -37.1950   30.2820  185.7930 C.ar  155  TRP155      0.0946
    128  CD2      -38.2230   31.6030  184.2930 C.ar  155  TRP155      0.0152
    129  NE1      -38.5340   30.3490  186.1310 N.ar  155  TRP155     -0.2442
    130  CE2      -39.1850   31.1330  185.2040 C.ar  155  TRP155      0.0810
    131  CE3      -38.6320   32.4470  183.2470 C.ar  155  TRP155      0.0012
    132  CZ2      -40.5240   31.4960  185.1180 C.ar  155  TRP155      0.0191
    133  CZ3      -39.9710   32.8000  183.1560 C.ar  155  TRP155      0.0001
    134  CH2      -40.8940   32.3390  184.0910 C.ar  155  TRP155      0.0015
    135  N        -43.4640   25.2450  182.6240 N.3   163  TRP163     -0.1241
    136  CA       -44.5930   25.7440  183.4070 C.3   163  TRP163      0.1605
    137  C        -45.8130   25.9450  182.4960 C.2   163  TRP163      0.2264
    138  O        -46.9470   25.6070  182.8540 O.2   163  TRP163     -0.2867
    139  CB       -44.2430   27.0670  184.0990 C.3   163  TRP163      0.0550
    140  CG       -43.4290   27.0020  185.3670 C.ar  163  TRP163      0.0003
    141  CD1      -42.1630   27.5040  185.5450 C.ar  163  TRP163      0.0946
    142  CD2      -43.8230   26.4730  186.6370 C.ar  163  TRP163      0.0152
    143  NE1      -41.7540   27.3120  186.8200 N.ar  163  TRP163     -0.2442
    144  CE2      -42.7390   26.6630  187.5170 C.ar  163  TRP163      0.0810
    145  CE3      -44.9710   25.8340  187.1120 C.ar  163  TRP163      0.0012
    146  CZ2      -42.7780   26.2620  188.8490 C.ar  163  TRP163      0.0191
    147  CZ3      -45.0070   25.4240  188.4350 C.ar  163  TRP163      0.0001
    148  CH2      -43.9210   25.6340  189.2870 C.ar  163  TRP163      0.0015
@<TRIPOS>BOND
     1   103   104    2
     2   103   102    1
     3   124   123    2
     4   123   122    1
     5   102   101    1
     6   102   105    1
     7   121   122    1
     8   137   138    2
     9   137   136    1
    10   106   105    1
    11   106   108    1
    12   135   136    1
    13   122   125    1
    14   105   107    1
    15   133   131   ar
    16   133   134   ar
    17   131   128   ar
    18   136   139    1
    19     1     2    1
    20    92    93    2
    21    92    91    1
    22   112   111    2
    23   125   126    1
    24   111   110    1
    25   109   110    1
    26   134   132   ar
    27   139   140    1
    28     4     3    2
    29   128   126   ar
    30   128   130   ar
    31    91    90    1
    32    91    94    1
    33   126   127   ar
    34   110   113    1
    35     3     2    1
    36     2     5    1
    37   132   130   ar
    38   130   129   ar
    39    95    94    1
    40    95    96    1
    41   140   141   ar
    42   140   142   ar
    43   141   143   ar
    44     8    10   ar
    45     8     6   ar
    46     5     6    1
    47   127   129   ar
    48    10    11   ar
    49     6     7   ar
    50   113   114    1
    51    96    97    1
    52    99    98    1
    53    97    98    2
    54   142   145   ar
    55   142   144   ar
    56    98   100    1
    57   114   116   ar
    58   114   115   ar
    59   116   118   ar
    60    16    15    2
    61    13    14    1
    62   143   144   ar
    63    11    12    1
    64    11     9   ar
    65     7     9   ar
    66   115   117   ar
    67   145   147   ar
    68   118   119   ar
    69   144   146   ar
    70   117   119   ar
    71   119   120    1
    72    15    14    1
    73    14    17    1
    74    30    31    1
    75   147   148   ar
    76    17    18    1
    77   146   148   ar
    78    33    32    2
    79    18    19    1
    80    35    34    1
    81    36    34    1
    82    31    34    1
    83    31    32    1
    84    19    20    1
    85    26    25    1
    86    26    27    2
    87    22    21    1
    88    20    21    2
    89    21    23    1
    90    29    28    1
    91    25    28    1
    92    25    24    1
    93    45    44    1
    94    67    66    1
    95    54    55   ar
    96    54    52   ar
    97    89    88   ar
    98    89    87   ar
    99    88    86   ar
   100    55    53   ar
   101    44    43    1
   102    66    64   ar
   103    66    65   ar
   104    64    62   ar
   105    87    85   ar
   106    86    83   ar
   107    52    51   ar
   108    65    63   ar
   109    53    51   ar
   110    85    83   ar
   111    85    84   ar
   112    83    81   ar
   113    62    61   ar
   114    75    73    1
   115    51    50    1
   116    43    42    1
   117    84    82   ar
   118    63    61   ar
   119    81    80    1
   120    81    82   ar
   121    61    60    1
   122    74    73    1
   123    80    77    1
   124    73    72    1
   125    42    41    1
   126    50    47    1
   127    79    78    2
   128    60    57    1
   129    77    78    1
   130    77    76    1
   131    72    69    1
   132    41    38    1
   133    47    48    1
   134    47    46    1
   135    69    68    1
   136    69    70    1
   137    57    58    1
   138    57    56    1
   139    49    48    2
   140    39    38    1
   141    39    40    2
   142    38    37    1
   143    59    58    2
   144    71    70    2
