@<TRIPOS>MOLECULE
tmp/5u18A01.pdb
 164 158 0 0 0
SMALL
GASTEIGER

@<TRIPOS>ATOM
      1  N          4.5910  -15.1130   18.6040 N.3    94  ASP94      -0.1225
      2  CA         3.3590  -15.8860   18.5540 C.3    94  ASP94       0.1805
      3  C          3.3150  -16.8820   19.7250 C.2    94  ASP94       0.2598
      4  O          4.0990  -17.8400   19.7590 O.2    94  ASP94      -0.2718
      5  CB         3.2720  -16.6070   17.2050 C.3    94  ASP94       0.1424
      6  CG         1.8750  -17.1350   16.8970 C.2    94  ASP94       0.3668
      7  OD1        0.9330  -16.9000   17.6910 O.co2  94  ASP94      -0.2456
      8  OD2        1.7220  -17.7620   15.8230 O.co2  94  ASP94      -0.2456
      9  N          2.4320  -16.6360   20.6950 N.am   95  VAL95      -0.1966
     10  CA         2.3060  -17.5000   21.8720 C.3    95  VAL95       0.1727
     11  C          0.8370  -17.6950   22.2120 C.2    95  VAL95       0.2616
     12  O         -0.0220  -16.9780   21.6830 O.2    95  VAL95      -0.2715
     13  CB         3.0370  -16.9260   23.1210 C.3    95  VAL95       0.0290
     14  CG1        4.5370  -16.8330   22.8680 C.3    95  VAL95       0.0023
     15  CG2        2.4470  -15.5610   23.5090 C.3    95  VAL95       0.0023
     16  N          0.5520  -18.6560   23.0910 N.am   96  GLU96      -0.1963
     17  CA        -0.8310  -18.9740   23.4630 C.3    96  GLU96       0.1733
     18  C         -1.4730  -17.8350   24.2710 C.2    96  GLU96       0.2616
     19  O         -0.7710  -17.0760   24.9460 O.2    96  GLU96      -0.2715
     20  CB        -0.8850  -20.2930   24.2510 C.3    96  GLU96       0.0429
     21  CG        -0.0640  -20.2970   25.5540 C.3    96  GLU96       0.1163
     22  CD         1.4090  -20.7200   25.3490 C.2    96  GLU96       0.3649
     23  OE1        1.9010  -20.6790   24.2020 O.co2  96  GLU96      -0.2457
     24  OE2        2.0690  -21.1080   26.3410 O.co2  96  GLU96      -0.2457
     25  N         -2.8020  -17.7280   24.2110 N.am   97  GLU97      -0.1977
     26  CA        -3.5260  -16.6420   24.8790 C.3    97  GLU97       0.1602
     27  C         -3.3020  -16.5990   26.3920 C.2    97  GLU97       0.2287
     28  O         -3.3770  -15.5330   27.0010 O.2    97  GLU97      -0.2864
     29  CB        -5.0380  -16.7310   24.6060 C.3    97  GLU97       0.0415
     30  CG        -5.4740  -16.3830   23.1650 C.3    97  GLU97       0.1163
     31  CD        -5.4290  -14.8790   22.8210 C.2    97  GLU97       0.3649
     32  OE1       -5.8860  -14.0200   23.6370 O.co2  97  GLU97      -0.2457
     33  OE2       -4.9330  -14.5680   21.7020 O.co2  97  GLU97      -0.2457
     34  N         -0.3910  -14.1980   27.3640 N.3   100  GLN100     -0.1245
     35  CA        -0.3740  -12.8690   26.7610 C.3   100  GLN100      0.1566
     36  C         -0.6580  -11.7600   27.7720 C.2   100  GLN100      0.2260
     37  O         -1.7030  -11.7490   28.4130 O.2   100  GLN100     -0.2867
     38  CB        -1.3810  -12.7950   25.6070 C.3   100  GLN100      0.0367
     39  CG        -0.9670  -13.6310   24.4210 C.3   100  GLN100      0.0905
     40  CD        -2.0160  -13.6780   23.3290 C.2   100  GLN100      0.2608
     41  OE1       -2.9750  -12.9040   23.3370 O.2   100  GLN100     -0.2717
     42  NE2       -1.8380  -14.5900   22.3830 N.am  100  GLN100     -0.0878
     43  N         -0.1920   -7.9730   18.3820 N.3   106  ASP106     -0.1239
     44  CA        -0.4760   -8.9690   17.3540 C.3   106  ASP106      0.1674
     45  C          0.8340   -9.3110   16.6700 C.2   106  ASP106      0.2266
     46  O          1.5230   -8.4200   16.1670 O.2   106  ASP106     -0.2867
     47  CB        -1.5240   -8.4220   16.3720 C.3   106  ASP106      0.1410
     48  CG        -1.8400   -9.3690   15.2010 C.2   106  ASP106      0.3668
     49  OD1       -0.9330  -10.0040   14.6270 O.co2 106  ASP106     -0.2456
     50  OD2       -3.0260   -9.4280   14.8140 O.co2 106  ASP106     -0.2456
     51  N         -0.2360  -12.3600   12.7990 N.3   109  TRP109     -0.1227
     52  CA        -1.0220  -13.5300   12.4550 C.3   109  TRP109      0.1737
     53  C         -1.5200  -13.4300   11.0170 C.2   109  TRP109      0.2595
     54  O         -1.4840  -14.4130   10.2890 O.2   109  TRP109     -0.2718
     55  CB        -2.2100  -13.7040   13.4020 C.3   109  TRP109      0.0564
     56  CG        -1.8640  -14.1580   14.7980 C.ar  109  TRP109      0.0003
     57  CD1       -1.0630  -15.2070   15.1490 C.ar  109  TRP109      0.0946
     58  CD2       -2.3470  -13.5950   16.0260 C.ar  109  TRP109      0.0152
     59  NE1       -1.0050  -15.3220   16.5190 N.ar  109  TRP109     -0.2442
     60  CE2       -1.7790  -14.3400   17.0830 C.ar  109  TRP109      0.0810
     61  CE3       -3.1850  -12.5140   16.3370 C.ar  109  TRP109      0.0012
     62  CZ2       -2.0270  -14.0490   18.4300 C.ar  109  TRP109      0.0191
     63  CZ3       -3.4350  -12.2270   17.6820 C.ar  109  TRP109      0.0001
     64  CH2       -2.8580  -12.9930   18.7050 C.ar  109  TRP109      0.0015
     65  N         -1.9460  -12.2400   10.5940 N.am  110  GLU110     -0.1979
     66  CA        -2.5320  -12.1170    9.2650 C.3   110  GLU110      0.1602
     67  C         -1.9930  -10.9920    8.3990 C.2   110  GLU110      0.2287
     68  O         -2.4420  -10.8320    7.2610 O.2   110  GLU110     -0.2864
     69  CB        -4.0450  -11.9440    9.3830 C.3   110  GLU110      0.0415
     70  CG        -4.7610  -13.2500    9.6790 C.3   110  GLU110      0.1163
     71  CD        -6.2640  -13.1610    9.4710 C.2   110  GLU110      0.3649
     72  OE1       -6.9840  -12.8640   10.4470 O.co2 110  GLU110     -0.2457
     73  OE2       -6.7220  -13.3950    8.3250 O.co2 110  GLU110     -0.2457
     74  N         -7.1800   -3.8020   10.6510 N.3   193  ASN193     -0.1225
     75  CA        -7.1240   -5.2010   11.0410 C.3   193  ASN193      0.1785
     76  C         -7.8200   -5.3040   12.3890 C.2   193  ASN193      0.2598
     77  O         -7.1740   -5.1490   13.4280 O.2   193  ASN193     -0.2718
     78  CB        -5.6860   -5.7210   11.1160 C.3   193  ASN193      0.1169
     79  CG        -5.6220   -7.2160   11.3780 C.2   193  ASN193      0.2627
     80  OD1       -6.6620   -7.8780   11.4950 O.2   193  ASN193     -0.2716
     81  ND2       -4.4050   -7.7590   11.4670 N.am  193  ASN193     -0.0877
     82  N         -9.1290   -5.5550   12.3690 N.am  194  SER194     -0.1938
     83  CA        -9.9370   -5.4040   13.5820 C.3   194  SER194      0.2040
     84  C         -9.6520   -6.4890   14.6210 C.2   194  SER194      0.2485
     85  O         -9.3570   -7.6370   14.2820 O.2   194  SER194     -0.2729
     86  CB       -11.4440   -5.3780   13.2460 C.3   194  SER194      0.2129
     87  OG       -11.9120   -6.6290   12.7790 O.3   194  SER194     -0.2179
     88  N         -9.7230   -6.1130   15.9090 N.am  195  PRO195     -0.2715
     89  CA        -9.5550   -7.1040   16.9690 C.3   195  PRO195      0.1536
     90  C        -10.8620   -7.8650   17.1900 C.2   195  PRO195      0.2599
     91  O        -11.5100   -7.7280   18.2290 O.2   195  PRO195     -0.2715
     92  CB        -9.1680   -6.2600   18.1880 C.3   195  PRO195      0.0310
     93  CG        -9.7410   -4.9240   17.9390 C.3   195  PRO195      0.0237
     94  CD        -9.9440   -4.7570   16.4460 C.3   195  PRO195      0.0939
     95  N        -11.2310   -8.6680   16.2060 N.am  196  THR196     -0.1937
     96  CA       -12.4190   -9.4980   16.3160 C.3   196  THR196      0.2028
     97  C        -12.1090  -10.9030   15.8130 C.2   196  THR196      0.2642
     98  O        -11.3900  -11.0730   14.8300 O.2   196  THR196     -0.2714
     99  CB       -13.6010   -8.9060   15.5250 C.3   196  THR196      0.1808
    100  OG1      -13.2570   -8.8200   14.1360 O.3   196  THR196     -0.2208
    101  CG2      -13.9560   -7.5330   16.0340 C.3   196  THR196      0.0379
    102  N        -12.6480  -11.9070   16.4920 N.am  197  ASN197     -0.1971
    103  CA       -12.3940  -13.2970   16.1260 C.3   197  ASN197      0.1688
    104  C        -13.5450  -14.1800   16.6090 C.2   197  ASN197      0.2292
    105  O        -14.6160  -14.2110   15.9970 O.2   197  ASN197     -0.2864
    106  CB       -11.0390  -13.7650   16.6980 C.3   197  ASN197      0.1181
    107  CG       -10.5240  -15.0530   16.0460 C.2   197  ASN197      0.2629
    108  OD1      -10.8970  -15.3920   14.9290 O.2   197  ASN197     -0.2716
    109  ND2       -9.6510  -15.7610   16.7470 N.am  197  ASN197     -0.0877
    110  N         -7.1940   -7.5410   21.7050 N.3   207  LEU207     -0.1231
    111  CA        -7.1180   -8.3120   20.4730 C.3   207  LEU207      0.1693
    112  C         -8.4480   -8.9860   20.1230 C.2   207  LEU207      0.2591
    113  O         -8.6480   -9.4320   18.9900 O.2   207  LEU207     -0.2718
    114  CB        -5.9990   -9.3510   20.5730 C.3   207  LEU207      0.0284
    115  CG        -4.5870   -8.7320   20.5440 C.3   207  LEU207      0.0019
    116  CD1       -3.5310   -9.7920   20.7490 C.3   207  LEU207      0.0001
    117  CD2       -4.3330   -7.9670   19.2360 C.3   207  LEU207      0.0001
    118  N         -9.3550   -9.0630   21.0970 N.am  208  GLU208     -0.1979
    119  CA       -10.7030   -9.5730   20.8460 C.3   208  GLU208      0.1602
    120  C        -11.7060   -8.6860   21.5680 C.2   208  GLU208      0.2287
    121  O        -12.1030   -8.9890   22.6910 O.2   208  GLU208     -0.2864
    122  CB       -10.8410  -11.0400   21.2920 C.3   208  GLU208      0.0415
    123  CG       -10.4900  -12.0390   20.1990 C.3   208  GLU208      0.1163
    124  CD       -10.6420  -13.4990   20.6300 C.2   208  GLU208      0.3649
    125  OE1      -10.1190  -13.8810   21.7090 O.co2 208  GLU208     -0.2457
    126  OE2      -11.2770  -14.2690   19.8710 O.co2 208  GLU208     -0.2457
    127  N        -10.2960   -6.2300    7.9430 N.3   234  ASN234     -0.1240
    128  CA       -10.2710   -7.6420    8.2930 C.3   234  ASN234      0.1653
    129  C        -11.2380   -7.8330    9.4550 C.2   234  ASN234      0.2266
    130  O        -11.2140   -7.0640   10.3970 O.2   234  ASN234     -0.2867
    131  CB        -8.8470   -8.0870    8.6690 C.3   234  ASN234      0.1155
    132  CG        -8.7760   -9.5570    9.0850 C.2   234  ASN234      0.2627
    133  OD1       -9.5430  -10.3950    8.6070 O.2   234  ASN234     -0.2716
    134  ND2       -7.8670   -9.8650   10.0020 N.am  234  ASN234     -0.0877
    135  N        -13.5900  -17.7800    5.3640 N.3   268  GLN268     -0.1245
    136  CA       -13.8590  -18.9110    6.2330 C.3   268  GLN268      0.1566
    137  C        -15.2900  -18.7940    6.7630 C.2   268  GLN268      0.2260
    138  O        -15.8550  -17.7030    6.8390 O.2   268  GLN268     -0.2867
    139  CB       -12.8320  -18.9740    7.3720 C.3   268  GLN268      0.0367
    140  CG       -11.3880  -19.0700    6.8750 C.3   268  GLN268      0.0905
    141  CD       -10.3370  -18.8790    7.9690 C.2   268  GLN268      0.2608
    142  OE1      -10.6190  -18.3900    9.0610 O.2   268  GLN268     -0.2717
    143  NE2       -9.1110  -19.2830    7.6690 N.am  268  GLN268     -0.0878
    144  N        -15.1410  -15.3620    8.6520 N.3   280  ARG280     -0.1245
    145  CA       -14.0420  -14.4210    8.5850 C.3   280  ARG280      0.1563
    146  C        -13.8930  -13.9310    7.1640 C.2   280  ARG280      0.2260
    147  O        -13.8170  -14.7240    6.2340 O.2   280  ARG280     -0.2867
    148  CB       -12.7250  -15.0250    9.0550 C.3   280  ARG280      0.0307
    149  CG       -11.5380  -14.1080    8.7270 C.3   280  ARG280      0.0489
    150  CD       -10.2820  -14.4810    9.5070 C.3   280  ARG280      0.2205
    151  NE       -10.4560  -14.3790   10.9540 N.pl3 280  ARG280     -0.0865
    152  CZ       -10.5810  -13.2410   11.6400 C.cat 280  ARG280      0.5346
    153  NH1      -10.5820  -12.0510   11.0220 N.pl3 280  ARG280      0.1354
    154  NH2      -10.7160  -13.2880   12.9640 N.pl3 280  ARG280      0.1354
    155  N         -7.8130  -17.3860    2.2160 N.3   300  HIS300     -0.1241
    156  CA        -6.9620  -18.1310    3.1560 C.3   300  HIS300      0.1621
    157  C         -6.3990  -19.3780    2.4620 C.2   300  HIS300      0.2264
    158  O         -5.1800  -19.5480    2.3950 O.2   300  HIS300     -0.2867
    159  CB        -7.7260  -18.5230    4.4330 C.3   300  HIS300      0.0745
    160  CG        -7.9720  -17.3680    5.3650 C.ar  300  HIS300      0.0817
    161  ND1       -9.1340  -16.6320    5.3470 N.ar  300  HIS300     -0.2268
    162  CD2       -7.1830  -16.8140    6.3170 C.ar  300  HIS300      0.1154
    163  CE1       -9.0560  -15.6710    6.2540 C.ar  300  HIS300      0.1986
    164  NE2       -7.8850  -15.7560    6.8480 N.ar  300  HIS300     -0.2212
@<TRIPOS>BOND
     1   155   156    1
     2   158   157    2
     3   157   156    1
     4   156   159    1
     5   159   160    1
     6   161   160   ar
     7   161   163   ar
     8   135   136    1
     9   160   162   ar
    10   136   137    1
    11   136   139    1
    12   147   146    2
    13   163   164   ar
    14   162   164   ar
    15   137   138    2
    16   140   139    1
    17   140   141    1
    18   146   145    1
    19    68    67    2
    20   143   141   am
    21   127   128    1
    22   141   142    2
    23   128   131    1
    24   128   129    1
    25    73    71   ar
    26    67    66    1
    27   145   144    1
    28   145   148    1
    29   133   132    2
    30   131   132    1
    31   149   148    1
    32   149   150    1
    33   132   134   am
    34    66    69    1
    35    66    65    1
    36    69    70    1
    37   129   130    2
    38    71    70    1
    39    71    72   ar
    40   150   151    1
    41    54    53    2
    42    65    53   am
    43    74    75    1
    44   151   152    2
    45    53    52    1
    46   153   152    1
    47    75    78    1
    48    75    76    1
    49    78    79    1
    50    79    81   am
    51    79    80    2
    52   152   154    1
    53    82    76   am
    54    82    83    1
    55    76    77    2
    56    52    51    1
    57    52    55    1
    58    87    86    1
    59    86    83    1
    60    55    56    1
    61    83    84    1
    62   100    99    1
    63    85    84    2
    64    84    88   am
    65    49    48   ar
    66    56    57   ar
    67    56    58   ar
    68    50    48   ar
    69    98    97    2
    70   108   107    2
    71    57    59   ar
    72    48    47    1
    73    99   101    1
    74    99    96    1
    75    97    96    1
    76    97   102   am
    77     8     6   ar
    78    88    94    1
    79    88    89    1
    80   105   104    2
    81    58    61   ar
    82    58    60   ar
    83   107   106    1
    84   107   109   am
    85   103   102    1
    86   103   104    1
    87   103   106    1
    88    46    45    2
    89    95    96    1
    90    95    90   am
    91    61    63   ar
    92    47    44    1
    93    94    93    1
    94    59    60   ar
    95    45    44    1
    96     6     5    1
    97     6     7   ar
    98    89    90    1
    99    89    92    1
   100    60    62   ar
   101    90    91    2
   102     5     2    1
   103    44    43    1
   104    63    64   ar
   105    93    92    1
   106    62    64   ar
   107     2     1    1
   108     2     3    1
   109   113   112    2
   110   117   115    1
   111     3     4    2
   112     3     9   am
   113   126   124   ar
   114   112   111    1
   115   112   118   am
   116   123   124    1
   117   123   122    1
   118   111   114    1
   119   111   110    1
   120   115   114    1
   121   115   116    1
   122   124   125   ar
   123     9    10    1
   124   119   118    1
   125   119   122    1
   126   119   120    1
   127   120   121    2
   128    12    11    2
   129    33    31   ar
   130    10    11    1
   131    10    13    1
   132    11    16   am
   133    42    40   am
   134    31    30    1
   135    31    32   ar
   136    14    13    1
   137    16    17    1
   138    13    15    1
   139    30    29    1
   140    40    41    2
   141    40    39    1
   142    17    20    1
   143    17    18    1
   144    23    22   ar
   145    25    18   am
   146    25    26    1
   147    20    21    1
   148    18    19    2
   149    39    38    1
   150    29    26    1
   151    26    27    1
   152    22    21    1
   153    22    24   ar
   154    38    35    1
   155    27    28    2
   156    35    34    1
   157    35    36    1
   158    36    37    2
