@<TRIPOS>MOLECULE
tmp/5u1eA00.pdb
 164 158 0 0 0
SMALL
GASTEIGER

@<TRIPOS>ATOM
      1  N          4.5290  -15.2190   18.4200 N.3    98  ASP98      -0.1225
      2  CA         3.2750  -15.9590   18.4760 C.3    98  ASP98       0.1805
      3  C          3.2840  -16.9770   19.6360 C.2    98  ASP98       0.2598
      4  O          4.0570  -17.9470   19.6120 O.2    98  ASP98      -0.2718
      5  CB         3.0410  -16.6730   17.1340 C.3    98  ASP98       0.1424
      6  CG         1.5940  -17.0980   16.9280 C.2    98  ASP98       0.3668
      7  OD1        0.7240  -16.7460   17.7610 O.co2  98  ASP98      -0.2456
      8  OD2        1.3220  -17.7550   15.8980 O.co2  98  ASP98      -0.2456
      9  N          2.4270  -16.7500   20.6380 N.am   99  VAL99      -0.1966
     10  CA         2.3070  -17.6290   21.8110 C.3    99  VAL99       0.1727
     11  C          0.8560  -17.7910   22.2420 C.2    99  VAL99       0.2616
     12  O         -0.0220  -17.0440   21.7880 O.2    99  VAL99      -0.2715
     13  CB         3.0910  -17.0950   23.0360 C.3    99  VAL99       0.0290
     14  CG1        4.5930  -17.0830   22.7670 C.3    99  VAL99       0.0023
     15  CG2        2.5750  -15.7150   23.4300 C.3    99  VAL99       0.0023
     16  N          0.6070  -18.7280   23.1560 N.am  100  GLU100     -0.1963
     17  CA        -0.7620  -19.0420   23.5490 C.3   100  GLU100      0.1733
     18  C         -1.3940  -17.9150   24.3510 C.2   100  GLU100      0.2616
     19  O         -0.6960  -17.1660   25.0210 O.2   100  GLU100     -0.2715
     20  CB        -0.8080  -20.3480   24.3510 C.3   100  GLU100      0.0429
     21  CG        -0.0190  -20.3150   25.6460 C.3   100  GLU100      0.1163
     22  CD         1.4170  -20.8030   25.4950 C.2   100  GLU100      0.3649
     23  OE1        1.9000  -20.9290   24.3490 O.co2 100  GLU100     -0.2457
     24  OE2        2.0620  -21.0520   26.5400 O.co2 100  GLU100     -0.2457
     25  N         -2.7200  -17.8080   24.2680 N.am  101  GLU101     -0.1977
     26  CA        -3.5010  -16.7700   24.9510 C.3   101  GLU101      0.1602
     27  C         -3.0890  -16.6060   26.3950 C.2   101  GLU101      0.2287
     28  O         -2.9490  -15.4980   26.9010 O.2   101  GLU101     -0.2864
     29  CB        -5.0010  -17.1020   24.9070 C.3   101  GLU101      0.0415
     30  CG        -5.4370  -17.9560   23.7210 C.3   101  GLU101      0.1163
     31  CD        -5.9200  -17.1350   22.5470 C.2   101  GLU101      0.3649
     32  OE1       -5.7480  -15.8890   22.5760 O.co2 101  GLU101     -0.2457
     33  OE2       -6.4860  -17.7370   21.6010 O.co2 101  GLU101     -0.2457
     34  N         -0.2790  -14.3160   27.5350 N.3   104  GLN104     -0.1245
     35  CA        -0.3190  -12.9810   26.9240 C.3   104  GLN104      0.1566
     36  C         -0.5670  -11.8730   27.9440 C.2   104  GLN104      0.2260
     37  O         -1.5740  -11.8720   28.6410 O.2   104  GLN104     -0.2867
     38  CB        -1.3880  -12.9240   25.8310 C.3   104  GLN104      0.0367
     39  CG        -0.9320  -13.5430   24.5260 C.3   104  GLN104      0.0905
     40  CD        -2.0550  -13.7030   23.5310 C.2   104  GLN104      0.2608
     41  OE1       -3.0050  -12.9290   23.5250 O.2   104  GLN104     -0.2717
     42  NE2       -1.9550  -14.7140   22.6870 N.am  104  GLN104     -0.0878
     43  N         -0.2240   -8.0840   18.3840 N.3   110  ASP110     -0.1239
     44  CA        -0.4390   -8.9980   17.2530 C.3   110  ASP110      0.1674
     45  C          0.8760   -9.4020   16.6040 C.2   110  ASP110      0.2266
     46  O          1.5770   -8.5720   16.0310 O.2   110  ASP110     -0.2867
     47  CB        -1.3630   -8.3450   16.2160 C.3   110  ASP110      0.1410
     48  CG        -1.8160   -9.3090   15.1070 C.2   110  ASP110      0.3668
     49  OD1       -1.0080  -10.1220   14.6160 O.co2 110  ASP110     -0.2456
     50  OD2       -2.9900   -9.2200   14.6920 O.co2 110  ASP110     -0.2456
     51  N         -0.5070  -12.1400   12.6310 N.3   113  TRP113     -0.1227
     52  CA        -1.2850  -13.3550   12.4130 C.3   113  TRP113      0.1737
     53  C         -1.8060  -13.2770   10.9700 C.2   113  TRP113      0.2595
     54  O         -1.7740  -14.2700   10.2540 O.2   113  TRP113     -0.2718
     55  CB        -2.4710  -13.4710   13.3680 C.3   113  TRP113      0.0564
     56  CG        -2.1540  -13.9950   14.7340 C.ar  113  TRP113      0.0003
     57  CD1       -1.4800  -15.1490   15.0420 C.ar  113  TRP113      0.0946
     58  CD2       -2.5440  -13.4120   15.9890 C.ar  113  TRP113      0.0152
     59  NE1       -1.4060  -15.3020   16.4070 N.ar  113  TRP113     -0.2442
     60  CE2       -2.0490  -14.2530   17.0130 C.ar  113  TRP113      0.0810
     61  CE3       -3.2380  -12.2470   16.3450 C.ar  113  TRP113      0.0012
     62  CZ2       -2.2330  -13.9680   18.3760 C.ar  113  TRP113      0.0191
     63  CZ3       -3.4200  -11.9630   17.6950 C.ar  113  TRP113      0.0001
     64  CH2       -2.9240  -12.8240   18.6940 C.ar  113  TRP113      0.0015
     65  N         -2.2960  -12.1130   10.5330 N.am  114  GLU114     -0.1979
     66  CA        -2.8420  -12.0250    9.1690 C.3   114  GLU114      0.1602
     67  C         -2.2650  -10.8980    8.3240 C.2   114  GLU114      0.2287
     68  O         -2.7010  -10.6940    7.1780 O.2   114  GLU114     -0.2864
     69  CB        -4.3630  -11.8840    9.2100 C.3   114  GLU114      0.0415
     70  CG        -5.0540  -13.0200    9.9800 C.3   114  GLU114      0.1163
     71  CD        -6.5420  -13.0500    9.7580 C.2   114  GLU114      0.3649
     72  OE1       -7.2940  -12.7760   10.7200 O.co2 114  GLU114     -0.2457
     73  OE2       -6.9600  -13.3670    8.6270 O.co2 114  GLU114     -0.2457
     74  N         -7.4350   -4.0040   10.7340 N.3   197  ASN197     -0.1225
     75  CA        -7.3430   -5.4120   11.0890 C.3   197  ASN197      0.1785
     76  C         -7.9290   -5.5510   12.5000 C.2   197  ASN197      0.2598
     77  O         -7.2170   -5.4530   13.5010 O.2   197  ASN197     -0.2718
     78  CB        -5.8980   -5.8800   11.0030 C.3   197  ASN197      0.1169
     79  CG        -5.7070   -7.3190   11.4540 C.2   197  ASN197      0.2627
     80  OD1       -6.6600   -8.0350   11.7290 O.2   197  ASN197     -0.2716
     81  ND2       -4.4540   -7.7390   11.5290 N.am  197  ASN197     -0.0877
     82  N         -9.2450   -5.7500   12.5570 N.am  198  SER198     -0.1938
     83  CA       -10.0180   -5.5940   13.7960 C.3   198  SER198      0.2040
     84  C         -9.7260   -6.6400   14.8840 C.2   198  SER198      0.2485
     85  O         -9.3790   -7.7880   14.5900 O.2   198  SER198     -0.2729
     86  CB       -11.5210   -5.6090   13.4790 C.3   198  SER198      0.2129
     87  OG       -11.9940   -6.9340   13.2510 O.3   198  SER198     -0.2179
     88  N         -9.8420   -6.2280   16.1540 N.am  199  PRO199     -0.2715
     89  CA        -9.7290   -7.1850   17.2510 C.3   199  PRO199      0.1536
     90  C        -11.0270   -7.9890   17.4000 C.2   199  PRO199      0.2599
     91  O        -11.7930   -7.7870   18.3480 O.2   199  PRO199     -0.2715
     92  CB        -9.4720   -6.2960   18.4720 C.3   199  PRO199      0.0310
     93  CG       -10.1890   -4.9950   18.1300 C.3   199  PRO199      0.0237
     94  CD        -9.9630   -4.8370   16.6350 C.3   199  PRO199      0.0939
     95  N        -11.2910   -8.8710   16.4430 N.am  200  THR200     -0.1937
     96  CA       -12.4520   -9.7210   16.5400 C.3   200  THR200      0.2028
     97  C        -12.0760  -11.1160   16.0630 C.2   200  THR200      0.2642
     98  O        -11.3410  -11.2820   15.0770 O.2   200  THR200     -0.2714
     99  CB       -13.6370   -9.1950   15.7100 C.3   200  THR200      0.1808
    100  OG1      -13.2240   -9.0470   14.3560 O.3   200  THR200     -0.2208
    101  CG2      -14.1470   -7.8350   16.2330 C.3   200  THR200      0.0379
    102  N        -12.5760  -12.1160   16.7720 N.am  201  ASN201     -0.1971
    103  CA       -12.3880  -13.4960   16.3560 C.3   201  ASN201      0.1688
    104  C        -13.5820  -14.3210   16.8490 C.2   201  ASN201      0.2292
    105  O        -14.6410  -14.3070   16.2170 O.2   201  ASN201     -0.2864
    106  CB       -11.0460  -14.0400   16.8700 C.3   201  ASN201      0.1181
    107  CG       -10.6000  -15.3090   16.1460 C.2   201  ASN201      0.2629
    108  OD1      -11.0700  -15.6190   15.0540 O.2   201  ASN201     -0.2716
    109  ND2       -9.6790  -16.0430   16.7590 N.am  201  ASN201     -0.0877
    110  N         -7.2630   -7.6210   21.9560 N.3   211  LEU211     -0.1231
    111  CA        -7.1350   -8.3410   20.6900 C.3   211  LEU211      0.1693
    112  C         -8.4470   -9.0190   20.3040 C.2   211  LEU211      0.2591
    113  O         -8.6500   -9.3710   19.1420 O.2   211  LEU211     -0.2718
    114  CB        -5.9870   -9.3500   20.7560 C.3   211  LEU211      0.0284
    115  CG        -4.6110   -8.6810   20.5650 C.3   211  LEU211      0.0019
    116  CD1       -3.4430   -9.6560   20.7120 C.3   211  LEU211      0.0001
    117  CD2       -4.5210   -7.9200   19.2190 C.3   211  LEU211      0.0001
    118  N         -9.3430   -9.1700   21.2790 N.am  212  GLU212     -0.1979
    119  CA       -10.7030   -9.6310   21.0280 C.3   212  GLU212      0.1602
    120  C        -11.6710   -8.7400   21.8020 C.2   212  GLU212      0.2287
    121  O        -11.9620   -9.0400   22.9620 O.2   212  GLU212     -0.2864
    122  CB       -10.8810  -11.1000   21.4480 C.3   212  GLU212      0.0415
    123  CG       -10.2490  -12.0910   20.5070 C.3   212  GLU212      0.1163
    124  CD       -10.6000  -13.5450   20.8450 C.2   212  GLU212      0.3649
    125  OE1      -10.3020  -14.0030   21.9660 O.co2 212  GLU212     -0.2457
    126  OE2      -11.1720  -14.2390   19.9820 O.co2 212  GLU212     -0.2457
    127  N        -10.5120   -6.2890    8.0060 N.3   238  ASN238     -0.1240
    128  CA       -10.4940   -7.6890    8.4060 C.3   238  ASN238      0.1653
    129  C        -11.3250   -7.8900    9.6610 C.2   238  ASN238      0.2266
    130  O        -11.1100   -7.2220   10.6760 O.2   238  ASN238     -0.2867
    131  CB        -9.0730   -8.1680    8.6750 C.3   238  ASN238      0.1155
    132  CG        -9.0340   -9.6110    9.1510 C.2   238  ASN238      0.2627
    133  OD1       -9.9380  -10.4020    8.8510 O.2   238  ASN238     -0.2716
    134  ND2       -7.9970   -9.9600    9.9070 N.am  238  ASN238     -0.0877
    135  N        -13.9030  -17.7860    5.4670 N.3   272  GLN272     -0.1245
    136  CA       -14.1440  -18.9420    6.3380 C.3   272  GLN272      0.1566
    137  C        -15.5210  -18.8170    7.0010 C.2   272  GLN272      0.2260
    138  O        -15.9940  -17.7070    7.2690 O.2   272  GLN272     -0.2867
    139  CB       -13.0520  -19.0550    7.4100 C.3   272  GLN272      0.0367
    140  CG       -11.6310  -18.9990    6.8490 C.3   272  GLN272      0.0905
    141  CD       -10.5580  -19.0500    7.9230 C.2   272  GLN272      0.2608
    142  OE1      -10.5780  -18.2740    8.8800 O.2   272  GLN272     -0.2717
    143  NE2       -9.6160  -19.9730    7.7700 N.am  272  GLN272     -0.0878
    144  N        -15.3110  -15.4080    8.8320 N.3   284  ARG284     -0.1245
    145  CA       -14.2050  -14.4700    8.7480 C.3   284  ARG284      0.1563
    146  C        -14.1240  -13.9920    7.3160 C.2   284  ARG284      0.2260
    147  O        -14.2530  -14.7780    6.3730 O.2   284  ARG284     -0.2867
    148  CB       -12.8670  -15.0700    9.1840 C.3   284  ARG284      0.0307
    149  CG       -11.7110  -14.0890    8.9860 C.3   284  ARG284      0.0489
    150  CD       -10.4480  -14.4780    9.7370 C.3   284  ARG284      0.2205
    151  NE       -10.5800  -14.4200   11.1930 N.pl3 284  ARG284     -0.0865
    152  CZ       -10.6470  -13.2950   11.9100 C.cat 284  ARG284      0.5346
    153  NH1      -10.6350  -12.1030   11.3110 N.pl3 284  ARG284      0.1354
    154  NH2      -10.7500  -13.3570   13.2320 N.pl3 284  ARG284      0.1354
    155  N         -8.1210  -17.3550    2.4240 N.3   304  HIS304     -0.1241
    156  CA        -7.2130  -18.0730    3.3190 C.3   304  HIS304      0.1621
    157  C         -6.6550  -19.3090    2.6150 C.2   304  HIS304      0.2264
    158  O         -5.4550  -19.5370    2.6670 O.2   304  HIS304     -0.2867
    159  CB        -7.9040  -18.4650    4.6280 C.3   304  HIS304      0.0745
    160  CG        -8.1090  -17.3080    5.5590 C.ar  304  HIS304      0.0817
    161  ND1       -9.2800  -16.5810    5.6000 N.ar  304  HIS304     -0.2268
    162  CD2       -7.2700  -16.7280    6.4510 C.ar  304  HIS304      0.1154
    163  CE1       -9.1600  -15.6150    6.4940 C.ar  304  HIS304      0.1986
    164  NE2       -7.9510  -15.6800    7.0200 N.ar  304  HIS304     -0.2212
@<TRIPOS>BOND
     1   155   156    1
     2   157   158    2
     3   157   156    1
     4   156   159    1
     5   159   160    1
     6   135   136    1
     7   160   161   ar
     8   160   162   ar
     9   161   163   ar
    10   136   137    1
    11   136   139    1
    12   147   146    2
    13   162   164   ar
    14   163   164   ar
    15   140   139    1
    16   140   141    1
    17   137   138    2
    18    68    67    2
    19   146   145    1
    20   143   141   am
    21   141   142    2
    22   127   128    1
    23    67    66    1
    24   128   131    1
    25   128   129    1
    26    73    71   ar
    27   131   132    1
    28   145   144    1
    29   145   148    1
    30   133   132    2
    31   149   148    1
    32   149   150    1
    33   132   134   am
    34    66    69    1
    35    66    65    1
    36    69    70    1
    37   129   130    2
    38   150   151    1
    39    71    70    1
    40    71    72   ar
    41    54    53    2
    42    65    53   am
    43    74    75    1
    44    53    52    1
    45    78    75    1
    46    78    79    1
    47    75    76    1
    48   151   152    2
    49   153   152    1
    50    79    81   am
    51    79    80    2
    52   152   154    1
    53    52    51    1
    54    52    55    1
    55    76    82   am
    56    76    77    2
    57    82    83    1
    58    87    86    1
    59    55    56    1
    60    86    83    1
    61    83    84    1
    62   100    99    1
    63    85    84    2
    64    49    48   ar
    65    50    48   ar
    66    56    57   ar
    67    56    58   ar
    68    84    88   am
    69    57    59   ar
    70   108   107    2
    71    98    97    2
    72    48    47    1
    73    99   101    1
    74    99    96    1
    75     8     6   ar
    76    58    61   ar
    77    58    60   ar
    78    46    45    2
    79    97    96    1
    80    97   102   am
    81   107   109   am
    82   107   106    1
    83    88    94    1
    84    88    89    1
    85    47    44    1
    86   105   104    2
    87    61    63   ar
    88   103   102    1
    89   103   104    1
    90   103   106    1
    91    59    60   ar
    92    95    96    1
    93    95    90   am
    94    45    44    1
    95    94    93    1
    96     6     5    1
    97     6     7   ar
    98    60    62   ar
    99     5     2    1
   100    89    90    1
   101    89    92    1
   102    44    43    1
   103    90    91    2
   104    63    64   ar
   105    93    92    1
   106    62    64   ar
   107     1     2    1
   108     2     3    1
   109   113   112    2
   110   117   115    1
   111     4     3    2
   112     3     9   am
   113   126   124   ar
   114   112   111    1
   115   112   118   am
   116   123   124    1
   117   123   122    1
   118   115   116    1
   119   115   114    1
   120     9    10    1
   121   111   114    1
   122   111   110    1
   123   124   125   ar
   124   119   118    1
   125   119   122    1
   126   119   120    1
   127    33    31   ar
   128    12    11    2
   129   120   121    2
   130    10    11    1
   131    10    13    1
   132    11    16   am
   133    31    32   ar
   134    31    30    1
   135    42    40   am
   136    14    13    1
   137    13    15    1
   138    16    17    1
   139    41    40    2
   140    40    39    1
   141    17    20    1
   142    17    18    1
   143    30    29    1
   144    25    18   am
   145    25    26    1
   146    23    22   ar
   147    20    21    1
   148    18    19    2
   149    39    38    1
   150    29    26    1
   151    26    27    1
   152    22    21    1
   153    22    24   ar
   154    38    35    1
   155    27    28    2
   156    35    34    1
   157    35    36    1
   158    36    37    2
