@<TRIPOS>MOLECULE
tmp/5u1eA01.pdb
 206 196 0 0 0
SMALL
GASTEIGER

@<TRIPOS>ATOM
      1  N          1.2080   -7.6030   21.5910 N.3   109  VAL109     -0.1231
      2  CA         0.9140   -7.0570   20.2720 C.3   109  VAL109      0.1692
      3  C          0.7840   -8.1840   19.2590 C.2   109  VAL109      0.2592
      4  O          1.5960   -9.1130   19.2750 O.2   109  VAL109     -0.2718
      5  CB         2.0210   -6.0910   19.7720 C.3   109  VAL109      0.0266
      6  CG1        1.6440   -5.5100   18.3930 C.3   109  VAL109      0.0020
      7  CG2        2.3170   -4.9880   20.7920 C.3   109  VAL109      0.0020
      8  N         -0.2240   -8.0840   18.3840 N.am  110  ASP110     -0.1974
      9  CA        -0.4390   -8.9980   17.2530 C.3   110  ASP110      0.1709
     10  C          0.8760   -9.4020   16.6040 C.2   110  ASP110      0.2293
     11  O          1.5770   -8.5720   16.0310 O.2   110  ASP110     -0.2864
     12  CB        -1.3630   -8.3450   16.2160 C.3   110  ASP110      0.1436
     13  CG        -1.8160   -9.3090   15.1070 C.2   110  ASP110      0.3671
     14  OD1       -1.0080  -10.1220   14.6160 O.co2 110  ASP110     -0.2456
     15  OD2       -2.9900   -9.2200   14.6920 O.co2 110  ASP110     -0.2456
     16  N          1.6770  -10.6830   14.0260 N.3   112  LEU112     -0.1245
     17  CA         1.4760  -10.7300   12.5790 C.3   112  LEU112      0.1561
     18  C          0.7220  -11.9870   12.1540 C.2   112  LEU112      0.2260
     19  O          1.2630  -12.8200   11.4330 O.2   112  LEU112     -0.2867
     20  CB         2.8000  -10.6350   11.8130 C.3   112  LEU112      0.0270
     21  CG         3.5520   -9.3010   11.8640 C.3   112  LEU112      0.0019
     22  CD1        4.3970   -9.1430   10.6100 C.3   112  LEU112      0.0001
     23  CD2        2.6000   -8.1400   12.0130 C.3   112  LEU112      0.0001
     24  N         -1.2770  -10.1860    8.8670 N.3   115  ALA115     -0.1245
     25  CA        -0.7720   -8.9740    8.2150 C.3   115  ALA115      0.1562
     26  C         -0.2320   -9.2350    6.8080 C.2   115  ALA115      0.2260
     27  O         -0.5270   -8.4630    5.8810 O.2   115  ALA115     -0.2867
     28  CB         0.2930   -8.3290    9.0590 C.3   115  ALA115      0.0290
     29  N         -4.6690    3.8600    9.8470 N.3   132  ASP132     -0.1225
     30  CA        -4.5760    2.4370   10.2180 C.3   132  ASP132      0.1805
     31  C         -5.0560    2.3090   11.6530 C.2   132  ASP132      0.2598
     32  O         -4.3160    2.5600   12.5930 O.2   132  ASP132     -0.2718
     33  CB        -3.1280    1.9420   10.0400 C.3   132  ASP132      0.1424
     34  CG        -2.8700    0.5190   10.5910 C.2   132  ASP132      0.3668
     35  OD1       -3.8110   -0.2860   10.8820 O.co2 132  ASP132     -0.2456
     36  OD2       -1.6620    0.2180   10.7220 O.co2 132  ASP132     -0.2456
     37  N         -6.3220    1.9590   11.8050 N.am  133  MET133     -0.1965
     38  CA        -6.9470    1.7960   13.1080 C.3   133  MET133      0.1736
     39  C         -6.5260    0.4640   13.7760 C.2   133  MET133      0.2617
     40  O         -6.6190   -0.5950   13.1740 O.2   133  MET133     -0.2715
     41  CB        -8.4640    1.8550   12.9530 C.3   133  MET133      0.0427
     42  CG        -9.2210    1.8060   14.2670 C.3   133  MET133      0.0599
     43  SD        -8.7800    3.2110   15.3110 S.3   133  MET133     -0.1393
     44  CE        -9.3470    4.5900   14.2960 C.3   133  MET133      0.0692
     45  N         -6.0830    0.5340   15.0270 N.am  134  GLY134     -0.1940
     46  CA        -5.5270   -0.6180   15.7190 C.3   134  GLY134      0.2014
     47  C         -4.2440   -1.0390   15.0320 C.2   134  GLY134      0.2639
     48  O         -4.1450   -2.1560   14.5200 O.2   134  GLY134     -0.2714
     49  N         -3.2540   -0.1530   15.0240 N.am  135  CYS135     -0.1953
     50  CA        -2.0820   -0.3320   14.1690 C.3   135  CYS135      0.1843
     51  C         -1.0630   -1.3380   14.7140 C.2   135  CYS135      0.2626
     52  O         -0.1380   -1.7240   14.0010 O.2   135  CYS135     -0.2714
     53  CB        -1.3950    1.0200   13.9320 C.3   135  CYS135      0.0997
     54  SG        -0.7900    1.7830   15.4300 S.3   135  CYS135     -0.0797
     55  N         -1.2220   -1.7350   15.9720 N.am  136  GLY136     -0.1940
     56  CA        -0.3990   -2.7820   16.5670 C.3   136  GLY136      0.2014
     57  C          1.1050   -2.5650   16.4420 C.2   136  GLY136      0.2639
     58  O          1.6570   -1.5980   16.9990 O.2   136  GLY136     -0.2714
     59  N          1.7730   -3.4530   15.6980 N.am  137  SER137     -0.1949
     60  CA         3.2050   -3.3140   15.4630 C.3   137  SER137      0.1924
     61  C          3.5100   -2.2040   14.4470 C.2   137  SER137      0.2314
     62  O          4.6670   -1.8480   14.2420 O.2   137  SER137     -0.2863
     63  CB         3.8060   -4.6320   14.9820 C.3   137  SER137      0.2116
     64  OG         3.2330   -4.9950   13.7320 O.3   137  SER137     -0.2180
     65  N          2.7350   -2.5410   11.2450 N.3   139  VAL139     -0.1231
     66  CA         3.0770   -3.1780    9.9670 C.3   139  VAL139      0.1692
     67  C          2.2650   -2.6430    8.7770 C.2   139  VAL139      0.2591
     68  O          2.8280   -2.3510    7.7180 O.2   139  VAL139     -0.2718
     69  CB         2.9200   -4.7240   10.0230 C.3   139  VAL139      0.0266
     70  CG1        1.5110   -5.1310   10.4850 C.3   139  VAL139      0.0020
     71  CG2        3.2320   -5.3250    8.6520 C.3   139  VAL139      0.0020
     72  N          0.9590   -2.4950    8.9440 N.am  140  LEU140     -0.1980
     73  CA         0.1280   -2.0000    7.8420 C.3   140  LEU140      0.1596
     74  C          0.4570   -0.5380    7.5160 C.2   140  LEU140      0.2287
     75  O          0.5180   -0.1460    6.3530 O.2   140  LEU140     -0.2864
     76  CB        -1.3530   -2.1400    8.1760 C.3   140  LEU140      0.0297
     77  CG        -1.8920   -3.5390    8.5240 C.3   140  LEU140      0.0022
     78  CD1       -3.4090   -3.5050    8.5600 C.3   140  LEU140      0.0001
     79  CD2       -1.4020   -4.6060    7.5550 C.3   140  LEU140      0.0001
     80  N         -3.2560    4.4270   14.7330 N.3   154  VAL154     -0.1231
     81  CA        -3.8540    4.6210   16.0500 C.3   154  VAL154      0.1692
     82  C         -3.9900    3.3030   16.7880 C.2   154  VAL154      0.2592
     83  O         -4.4880    2.3130   16.2350 O.2   154  VAL154     -0.2718
     84  CB        -5.2590    5.2920   15.9660 C.3   154  VAL154      0.0266
     85  CG1       -5.9060    5.3710   17.3630 C.3   154  VAL154      0.0020
     86  CG2       -5.1610    6.6690   15.3280 C.3   154  VAL154      0.0020
     87  N         -3.5650    3.2950   18.0490 N.am  155  ASP155     -0.1960
     88  CA        -3.8150    2.1470   18.9190 C.3   155  ASP155      0.1840
     89  C         -4.0090    2.6280   20.3610 C.2   155  ASP155      0.2622
     90  O         -3.4100    3.6240   20.7820 O.2   155  ASP155     -0.2715
     91  CB        -2.6620    1.1540   18.8370 C.3   155  ASP155      0.1450
     92  CG        -3.1340   -0.2860   18.9080 C.2   155  ASP155      0.3671
     93  OD1       -3.0870   -0.9820   17.8760 O.co2 155  ASP155     -0.2456
     94  OD2       -3.5940   -0.6940   19.9810 O.co2 155  ASP155     -0.2456
     95  N         -4.8460    1.9190   21.1050 N.am  156  VAL156     -0.1963
     96  CA        -5.1580    2.2230   22.4990 C.3   156  VAL156      0.1727
     97  C         -4.1340    1.5670   23.4470 C.2   156  VAL156      0.2616
     98  O         -4.0600    1.8930   24.6410 O.2   156  VAL156     -0.2715
     99  CB        -6.6210    1.7550   22.8190 C.3   156  VAL156      0.0290
    100  CG1       -6.7200    0.2120   22.8620 C.3   156  VAL156      0.0023
    101  CG2       -7.1590    2.4080   24.0860 C.3   156  VAL156      0.0023
    102  N         -3.3460    0.6510   22.8730 N.am  157  ASN157     -0.1972
    103  CA        -2.2470   -0.0640   23.5300 C.3   157  ASN157      0.1688
    104  C         -0.9580    0.7580   23.4570 C.2   157  ASN157      0.2292
    105  O         -0.3680    0.8870   22.3870 O.2   157  ASN157     -0.2864
    106  CB        -2.0590   -1.4440   22.8530 C.3   157  ASN157      0.1181
    107  CG        -0.8580   -2.2250   23.3790 C.2   157  ASN157      0.2629
    108  OD1       -0.1460   -1.7890   24.2760 O.2   157  ASN157     -0.2716
    109  ND2       -0.6320   -3.4060   22.8020 N.am  157  ASN157     -0.0877
    110  N          1.9560   -0.7960   21.8920 N.3   160  ALA160     -0.1245
    111  CA         1.8870   -0.9120   20.4260 C.3   160  ALA160      0.1562
    112  C          2.2420    0.4100   19.7270 C.2   160  ALA160      0.2260
    113  O          2.7330    0.4200   18.5950 O.2   160  ALA160     -0.2867
    114  CB         0.4930   -1.3900   19.9870 C.3   160  ALA160      0.0290
    115  N         -4.6430    6.3930   21.6350 N.3   181  GLY181     -0.1210
    116  CA        -5.9940    6.8690   21.8400 C.3   181  GLY181      0.1956
    117  C         -7.0160    5.7960   21.5320 C.2   181  GLY181      0.2612
    118  O         -6.6690    4.7130   21.0440 O.2   181  GLY181     -0.2717
    119  N         -8.2780    6.1160   21.8130 N.am  182  ASP182     -0.1959
    120  CA        -9.4060    5.1980   21.6790 C.3   182  ASP182      0.1840
    121  C        -10.0790    5.4100   20.3310 C.2   182  ASP182      0.2621
    122  O        -10.7560    6.4190   20.1300 O.2   182  ASP182     -0.2715
    123  CB       -10.4060    5.4270   22.8260 C.3   182  ASP182      0.1450
    124  CG       -11.4790    4.3460   22.9290 C.2   182  ASP182      0.3671
    125  OD1      -11.6930    3.5580   21.9770 O.co2 182  ASP182     -0.2456
    126  OD2      -12.1430    4.3130   23.9830 O.co2 182  ASP182     -0.2456
    127  N         -9.8890    4.4540   19.4220 N.am  183  MET183     -0.1977
    128  CA       -10.4680    4.4800   18.0770 C.3   183  MET183      0.1605
    129  C        -10.2130    5.8070   17.3590 C.2   183  MET183      0.2287
    130  O         -9.0700    6.1850   17.1520 O.2   183  MET183     -0.2864
    131  CB       -11.9760    4.1810   18.1200 C.3   183  MET183      0.0413
    132  CG       -12.3130    2.7540   18.5870 C.3   183  MET183      0.0598
    133  SD       -11.8400    1.4680   17.3950 S.3   183  MET183     -0.1393
    134  CE       -12.6520    2.1130   15.9370 C.3   183  MET183      0.0692
    135  N         -8.2780   -1.5090    8.8250 N.3   196  PHE196     -0.1227
    136  CA        -8.6390   -1.9630   10.1760 C.3   196  PHE196      0.1736
    137  C         -8.5580   -3.4960   10.2450 C.2   196  PHE196      0.2595
    138  O         -9.4860   -4.2050    9.8320 O.2   196  PHE196     -0.2718
    139  CB       -10.0560   -1.4860   10.5360 C.3   196  PHE196      0.0547
    140  CG       -10.4400   -1.6660   11.9910 C.ar  196  PHE196     -0.0202
    141  CD1       -9.4780   -1.7790   12.9920 C.ar  196  PHE196     -0.0042
    142  CD2      -11.7850   -1.6790   12.3600 C.ar  196  PHE196     -0.0042
    143  CE1       -9.8440   -1.9120   14.3370 C.ar  196  PHE196     -0.0003
    144  CE2      -12.1630   -1.8260   13.6990 C.ar  196  PHE196     -0.0003
    145  CZ       -11.1860   -1.9430   14.6890 C.ar  196  PHE196     -0.0000
    146  N         -7.4350   -4.0040   10.7340 N.am  197  ASN197     -0.1960
    147  CA        -7.3430   -5.4120   11.0890 C.3   197  ASN197      0.1819
    148  C         -7.9290   -5.5510   12.5000 C.2   197  ASN197      0.2622
    149  O         -7.2170   -5.4530   13.5010 O.2   197  ASN197     -0.2715
    150  CB        -5.8980   -5.8800   11.0030 C.3   197  ASN197      0.1195
    151  CG        -5.7070   -7.3190   11.4540 C.2   197  ASN197      0.2630
    152  OD1       -6.6600   -8.0350   11.7290 O.2   197  ASN197     -0.2716
    153  ND2       -4.4540   -7.7390   11.5290 N.am  197  ASN197     -0.0877
    154  N         -9.2450   -5.7500   12.5570 N.am  198  SER198     -0.1936
    155  CA       -10.0180   -5.5940   13.7960 C.3   198  SER198      0.2040
    156  C         -9.7260   -6.6400   14.8840 C.2   198  SER198      0.2485
    157  O         -9.3790   -7.7880   14.5900 O.2   198  SER198     -0.2729
    158  CB       -11.5210   -5.6090   13.4790 C.3   198  SER198      0.2129
    159  OG       -11.9940   -6.9340   13.2510 O.3   198  SER198     -0.2179
    160  N         -9.8420   -6.2280   16.1540 N.am  199  PRO199     -0.2726
    161  CA        -9.7290   -7.1850   17.2510 C.3   199  PRO199      0.1402
    162  C        -11.0270   -7.9890   17.4000 C.2   199  PRO199      0.2269
    163  O        -11.7930   -7.7870   18.3480 O.2   199  PRO199     -0.2865
    164  CB        -9.4720   -6.2960   18.4720 C.3   199  PRO199      0.0296
    165  CG       -10.1890   -4.9950   18.1300 C.3   199  PRO199      0.0237
    166  CD        -9.9630   -4.8370   16.6350 C.3   199  PRO199      0.0939
    167  N        -16.5130   -8.4710   25.3350 N.3   207  PHE207     -0.1241
    168  CA       -15.1610   -7.9270   25.3660 C.3   207  PHE207      0.1605
    169  C        -14.2790   -8.8560   26.1740 C.2   207  PHE207      0.2264
    170  O        -14.5430   -9.0750   27.3550 O.2   207  PHE207     -0.2867
    171  CB       -15.1000   -6.5160   25.9710 C.3   207  PHE207      0.0534
    172  CG       -13.6930   -5.9630   26.0560 C.ar  207  PHE207     -0.0203
    173  CD1      -13.1870   -5.1570   25.0490 C.ar  207  PHE207     -0.0042
    174  CD2      -12.8730   -6.2670   27.1320 C.ar  207  PHE207     -0.0042
    175  CE1      -11.8880   -4.6480   25.1150 C.ar  207  PHE207     -0.0003
    176  CE2      -11.5720   -5.7760   27.1990 C.ar  207  PHE207     -0.0003
    177  CZ       -11.0820   -4.9580   26.1880 C.ar  207  PHE207     -0.0000
    178  N         -7.7190   -6.6140   24.4370 N.3   210  LEU210     -0.1231
    179  CA        -7.4450   -5.6410   23.3810 C.3   210  LEU210      0.1693
    180  C         -7.3950   -6.2930   21.9920 C.2   210  LEU210      0.2591
    181  O         -7.4860   -5.6060   20.9760 O.2   210  LEU210     -0.2718
    182  CB        -6.1450   -4.9120   23.6850 C.3   210  LEU210      0.0284
    183  CG        -6.2950   -3.8980   24.8380 C.3   210  LEU210      0.0019
    184  CD1       -5.0290   -3.0930   25.0330 C.3   210  LEU210      0.0001
    185  CD2       -7.4860   -2.9620   24.6240 C.3   210  LEU210      0.0001
    186  N         -7.2630   -7.6210   21.9560 N.am  211  LEU211     -0.1980
    187  CA        -7.1350   -8.3410   20.6900 C.3   211  LEU211      0.1596
    188  C         -8.4470   -9.0190   20.3040 C.2   211  LEU211      0.2287
    189  O         -8.6500   -9.3710   19.1420 O.2   211  LEU211     -0.2864
    190  CB        -5.9870   -9.3500   20.7560 C.3   211  LEU211      0.0297
    191  CG        -4.6110   -8.6810   20.5650 C.3   211  LEU211      0.0022
    192  CD1       -3.4430   -9.6560   20.7120 C.3   211  LEU211      0.0001
    193  CD2       -4.5210   -7.9200   19.2190 C.3   211  LEU211      0.0001
    194  N        -12.1550   -7.6590   21.1680 N.3   213  ALA213     -0.1245
    195  CA       -12.9270   -6.6210   21.8560 C.3   213  ALA213      0.1562
    196  C        -14.4400   -6.7390   21.6820 C.2   213  ALA213      0.2260
    197  O        -15.1890   -5.8800   22.1560 O.2   213  ALA213     -0.2867
    198  CB       -12.4720   -5.2360   21.3880 C.3   213  ALA213      0.0290
    199  N        -16.9030   -3.0880   19.1730 N.3   217  ILE217     -0.1245
    200  CA       -15.8700   -2.2520   18.5660 C.3   217  ILE217      0.1561
    201  C        -16.1210   -2.0430   17.0590 C.2   217  ILE217      0.2260
    202  O        -15.7490   -1.0140   16.5050 O.2   217  ILE217     -0.2867
    203  CB       -14.4400   -2.8210   18.7790 C.3   217  ILE217      0.0252
    204  CG1      -13.4200   -1.6860   18.6360 C.3   217  ILE217      0.0019
    205  CG2      -14.1400   -3.9790   17.8070 C.3   217  ILE217      0.0019
    206  CD1      -11.9830   -2.0360   19.0060 C.3   217  ILE217      0.0001
@<TRIPOS>BOND
     1    27    26    2
     2    75    74    2
     3    26    25    1
     4    74    73    1
     5    79    77    1
     6    68    67    2
     7    73    76    1
     8    73    72    1
     9    76    77    1
    10    25    24    1
    11    25    28    1
    12    77    78    1
    13    71    69    1
    14    67    72   am
    15    67    66    1
    16   135   136    1
    17   138   137    2
    18    29    30    1
    19    66    69    1
    20    66    65    1
    21    69    70    1
    22    33    30    1
    23    33    34    1
    24   136   137    1
    25   136   139    1
    26    30    31    1
    27   137   146   am
    28   139   140    1
    29    34    36   ar
    30    34    35   ar
    31    22    21    1
    32   146   147    1
    33   150   147    1
    34   150   151    1
    35   147   148    1
    36    19    18    2
    37   151   153   am
    38   151   152    2
    39    31    37   am
    40    31    32    2
    41    37    38    1
    42    20    21    1
    43    20    17    1
    44    21    23    1
    45   140   142   ar
    46   140   141   ar
    47    18    17    1
    48   142   144   ar
    49   148   154   am
    50   148   149    2
    51   154   155    1
    52    17    16    1
    53    41    38    1
    54    41    42    1
    55   141   143   ar
    56    38    39    1
    57    40    39    2
    58   159   158    1
    59   158   155    1
    60   144   145   ar
    61    64    63    1
    62    39    45   am
    63   155   156    1
    64    53    50    1
    65    53    54    1
    66    52    51    2
    67    50    51    1
    68    50    49    1
    69    62    61    2
    70    42    43    1
    71    44    43    1
    72   143   145   ar
    73    61    60    1
    74    48    47    2
    75   157   156    2
    76    14    13   ar
    77    15    13   ar
    78    51    55   am
    79    80    81    1
    80   156   160   am
    81    63    60    1
    82    49    47   am
    83    45    46    1
    84    47    46    1
    85    13    12    1
    86    86    84    1
    87    60    59    1
    88    59    57   am
    89   134   133    1
    90    84    81    1
    91    84    85    1
    92    55    56    1
    93    11    10    2
    94    81    82    1
    95   160   166    1
    96   160   161    1
    97    12     9    1
    98    83    82    2
    99    57    56    1
   100    57    58    2
   101   202   201    2
   102    10     9    1
   103   166   165    1
   104    82    87   am
   105   201   200    1
   106   130   129    2
   107   161   162    1
   108   161   164    1
   109     9     8    1
   110   129   128    1
   111   133   132    1
   112   162   163    2
   113   205   203    1
   114    93    92   ar
   115    87    88    1
   116   128   131    1
   117   128   127    1
   118   131   132    1
   119   165   164    1
   120     8     3   am
   121     6     5    1
   122   200   203    1
   123   200   199    1
   124   113   112    2
   125   204   203    1
   126   204   206    1
   127    91    92    1
   128    91    88    1
   129    92    94   ar
   130    88    89    1
   131   189   188    2
   132   193   191    1
   133     3     4    2
   134     3     2    1
   135   127   121   am
   136   112   111    1
   137     5     2    1
   138     5     7    1
   139   114   111    1
   140   122   121    2
   141     2     1    1
   142   188   187    1
   143   121   120    1
   144    89    90    2
   145    89    95   am
   146   111   110    1
   147   191   192    1
   148   191   190    1
   149   187   190    1
   150   187   186    1
   151   181   180    2
   152   118   117    2
   153    95    96    1
   154   194   195    1
   155   198   195    1
   156   117   119   am
   157   117   116    1
   158   115   116    1
   159   120   119    1
   160   120   123    1
   161   196   195    1
   162   196   197    2
   163   186   180   am
   164   125   124   ar
   165   180   179    1
   166   105   104    2
   167    96    99    1
   168    96    97    1
   169   109   107   am
   170    99   100    1
   171    99   101    1
   172   123   124    1
   173   106   107    1
   174   106   103    1
   175   102    97   am
   176   102   103    1
   177   124   126   ar
   178   107   108    2
   179   179   182    1
   180   179   178    1
   181    97    98    2
   182   104   103    1
   183   182   183    1
   184   185   183    1
   185   183   184    1
   186   173   175   ar
   187   173   172   ar
   188   175   177   ar
   189   167   168    1
   190   168   171    1
   191   168   169    1
   192   171   172    1
   193   172   174   ar
   194   169   170    2
   195   177   176   ar
   196   174   176   ar
