@<TRIPOS>MOLECULE
tmp/5u1gA01.pdb
 151 143 0 0 0
SMALL
GASTEIGER

@<TRIPOS>ATOM
      1  N        -25.1140  -10.3980    1.9950 N.3    11  GLY11      -0.1210
      2  CA       -25.6660  -11.6300    1.4470 C.3    11  GLY11       0.1956
      3  C        -25.0610  -12.9940    1.5650 C.2    11  GLY11       0.2612
      4  O        -25.7820  -13.9770    1.6920 O.2    11  GLY11      -0.2717
      5  N        -23.7420  -13.0730    1.5190 N.am   12  GLY12      -0.1942
      6  CA       -23.0930  -14.3770    1.6210 C.3    12  GLY12       0.2014
      7  C        -22.6490  -14.7270    3.0310 C.2    12  GLY12       0.2640
      8  O        -21.9280  -15.7150    3.2480 O.2    12  GLY12      -0.2714
      9  N        -23.1610  -13.9450    3.9850 N.am   13  SER13      -0.1935
     10  CA       -22.7850  -14.0440    5.3950 C.3    13  SER13       0.2055
     11  C        -23.2560  -15.2480    6.1850 C.2    13  SER13       0.2644
     12  O        -23.1110  -15.2970    7.4060 O.2    13  SER13      -0.2714
     13  CB       -23.1420  -12.7300    6.1040 C.3    13  SER13       0.2130
     14  OG       -24.5180  -12.4510    5.9740 O.3    13  SER13      -0.2179
     15  N        -23.8690  -16.1950    5.4830 N.am   14  GLY14      -0.1939
     16  CA       -24.2750  -17.4280    6.1280 C.3    14  GLY14       0.2014
     17  C        -25.3050  -17.3490    7.2260 C.2    14  GLY14       0.2639
     18  O        -25.3360  -18.2060    8.1160 O.2    14  GLY14      -0.2714
     19  N        -26.1500  -16.3250    7.1810 N.am   15  LYS15      -0.1963
     20  CA       -27.2020  -16.1850    8.1860 C.3    15  LYS15       0.1728
     21  C        -28.0930  -17.4350    8.2030 C.2    15  LYS15       0.2617
     22  O        -28.1230  -18.1730    9.1890 O.2    15  LYS15      -0.2715
     23  CB       -28.0550  -14.9500    7.8810 C.3    15  LYS15       0.0311
     24  CG       -27.2920  -13.6360    7.9570 C.3    15  LYS15       0.0038
     25  CD       -28.1410  -12.4330    7.5370 C.3    15  LYS15       0.0206
     26  CE       -28.3200  -12.3450    6.0280 C.3    15  LYS15       0.1093
     27  NZ       -29.1830  -13.4340    5.5010 N.3    15  LYS15      -0.1314
     28  N        -28.8100  -17.6530    7.1040 N.am   16  THR16      -0.1937
     29  CA       -29.7030  -18.7970    6.9480 C.3    16  THR16       0.2028
     30  C        -29.0590  -20.1140    7.3840 C.2    16  THR16       0.2642
     31  O        -29.5990  -20.8180    8.2420 O.2    16  THR16      -0.2714
     32  CB       -30.1610  -18.9340    5.4510 C.3    16  THR16       0.1808
     33  OG1      -30.7690  -17.7000    5.0080 O.3    16  THR16      -0.2208
     34  CG2      -31.1870  -20.0500    5.2940 C.3    16  THR16       0.0379
     35  N        -27.9090  -20.4340    6.7950 N.am   17  THR17      -0.1950
     36  CA       -27.1960  -21.6770    7.1140 C.3    17  THR17       0.1897
     37  C        -26.9340  -21.8290    8.6110 C.2    17  THR17       0.2313
     38  O        -27.1170  -22.9060    9.1820 O.2    17  THR17      -0.2863
     39  CB       -25.8380  -21.7460    6.3740 C.3    17  THR17       0.1794
     40  OG1      -26.0680  -21.7180    4.9580 O.3    17  THR17      -0.2208
     41  CG2      -25.0850  -23.0220    6.7400 C.3    17  THR17       0.0378
     42  N        -37.1330  -13.8020    4.8700 N.3    39  ASP39      -0.1239
     43  CA       -36.5730  -13.5710    3.5510 C.3    39  ASP39       0.1674
     44  C        -37.6870  -13.4830    2.5100 C.2    39  ASP39       0.2266
     45  O        -38.6040  -14.2910    2.5060 O.2    39  ASP39      -0.2867
     46  CB       -35.6080  -14.7300    3.1970 C.3    39  ASP39       0.1410
     47  CG       -34.8970  -14.5440    1.8580 C.2    39  ASP39       0.3668
     48  OD1      -34.1760  -15.4780    1.4310 O.co2  39  ASP39      -0.2456
     49  OD2      -35.0470  -13.4730    1.2360 O.co2  39  ASP39      -0.2456
     50  N        -35.9090  -18.6170    1.4300 N.3    43  SER43      -0.1217
     51  CA       -34.9620  -19.7060    1.2070 C.3    43  SER43       0.1889
     52  C        -35.0850  -20.7620    2.2980 C.2    43  SER43       0.2288
     53  O        -35.1530  -21.9460    2.0030 O.2    43  SER43      -0.2866
     54  CB       -33.5220  -19.1660    1.1660 C.3    43  SER43       0.2089
     55  OG       -33.3970  -18.1460    0.1900 O.3    43  SER43      -0.2183
     56  N        -34.2300  -15.4630   10.9590 N.3    82  ASP82      -0.1225
     57  CA       -33.3580  -15.4710    9.7750 C.3    82  ASP82       0.1805
     58  C        -33.5850  -14.1140    9.0630 C.2    82  ASP82       0.2598
     59  O        -34.4220  -14.0040    8.1670 O.2    82  ASP82      -0.2718
     60  CB       -33.7250  -16.5870    8.8270 C.3    82  ASP82       0.1424
     61  CG       -32.8300  -16.6070    7.6050 C.2    82  ASP82       0.3668
     62  OD1      -32.8890  -17.5850    6.8220 O.co2  82  ASP82      -0.2456
     63  OD2      -32.0600  -15.6330    7.4240 O.co2  82  ASP82      -0.2456
     64  N        -32.7940  -13.1080    9.4430 N.am   83  GLY83      -0.1957
     65  CA       -32.9610  -11.7650    8.9080 C.3    83  GLY83       0.1869
     66  C        -32.8270  -11.6510    7.4160 C.2    83  GLY83       0.2309
     67  O        -32.0700  -12.4060    6.7980 O.2    83  GLY83      -0.2863
     68  N        -31.7390  -10.4490    3.7350 N.3    85  GLY85      -0.1225
     69  CA       -30.4690  -10.0430    3.1670 C.3    85  GLY85       0.1811
     70  C        -30.4880   -8.6040    2.6840 C.2    85  GLY85       0.2280
     71  O        -29.4950   -8.1080    2.1570 O.2    85  GLY85      -0.2866
     72  N        -18.0150  -16.9280   10.4370 N.3   138  THR138     -0.1203
     73  CA       -18.6050  -18.0020    9.6410 C.3   138  THR138      0.1994
     74  C        -17.7860  -18.2870    8.3960 C.2   138  THR138      0.2617
     75  O        -17.0860  -17.4100    7.8860 O.2   138  THR138     -0.2717
     76  CB       -20.0550  -17.6690    9.2350 C.3   138  THR138      0.1784
     77  OG1      -20.4360  -18.4770    8.1060 O.3   138  THR138     -0.2211
     78  CG2      -20.1770  -16.1960    8.8790 C.3   138  THR138      0.0376
     79  N        -17.8910  -19.5170    7.9060 N.am  139  ARG139     -0.1979
     80  CA       -17.1280  -19.9400    6.7460 C.3   139  ARG139      0.1597
     81  C        -15.6550  -19.6470    7.0020 C.2   139  ARG139      0.2287
     82  O        -14.9130  -19.2830    6.0870 O.2   139  ARG139     -0.2864
     83  CB       -17.5790  -19.1930    5.5050 C.3   139  ARG139      0.0334
     84  CG       -19.0690  -19.0590    5.3920 C.3   139  ARG139      0.0492
     85  CD       -19.4080  -18.4250    4.0750 C.3   139  ARG139      0.2205
     86  NE       -18.8520  -19.2080    2.9830 N.pl3 139  ARG139     -0.0865
     87  CZ       -18.9950  -18.8940    1.7010 C.cat 139  ARG139      0.5346
     88  NH1      -19.6810  -17.8040    1.3530 N.pl3 139  ARG139      0.1354
     89  NH2      -18.4550  -19.6700    0.7700 N.pl3 139  ARG139      0.1354
     90  N        -17.7900  -20.8130   12.8340 N.3   166  ILE166     -0.1231
     91  CA       -18.3830  -21.7910   11.9100 C.3   166  ILE166      0.1692
     92  C        -17.4280  -21.9200   10.7220 C.2   166  ILE166      0.2593
     93  O        -17.2610  -20.9840    9.9410 O.2   166  ILE166     -0.2718
     94  CB       -19.7530  -21.3180   11.3920 C.3   166  ILE166      0.0266
     95  CG1      -20.6670  -20.9470   12.5740 C.3   166  ILE166      0.0019
     96  CG2      -20.3850  -22.4090   10.5410 C.3   166  ILE166      0.0020
     97  CD1      -20.9830  -22.0740   13.5870 C.3   166  ILE166      0.0001
     98  N        -16.8140  -23.0810   10.5890 N.am  167  THR167     -0.1939
     99  CA       -15.8550  -23.2940    9.5210 C.3   167  THR167      0.2028
    100  C        -16.5430  -23.5120    8.1850 C.2   167  THR167      0.2642
    101  O        -17.7390  -23.7800    8.1410 O.2   167  THR167     -0.2714
    102  CB       -15.0050  -24.5710    9.8090 C.3   167  THR167      0.1808
    103  OG1      -14.6340  -24.5960   11.1930 O.3   167  THR167     -0.2208
    104  CG2      -13.7510  -24.5910    8.9470 C.3   167  THR167      0.0379
    105  N        -15.7880  -23.3550    7.1030 N.am  168  GLN168     -0.1963
    106  CA       -16.3150  -23.6450    5.7810 C.3   168  GLN168      0.1733
    107  C        -16.1090  -25.1430    5.4990 C.2   168  GLN168      0.2616
    108  O        -14.9890  -25.6480    5.5290 O.2   168  GLN168     -0.2715
    109  CB       -15.6000  -22.8420    4.7070 C.3   168  GLN168      0.0408
    110  CG       -15.6320  -23.5020    3.3350 C.3   168  GLN168      0.0908
    111  CD       -15.2500  -22.5500    2.2210 C.2   168  GLN168      0.2608
    112  OE1      -15.9480  -21.5620    1.9680 O.2   168  GLN168     -0.2717
    113  NE2      -14.1380  -22.8390    1.5480 N.am  168  GLN168     -0.0878
    114  N        -17.2020  -25.8400    5.2280 N.am  169  ARG169     -0.1977
    115  CA       -17.1550  -27.2630    4.9350 C.3   169  ARG169      0.1597
    116  C        -18.2110  -27.6110    3.8910 C.2   169  ARG169      0.2287
    117  O        -19.3230  -27.0810    3.9150 O.2   169  ARG169     -0.2864
    118  CB       -17.3690  -28.0730    6.2120 C.3   169  ARG169      0.0334
    119  CG       -16.3650  -27.7700    7.3080 C.3   169  ARG169      0.0492
    120  CD       -16.0460  -29.0160    8.1180 C.3   169  ARG169      0.2205
    121  NE       -14.9700  -28.7870    9.0790 N.pl3 169  ARG169     -0.0865
    122  CZ       -15.0550  -27.9730   10.1290 C.cat 169  ARG169      0.5346
    123  NH1      -16.1750  -27.3100   10.3620 N.pl3 169  ARG169      0.1354
    124  NH2      -14.0180  -27.8290   10.9470 N.pl3 169  ARG169      0.1354
    125  N        -21.8190  -28.3750    5.2390 N.3   172  TYR172     -0.1227
    126  CA       -22.7640  -27.3250    5.5790 C.3   172  TYR172      0.1736
    127  C        -23.6120  -26.9500    4.3690 C.2   172  TYR172      0.2595
    128  O        -24.7130  -26.4370    4.5140 O.2   172  TYR172     -0.2718
    129  CB       -22.0210  -26.0840    6.0830 C.3   172  TYR172      0.0548
    130  CG       -21.6110  -26.1330    7.5340 C.ar  172  TYR172     -0.0200
    131  CD1      -20.2850  -25.9170    7.9050 C.ar  172  TYR172     -0.0009
    132  CD2      -22.5470  -26.3760    8.5360 C.ar  172  TYR172     -0.0009
    133  CE1      -19.8980  -25.9480    9.2350 C.ar  172  TYR172      0.0417
    134  CE2      -22.1730  -26.4100    9.8660 C.ar  172  TYR172      0.0417
    135  CZ       -20.8450  -26.1900   10.2120 C.ar  172  TYR172      0.1957
    136  OH       -20.4580  -26.2290   11.5340 O.3   172  TYR172     -0.2866
    137  N        -23.0860  -27.2050    3.1780 N.am  173  VAL173     -0.1980
    138  CA       -23.7840  -26.8890    1.9360 C.3   173  VAL173      0.1595
    139  C        -24.4880  -28.1250    1.4060 C.2   173  VAL173      0.2287
    140  O        -25.6880  -28.0920    1.1070 O.2   173  VAL173     -0.2864
    141  CB       -22.8160  -26.4090    0.8410 C.3   173  VAL173      0.0276
    142  CG1      -23.5970  -25.9620   -0.3840 C.3   173  VAL173      0.0022
    143  CG2      -21.9380  -25.2890    1.3700 C.3   173  VAL173      0.0022
    144  N        -27.7830  -28.8250    2.9770 N.3   176  ILE176     -0.1245
    145  CA       -28.9250  -27.9960    2.6390 C.3   176  ILE176      0.1561
    146  C        -29.5250  -28.3940    1.2920 C.2   176  ILE176      0.2260
    147  O        -30.7090  -28.1360    1.0280 O.2   176  ILE176     -0.2867
    148  CB       -28.5440  -26.4860    2.6160 C.3   176  ILE176      0.0252
    149  CG1      -28.4080  -25.9520    4.0500 C.3   176  ILE176      0.0019
    150  CG2      -29.6110  -25.6740    1.8840 C.3   176  ILE176      0.0019
    151  CD1      -27.3920  -26.6570    4.9390 C.3   176  ILE176      0.0001
@<TRIPOS>BOND
     1   142   141    1
     2    55    54    1
     3    89    87    1
     4   141   143    1
     5   141   138    1
     6   147   146    2
     7   140   139    2
     8    54    51    1
     9    51    50    1
    10    51    52    1
    11    49    47   ar
    12   146   145    1
    13    88    87    1
    14   139   138    1
    15    48    47   ar
    16     2     3    1
    17     2     1    1
    18     5     3   am
    19     5     6    1
    20   113   111   am
    21     3     4    2
    22     6     7    1
    23    87    86    2
    24    47    46    1
    25   150   148    1
    26   138   137    1
    27   112   111    2
    28    53    52    2
    29    71    70    2
    30   111   110    1
    31    45    44    2
    32    44    43    1
    33   148   145    1
    34   148   149    1
    35   145   144    1
    36    70    69    1
    37    86    85    1
    38     7     8    2
    39     7     9   am
    40    69    68    1
    41   137   127   am
    42    46    43    1
    43   110   109    1
    44    43    42    1
    45   116   117    2
    46   116   115    1
    47     9    10    1
    48   149   151    1
    49    85    84    1
    50   127   128    2
    51   127   126    1
    52   109   106    1
    53   115   114    1
    54   115   118    1
    55    40    39    1
    56    33    32    1
    57   114   107   am
    58   125   126    1
    59    34    32    1
    60    84    83    1
    61    10    13    1
    62    10    11    1
    63    32    29    1
    64    15    16    1
    65    15    11   am
    66   107   108    2
    67   107   106    1
    68    27    26    1
    69    83    80    1
    70   126   129    1
    71   106   105    1
    72    14    13    1
    73    26    25    1
    74   129   130    1
    75    82    81    2
    76    16    17    1
    77    11    12    2
    78   118   119    1
    79    39    41    1
    80    39    36    1
    81    80    81    1
    82    80    79    1
    83    35    36    1
    84    35    30   am
    85    67    66    2
    86    62    61   ar
    87    29    28    1
    88    29    30    1
    89   105   100   am
    90    28    21   am
    91    36    37    1
    92    19    17   am
    93    19    20    1
    94    17    18    2
    95   119   120    1
    96    30    31    2
    97    66    65    1
    98    63    61   ar
    99   130   131   ar
   100   130   132   ar
   101    25    24    1
   102    61    60    1
   103    23    24    1
   104    23    20    1
   105    75    74    2
   106   131   133   ar
   107    79    74   am
   108    77    76    1
   109   120   121    1
   110   101   100    2
   111    59    58    2
   112   100    99    1
   113    20    21    1
   114    21    22    2
   115    74    73    1
   116   132   134   ar
   117    37    38    2
   118    60    57    1
   119    78    76    1
   120    65    64    1
   121   104   102    1
   122    58    64   am
   123    58    57    1
   124   121   122    2
   125    76    73    1
   126   133   135   ar
   127    99   102    1
   128    99    98    1
   129    73    72    1
   130    57    56    1
   131   102   103    1
   132   134   135   ar
   133    93    92    2
   134   122   123    1
   135   122   124    1
   136   135   136    1
   137    96    94    1
   138    98    92   am
   139    92    91    1
   140    94    91    1
   141    94    95    1
   142    91    90    1
   143    95    97    1
