@<TRIPOS>MOLECULE
tmp/5u1hC00.pdb
 95 90 0 0 0
SMALL
GASTEIGER

@<TRIPOS>ATOM
      1  N         25.2540  -31.8370    3.6840 N.3    19  PHE19      -0.1227
      2  CA        24.5620  -31.7690    2.3970 C.3    19  PHE19       0.1736
      3  C         24.5080  -33.1250    1.6950 C.2    19  PHE19       0.2595
      4  O         25.5390  -33.7680    1.4700 O.2    19  PHE19      -0.2718
      5  CB        25.2480  -30.7410    1.4960 C.3    19  PHE19       0.0547
      6  CG        24.6040  -30.5860    0.1440 C.ar   19  PHE19      -0.0202
      7  CD1       23.4890  -29.7730   -0.0200 C.ar   19  PHE19      -0.0042
      8  CD2       25.1120  -31.2480   -0.9600 C.ar   19  PHE19      -0.0042
      9  CE1       22.8930  -29.6180   -1.2550 C.ar   19  PHE19      -0.0003
     10  CE2       24.5100  -31.1030   -2.2060 C.ar   19  PHE19      -0.0003
     11  CZ        23.4010  -30.2850   -2.3520 C.ar   19  PHE19      -0.0000
     12  N         23.2940  -33.5400    1.3240 N.am   20  ASP20      -0.1974
     13  CA        23.0300  -34.8060    0.6390 C.3    20  ASP20       0.1709
     14  C         23.4410  -36.0290    1.4610 C.2    20  ASP20       0.2293
     15  O         23.6260  -37.1180    0.9070 O.2    20  ASP20      -0.2864
     16  CB        23.7040  -34.8380   -0.7420 C.3    20  ASP20       0.1436
     17  CG        22.9800  -35.7430   -1.7310 C.2    20  ASP20       0.3671
     18  OD1       23.5580  -36.0140   -2.8110 O.co2  20  ASP20      -0.2456
     19  OD2       21.8430  -36.1880   -1.4330 O.co2  20  ASP20      -0.2456
     20  N         14.8820  -31.4560    4.7990 N.3    53  THR53      -0.1203
     21  CA        15.9810  -31.1150    3.9000 C.3    53  THR53       0.1994
     22  C         16.0460  -29.6070    3.6940 C.2    53  THR53       0.2617
     23  O         15.0990  -28.8680    3.9920 O.2    53  THR53      -0.2717
     24  CB        15.8190  -31.7880    2.5230 C.3    53  THR53       0.1784
     25  OG1       14.7340  -31.1650    1.8190 O.3    53  THR53      -0.2211
     26  CG2       15.5300  -33.2900    2.6550 C.3    53  THR53       0.0376
     27  N         17.1560  -29.1480    3.1160 N.am   54  ASP54      -0.1973
     28  CA        17.1120  -27.8310    2.5050 C.3    54  ASP54       0.1709
     29  C         16.4710  -27.9520    1.1170 C.2    54  ASP54       0.2293
     30  O         16.1520  -29.0480    0.6480 O.2    54  ASP54      -0.2864
     31  CB        18.5100  -27.1820    2.4750 C.3    54  ASP54       0.1436
     32  CG        19.4880  -27.8310    1.4790 C.2    54  ASP54       0.3671
     33  OD1       19.0850  -28.2660    0.3810 O.co2  54  ASP54      -0.2456
     34  OD2       20.7030  -27.8640    1.8020 O.co2  54  ASP54      -0.2456
     35  N         17.5490  -27.3210   -1.9230 N.3    56  VAL56      -0.1231
     36  CA        18.3080  -27.6680   -3.1190 C.3    56  VAL56       0.1692
     37  C         17.8630  -29.0430   -3.5970 C.2    56  VAL56       0.2592
     38  O         17.7750  -29.9920   -2.8080 O.2    56  VAL56      -0.2718
     39  CB        19.8170  -27.6330   -2.8300 C.3    56  VAL56       0.0266
     40  CG1       20.6070  -28.0460   -4.0670 C.3    56  VAL56       0.0020
     41  CG2       20.2450  -26.2440   -2.3380 C.3    56  VAL56       0.0020
     42  N         17.5560  -29.1570   -4.8930 N.am   57  GLY57      -0.1957
     43  CA        17.0840  -30.4090   -5.4610 C.3    57  GLY57       0.1869
     44  C         15.5730  -30.4430   -5.6130 C.2    57  GLY57       0.2309
     45  O         14.8530  -29.5060   -5.2610 O.2    57  GLY57      -0.2863
     46  N         13.1340  -35.9450   -4.6920 N.3    61  TYR61      -0.1227
     47  CA        14.4180  -36.3750   -4.1480 C.3    61  TYR61       0.1736
     48  C         14.5090  -36.0460   -2.6650 C.2    61  TYR61       0.2595
     49  O         14.9360  -36.8770   -1.8520 O.2    61  TYR61      -0.2718
     50  CB        15.5750  -35.7180   -4.9060 C.3    61  TYR61       0.0548
     51  CG        16.9190  -36.2150   -4.4390 C.ar   61  TYR61      -0.0200
     52  CD1       17.5210  -37.3160   -5.0420 C.ar   61  TYR61      -0.0009
     53  CD2       17.5800  -35.6010   -3.3830 C.ar   61  TYR61      -0.0009
     54  CE1       18.7390  -37.7810   -4.6110 C.ar   61  TYR61       0.0417
     55  CE2       18.8050  -36.0630   -2.9450 C.ar   61  TYR61       0.0417
     56  CZ        19.3780  -37.1530   -3.5620 C.ar   61  TYR61       0.1957
     57  OH        20.5940  -37.6170   -3.1250 O.3    61  TYR61      -0.2866
     58  N         14.1130  -34.8290   -2.2970 N.am   62  ASN62      -0.1974
     59  CA        14.2430  -34.4190   -0.9040 C.3    62  ASN62       0.1688
     60  C         13.2550  -35.1460   -0.0000 C.2    62  ASN62       0.2292
     61  O         13.5540  -35.3660    1.1780 O.2    62  ASN62      -0.2864
     62  CB        14.0780  -32.9070   -0.7930 C.3    62  ASN62       0.1181
     63  CG        15.3340  -32.1670   -1.1940 C.2    62  ASN62       0.2629
     64  OD1       16.4400  -32.5760   -0.8360 O.2    62  ASN62      -0.2716
     65  ND2       15.1740  -31.0610   -1.9220 N.am   62  ASN62      -0.0877
     66  N         15.2140  -38.3140    0.7580 N.3    65  LEU65      -0.1245
     67  CA        16.3400  -37.9890    1.6300 C.3    65  LEU65       0.1561
     68  C         15.8710  -37.6810    3.0450 C.2    65  LEU65       0.2260
     69  O         16.5120  -38.0860    4.0210 O.2    65  LEU65      -0.2867
     70  CB        17.1210  -36.8070    1.0630 C.3    65  LEU65       0.0270
     71  CG        18.1860  -36.1840    1.9720 C.3    65  LEU65       0.0019
     72  CD1       19.2840  -37.1780    2.3720 C.3    65  LEU65       0.0001
     73  CD2       18.7960  -34.9970    1.2570 C.3    65  LEU65       0.0001
     74  N         16.9860  -39.6420    6.5080 N.3    69  ARG69      -0.1245
     75  CA        17.4630  -38.9630    7.7110 C.3    69  ARG69       0.1563
     76  C         16.6690  -39.3890    8.9420 C.2    69  ARG69       0.2260
     77  O         17.2510  -39.7150    9.9890 O.2    69  ARG69      -0.2867
     78  CB        17.3880  -37.4510    7.5100 C.3    69  ARG69       0.0307
     79  CG        18.5460  -36.9140    6.6750 C.3    69  ARG69       0.0489
     80  CD        18.4120  -35.4450    6.3020 C.3    69  ARG69       0.2205
     81  NE        19.6100  -35.0180    5.5810 N.pl3  69  ARG69      -0.0865
     82  CZ        19.6950  -33.9560    4.7890 C.cat  69  ARG69       0.5346
     83  NH1       18.6430  -33.1720    4.5920 N.pl3  69  ARG69       0.1354
     84  NH2       20.8480  -33.6800    4.1730 N.pl3  69  ARG69       0.1354
     85  N         18.7110  -28.7100    7.1430 N.3   112  ARG112     -0.1245
     86  CA        19.0850  -30.1200    7.0150 C.3   112  ARG112      0.1563
     87  C         19.0870  -30.7720    8.3930 C.2   112  ARG112      0.2260
     88  O         20.0960  -30.7260    9.1130 O.2   112  ARG112     -0.2867
     89  CB        20.4600  -30.2650    6.3480 C.3   112  ARG112      0.0307
     90  CG        20.5380  -29.6770    4.9310 C.3   112  ARG112      0.0489
     91  CD        21.8490  -30.0570    4.2380 C.3   112  ARG112      0.2205
     92  NE        23.0290  -29.5020    4.8960 N.pl3 112  ARG112     -0.0865
     93  CZ        23.5890  -28.3360    4.5810 C.cat 112  ARG112      0.5346
     94  NH1       23.0750  -27.5890    3.6170 N.pl3 112  ARG112      0.1354
     95  NH2       24.6790  -27.9290    5.2270 N.pl3 112  ARG112      0.1354
@<TRIPOS>BOND
     1    44    43    1
     2    44    45    2
     3    43    42    1
     4    52    54   ar
     5    52    51   ar
     6    50    51    1
     7    50    47    1
     8    42    37   am
     9    46    47    1
    10    54    56   ar
    11    51    53   ar
    12    47    48    1
    13    40    39    1
    14    37    36    1
    15    37    38    2
    16    56    57    1
    17    56    55   ar
    18    53    55   ar
    19    36    39    1
    20    36    35    1
    21    39    41    1
    22    18    17   ar
    23    48    58   am
    24    48    49    2
    25    11    10   ar
    26    11     9   ar
    27    58    59    1
    28    10     8   ar
    29    65    63   am
    30    17    19   ar
    31    17    16    1
    32     9     7   ar
    33    63    64    2
    34    63    62    1
    35     8     6   ar
    36    59    62    1
    37    59    60    1
    38    16    13    1
    39     7     6   ar
    40    60    61    2
    41     6     5    1
    42    33    32   ar
    43    13    12    1
    44    13    14    1
    45    30    29    2
    46    66    67    1
    47    15    14    2
    48    70    67    1
    49    70    71    1
    50    29    28    1
    51    73    71    1
    52    12     3   am
    53     4     3    2
    54    32    34   ar
    55    32    31    1
    56     5     2    1
    57    67    68    1
    58     3     2    1
    59    25    24    1
    60    71    72    1
    61     2     1    1
    62    31    28    1
    63    28    27    1
    64    24    26    1
    65    24    21    1
    66    68    69    2
    67    27    22   am
    68    94    93    1
    69    22    21    1
    70    22    23    2
    71    21    20    1
    72    84    82    1
    73    91    92    1
    74    91    90    1
    75    93    92    2
    76    93    95    1
    77    83    82    1
    78    82    81    2
    79    90    89    1
    80    81    80    1
    81    80    79    1
    82    89    86    1
    83    74    75    1
    84    79    78    1
    85    86    85    1
    86    86    87    1
    87    78    75    1
    88    75    76    1
    89    87    88    2
    90    76    77    2
