@<TRIPOS>MOLECULE
tmp/5u1qA00.pdb
 155 147 0 0 0
SMALL
GASTEIGER

@<TRIPOS>ATOM
      1  N         -6.3620   18.5490  143.6120 N.3    10  ARG10      -0.1245
      2  CA        -5.0490   18.8020  144.1930 C.3    10  ARG10       0.1563
      3  C         -4.5320   17.5900  144.9510 C.2    10  ARG10       0.2260
      4  O         -3.3720   17.1870  144.7900 O.2    10  ARG10      -0.2867
      5  CB        -5.1270   20.0090  145.1330 C.3    10  ARG10       0.0307
      6  CG        -3.9500   20.1210  146.0970 C.3    10  ARG10       0.0489
      7  CD        -4.1550   21.2270  147.1320 C.3    10  ARG10       0.2205
      8  NE        -3.9690   22.5700  146.5900 N.pl3  10  ARG10      -0.0865
      9  CZ        -3.0400   23.4150  147.0320 C.cat  10  ARG10       0.5346
     10  NH1       -2.2400   23.0480  148.0260 N.pl3  10  ARG10       0.1354
     11  NH2       -2.9120   24.6260  146.4950 N.pl3  10  ARG10       0.1354
     12  N         -3.0130   20.5400  135.5710 N.3    30  ARG30      -0.1245
     13  CA        -4.3930   20.1090  135.7410 C.3    30  ARG30       0.1563
     14  C         -5.3070   21.3160  135.5950 C.2    30  ARG30       0.2260
     15  O         -4.8850   22.4610  135.7740 O.2    30  ARG30      -0.2867
     16  CB        -4.6190   19.4510  137.1100 C.3    30  ARG30       0.0307
     17  CG        -4.1200   20.2900  138.2910 C.3    30  ARG30       0.0489
     18  CD        -4.1710   19.4670  139.5900 C.3    30  ARG30       0.2205
     19  NE        -3.5120   20.1130  140.7210 N.pl3  30  ARG30      -0.0865
     20  CZ        -4.0950   20.9810  141.5390 C.cat  30  ARG30       0.5346
     21  NH1       -5.3620   21.3260  141.3580 N.pl3  30  ARG30       0.1354
     22  NH2       -3.4110   21.5040  142.5460 N.pl3  30  ARG30       0.1354
     23  N         -7.9230   23.7620  137.0310 N.3    32  SER32      -0.1217
     24  CA        -8.2310   24.1940  138.3830 C.3    32  SER32       0.1889
     25  C         -9.7050   23.9470  138.6860 C.2    32  SER32       0.2288
     26  O        -10.5840   24.3600  137.9210 O.2    32  SER32      -0.2866
     27  CB        -7.8860   25.6710  138.5500 C.3    32  SER32       0.2089
     28  OG        -8.3510   26.1660  139.7910 O.3    32  SER32      -0.2183
     29  N        -11.1150   25.1600  141.3650 N.3    34  ARG34      -0.1231
     30  CA       -11.5860   26.3550  142.0480 C.3    34  ARG34       0.1694
     31  C        -11.5240   27.5930  141.1650 C.2    34  ARG34       0.2592
     32  O        -12.0830   28.6290  141.5390 O.2    34  ARG34      -0.2718
     33  CB       -10.7630   26.5960  143.3210 C.3    34  ARG34       0.0321
     34  CG       -10.8690   25.5250  144.3820 C.3    34  ARG34       0.0489
     35  CD        -9.9680   25.8300  145.5760 C.3    34  ARG34       0.2205
     36  NE        -8.5590   25.9520  145.2480 N.pl3  34  ARG34      -0.0865
     37  CZ        -7.7930   25.0370  144.6670 C.cat  34  ARG34       0.5346
     38  NH1       -8.2870   23.8430  144.3490 N.pl3  34  ARG34       0.1354
     39  NH2       -6.5320   25.3090  144.3660 N.pl3  34  ARG34       0.1354
     40  N        -10.8110   27.5330  140.0410 N.am   35  ASN35      -0.1974
     41  CA       -10.8350   28.5850  139.0300 C.3    35  ASN35       0.1688
     42  C        -11.1340   27.8480  137.7250 C.2    35  ASN35       0.2292
     43  O        -10.2300   27.2740  137.1120 O.2    35  ASN35      -0.2864
     44  CB        -9.5120   29.3410  138.9900 C.3    35  ASN35       0.1181
     45  CG        -9.2360   30.0870  140.2840 C.2    35  ASN35       0.2629
     46  OD1       -8.7800   29.4930  141.2650 O.2    35  ASN35      -0.2716
     47  ND2       -9.5110   31.3870  140.2960 N.am   35  ASN35      -0.0877
     48  N         -3.5390   24.7150  136.9990 N.3    40  VAL40      -0.1245
     49  CA        -2.5930   24.6420  138.1010 C.3    40  VAL40       0.1561
     50  C         -1.3990   23.8110  137.6680 C.2    40  VAL40       0.2260
     51  O         -1.5540   22.6930  137.1650 O.2    40  VAL40      -0.2867
     52  CB        -3.2280   24.0460  139.3690 C.3    40  VAL40       0.0252
     53  CG1       -2.2160   24.0610  140.5190 C.3    40  VAL40       0.0019
     54  CG2       -4.4840   24.8270  139.7330 C.3    40  VAL40       0.0019
     55  N          5.3450   18.8570  147.4160 N.3    49  VAL49      -0.1231
     56  CA         4.5490   19.2110  146.2400 C.3    49  VAL49       0.1692
     57  C          4.0130   20.6220  146.4090 C.2    49  VAL49       0.2592
     58  O          3.3750   20.9360  147.4200 O.2    49  VAL49      -0.2718
     59  CB         3.3960   18.2200  146.0050 C.3    49  VAL49       0.0266
     60  CG1        2.5660   18.6620  144.7950 C.3    49  VAL49       0.0020
     61  CG2        3.9390   16.8270  145.7750 C.3    49  VAL49       0.0020
     62  N          4.2770   21.4710  145.4230 N.am   50  LYS50      -0.1966
     63  CA         3.7810   22.8360  145.3800 C.3    50  LYS50       0.1728
     64  C          2.8740   23.0240  144.1680 C.2    50  LYS50       0.2616
     65  O          2.9370   22.2660  143.2010 O.2    50  LYS50      -0.2715
     66  CB         4.9500   23.8290  145.3590 C.3    50  LYS50       0.0311
     67  CG         5.7840   23.7910  146.6410 C.3    50  LYS50       0.0038
     68  CD         7.2130   24.2130  146.3780 C.3    50  LYS50       0.0206
     69  CE         8.0030   24.3440  147.6670 C.3    50  LYS50       0.1093
     70  NZ         9.4400   24.6440  147.4060 N.3    50  LYS50      -0.1314
     71  N          2.0220   24.0480  144.2320 N.am   51  HIS51      -0.1959
     72  CA         0.9870   24.2760  143.2300 C.3    51  HIS51       0.1787
     73  C          0.9830   25.7360  142.8070 C.2    51  HIS51       0.2620
     74  O          0.9510   26.6300  143.6590 O.2    51  HIS51      -0.2715
     75  CB        -0.3790   23.8740  143.7690 C.3    51  HIS51       0.0785
     76  CG        -0.3930   22.4980  144.3400 C.ar   51  HIS51       0.0821
     77  ND1       -0.6300   21.3810  143.5680 N.ar   51  HIS51      -0.2267
     78  CD2       -0.1490   22.0490  145.5930 C.ar   51  HIS51       0.1154
     79  CE1       -0.5610   20.3030  144.3280 C.ar   51  HIS51       0.1986
     80  NE2       -0.2620   20.6810  145.5570 N.ar   51  HIS51      -0.2212
     81  N          1.0160   25.9770  141.4960 N.am   52  TYR52      -0.1960
     82  CA         1.1250   27.3260  140.9550 C.3    52  TYR52       0.1771
     83  C         -0.0540   27.6000  140.0360 C.2    52  TYR52       0.2619
     84  O         -0.2780   26.8650  139.0650 O.2    52  TYR52      -0.2715
     85  CB         2.4640   27.5030  140.2330 C.3    52  TYR52       0.0574
     86  CG         3.6060   27.2120  141.1720 C.ar   52  TYR52      -0.0198
     87  CD1        4.0630   25.9130  141.3580 C.ar   52  TYR52      -0.0009
     88  CD2        4.1910   28.2270  141.9110 C.ar   52  TYR52      -0.0009
     89  CE1        5.0850   25.6380  142.2340 C.ar   52  TYR52       0.0417
     90  CE2        5.2260   27.9660  142.7870 C.ar   52  TYR52       0.0417
     91  CZ         5.6650   26.6710  142.9470 C.ar   52  TYR52       0.1957
     92  OH         6.6850   26.3980  143.8210 O.3    52  TYR52      -0.2866
     93  N         -0.8050   28.6510  140.3420 N.am   53  LEU53      -0.1977
     94  CA        -1.9950   28.9910  139.5740 C.3    53  LEU53       0.1596
     95  C         -1.6170   29.6560  138.2540 C.2    53  LEU53       0.2287
     96  O         -0.7950   30.5730  138.2300 O.2    53  LEU53      -0.2864
     97  CB        -2.9010   29.9170  140.3920 C.3    53  LEU53       0.0297
     98  CG        -4.1800   30.4040  139.6960 C.3    53  LEU53       0.0022
     99  CD1       -5.1200   29.2590  139.3540 C.3    53  LEU53       0.0001
    100  CD2       -4.8970   31.4370  140.5560 C.3    53  LEU53       0.0001
    101  N         -3.3930   31.7120  135.1910 N.3    55  LEU55      -0.1245
    102  CA        -4.6280   32.4100  134.8580 C.3    55  LEU55       0.1561
    103  C         -4.5810   33.0100  133.4560 C.2    55  LEU55       0.2260
    104  O         -3.5400   33.5200  133.0350 O.2    55  LEU55      -0.2867
    105  CB        -4.9010   33.5330  135.8730 C.3    55  LEU55       0.0270
    106  CG        -5.3830   33.0820  137.2550 C.3    55  LEU55       0.0019
    107  CD1       -5.6240   34.2840  138.1290 C.3    55  LEU55       0.0001
    108  CD2       -6.6490   32.2520  137.1270 C.3    55  LEU55       0.0001
    109  N         -0.6130   33.2710  132.3100 N.3    66  SER66      -0.1202
    110  CA         0.4400   33.8000  133.1540 C.3    66  SER66       0.2020
    111  C          0.2850   33.2320  134.5580 C.2    66  SER66       0.2619
    112  O         -0.8290   32.9560  135.0180 O.2    66  SER66      -0.2717
    113  CB         0.4090   35.3310  133.1860 C.3    66  SER66       0.2103
    114  OG         1.3720   35.8460  134.0850 O.3    66  SER66      -0.2182
    115  N          1.4220   33.0450  135.2210 N.am   67  MET67      -0.1965
    116  CA         1.4660   32.6920  136.6290 C.3    67  MET67       0.1736
    117  C          1.8490   33.8730  137.5000 C.2    67  MET67       0.2616
    118  O          1.9110   33.7290  138.7200 O.2    67  MET67      -0.2715
    119  CB         2.4570   31.5470  136.8690 C.3    67  MET67       0.0427
    120  CG         2.1270   30.2590  136.1540 C.3    67  MET67       0.0599
    121  SD         3.2570   28.9060  136.5890 S.3    67  MET67      -0.1393
    122  CE         4.7910   29.4930  135.8670 C.3    67  MET67       0.0692
    123  N          2.1300   35.0340  136.9030 N.am   68  ASP68      -0.1957
    124  CA         2.6520   36.1580  137.6690 C.3    68  ASP68       0.1840
    125  C          1.9760   37.4640  137.2690 C.2    68  ASP68       0.2622
    126  O          2.6180   38.5190  137.2490 O.2    68  ASP68      -0.2715
    127  CB         4.1840   36.2710  137.5170 C.3    68  ASP68       0.1450
    128  CG         4.6520   36.2810  136.0490 C.2    68  ASP68       0.3671
    129  OD1        3.8230   36.4670  135.1310 O.co2  68  ASP68      -0.2456
    130  OD2        5.8710   36.1010  135.8150 O.co2  68  ASP68      -0.2456
    131  N          0.6820   37.4040  136.9520 N.am   69  ASP69      -0.1971
    132  CA        -0.1280   38.5770  136.6240 C.3    69  ASP69       0.1709
    133  C          0.4340   39.3390  135.4220 C.2    69  ASP69       0.2293
    134  O          0.5650   40.5640  135.4300 O.2    69  ASP69      -0.2864
    135  CB        -0.3160   39.4950  137.8360 C.3    69  ASP69       0.1436
    136  CG        -1.5930   39.1840  138.5940 C.2    69  ASP69       0.3671
    137  OD1       -2.5300   38.6450  137.9610 O.co2  69  ASP69      -0.2456
    138  OD2       -1.6660   39.4740  139.8090 O.co2  69  ASP69      -0.2456
    139  N          3.4420   39.4250  134.0040 N.3    71  GLN71      -0.1245
    140  CA         4.8530   39.7430  133.8400 C.3    71  GLN71       0.1566
    141  C          5.4960   38.8170  132.8130 C.2    71  GLN71       0.2260
    142  O          6.3660   39.2410  132.0430 O.2    71  GLN71      -0.2867
    143  CB         5.5740   39.6620  135.1810 C.3    71  GLN71       0.0367
    144  CG         5.1140   40.7390  136.1520 C.3    71  GLN71       0.0905
    145  CD         5.9400   40.7940  137.4190 C.2    71  GLN71       0.2608
    146  OE1        5.9620   39.8510  138.2080 O.2    71  GLN71      -0.2717
    147  NE2        6.5860   41.9300  137.6450 N.am   71  GLN71      -0.0878
    148  N          9.5360   32.2770  138.0400 N.3    90  ILE90      -0.1245
    149  CA         9.1200   32.3260  139.4430 C.3    90  ILE90       0.1561
    150  C          9.1080   30.9650  140.1130 C.2    90  ILE90       0.2260
    151  O          8.7810   30.8800  141.3060 O.2    90  ILE90      -0.2867
    152  CB         7.7000   32.8940  139.6360 C.3    90  ILE90       0.0252
    153  CG1        6.6680   31.9380  139.0320 C.3    90  ILE90       0.0019
    154  CG2        7.5890   34.2830  139.0400 C.3    90  ILE90       0.0019
    155  CD1        5.2460   32.2130  139.4570 C.3    90  ILE90       0.0001
@<TRIPOS>BOND
     1   142   141    2
     2   109   110    1
     3   141   140    1
     4   104   103    2
     5   110   113    1
     6   110   111    1
     7   113   114    1
     8   103   102    1
     9   140   139    1
    10   140   143    1
    11   111   112    2
    12   111   115   am
    13   102   101    1
    14   102   105    1
    15   129   128   ar
    16   143   144    1
    17   115   116    1
    18   133   134    2
    19   133   132    1
    20    12    13    1
    21    14    13    1
    22    14    15    2
    23    13    16    1
    24   130   128   ar
    25   122   121    1
    26   105   106    1
    27   128   127    1
    28   144   145    1
    29   120   121    1
    30   120   119    1
    31   132   131    1
    32   132   135    1
    33   116   119    1
    34   116   117    1
    35   123   117   am
    36   123   124    1
    37   131   125   am
    38    48    49    1
    39    23    24    1
    40    16    17    1
    41    43    42    2
    42   108   106    1
    43    51    50    2
    44   126   125    2
    45   106   107    1
    46   125   124    1
    47   145   147   am
    48   145   146    2
    49   117   118    2
    50   127   124    1
    51    50    49    1
    52    42    41    1
    53   135   136    1
    54    26    25    2
    55   137   136   ar
    56   148   149    1
    57    49    52    1
    58    96    95    2
    59    95    94    1
    60    17    18    1
    61    24    27    1
    62    24    25    1
    63    27    28    1
    64   136   138   ar
    65    44    41    1
    66    44    45    1
    67    41    40    1
    68   153   155    1
    69   153   152    1
    70   154   152    1
    71    84    83    2
    72    99    98    1
    73    52    54    1
    74    52    53    1
    75   149   152    1
    76   149   150    1
    77    94    93    1
    78    94    97    1
    79    18    19    1
    80    98    97    1
    81    98   100    1
    82    83    93   am
    83    83    82    1
    84    40    31   am
    85   150   151    2
    86    85    82    1
    87    85    86    1
    88    45    47   am
    89    45    46    2
    90    19    20    2
    91    82    81    1
    92    31    32    2
    93    31    30    1
    94    86    87   ar
    95    86    88   ar
    96    21    20    1
    97    87    89   ar
    98    29    30    1
    99    81    73   am
   100    20    22    1
   101    88    90   ar
   102    30    33    1
   103    89    91   ar
   104    90    91   ar
   105    73    72    1
   106    73    74    2
   107    91    92    1
   108    65    64    2
   109    72    75    1
   110    72    71    1
   111    33    34    1
   112    77    79   ar
   113    77    76   ar
   114     1     2    1
   115    75    76    1
   116    64    71   am
   117    64    63    1
   118     2     3    1
   119     2     5    1
   120    79    80   ar
   121    76    78   ar
   122    38    37    1
   123    39    37    1
   124    34    35    1
   125    37    36    2
   126     4     3    2
   127    60    59    1
   128     5     6    1
   129    36    35    1
   130    66    63    1
   131    66    67    1
   132    63    62    1
   133    62    57   am
   134    80    78   ar
   135    61    59    1
   136    59    56    1
   137     6     7    1
   138    56    57    1
   139    56    55    1
   140    68    67    1
   141    68    69    1
   142    57    58    2
   143    11     9    1
   144     8     9    2
   145     8     7    1
   146     9    10    1
   147    70    69    1
