@<TRIPOS>MOLECULE
tmp/5u1rE00.pdb
 163 158 0 0 0
SMALL
GASTEIGER

@<TRIPOS>ATOM
      1  N          6.0800   33.9290  242.8620 N.3     6  LEU6       -0.1245
      2  CA         6.1590   33.8060  244.3060 C.3     6  LEU6        0.1561
      3  C          6.4860   32.3530  244.6090 C.2     6  LEU6        0.2260
      4  O          5.9090   31.4490  244.0070 O.2     6  LEU6       -0.2867
      5  CB         4.8460   34.2290  244.9650 C.3     6  LEU6        0.0270
      6  CG         4.6840   33.8650  246.4360 C.3     6  LEU6        0.0019
      7  CD1        5.7400   34.5810  247.2530 C.3     6  LEU6        0.0001
      8  CD2        3.2880   34.2140  246.9230 C.3     6  LEU6        0.0001
      9  N          7.8260   29.5720  247.8360 N.3     8  TYR8       -0.1241
     10  CA         8.2080   29.2550  249.2050 C.3     8  TYR8        0.1605
     11  C          8.7910   27.8530  249.3120 C.2     8  TYR8        0.2264
     12  O          8.1710   26.8750  248.8930 O.2     8  TYR8       -0.2867
     13  CB         7.0100   29.3940  250.1400 C.3     8  TYR8        0.0534
     14  CG         6.8050   30.7950  250.6650 C.ar    8  TYR8       -0.0201
     15  CD1        6.2200   31.7760  249.8760 C.ar    8  TYR8       -0.0009
     16  CD2        7.1910   31.1340  251.9530 C.ar    8  TYR8       -0.0009
     17  CE1        6.0280   33.0590  250.3580 C.ar    8  TYR8        0.0417
     18  CE2        7.0070   32.4110  252.4430 C.ar    8  TYR8        0.0417
     19  CZ         6.4240   33.3700  251.6420 C.ar    8  TYR8        0.1957
     20  OH         6.2380   34.6430  252.1330 O.3     8  TYR8       -0.2866
     21  N         10.6920   24.8310  251.8570 N.3    10  ARG10      -0.1245
     22  CA        10.8600   24.3360  253.2150 C.3    10  ARG10       0.1563
     23  C         11.8150   23.1570  253.1960 C.2    10  ARG10       0.2260
     24  O         11.6750   22.2550  252.3750 O.2    10  ARG10      -0.2867
     25  CB         9.5190   23.9340  253.8300 C.3    10  ARG10       0.0307
     26  CG         8.5840   25.1020  254.0630 C.3    10  ARG10       0.0489
     27  CD         7.3900   24.6970  254.8960 C.3    10  ARG10       0.2205
     28  NE         6.3710   25.7420  254.9100 N.pl3  10  ARG10      -0.0865
     29  CZ         5.0700   25.5150  254.7720 C.cat  10  ARG10       0.5346
     30  NH1        4.6270   24.2740  254.6170 N.pl3  10  ARG10       0.1354
     31  NH2        4.2140   26.5250  254.7950 N.pl3  10  ARG10       0.1354
     32  N         12.8210   27.5460  256.3380 N.3    23  SER23      -0.1217
     33  CA        11.7760   27.9930  255.4260 C.3    23  SER23       0.1889
     34  C         12.0910   29.3760  254.8800 C.2    23  SER23       0.2288
     35  O         12.2840   30.3230  255.6390 O.2    23  SER23      -0.2866
     36  CB        10.4150   28.0070  256.1220 C.3    23  SER23       0.2089
     37  OG         9.4020   28.4530  255.2360 O.3    23  SER23      -0.2183
     38  N         11.2980   36.4170  253.1390 N.3    33  THR33      -0.1218
     39  CA        11.0690   35.9430  254.5020 C.3    33  THR33       0.1862
     40  C         11.9030   34.7030  254.7900 C.2    33  THR33       0.2287
     41  O         12.1180   33.8750  253.9030 O.2    33  THR33      -0.2866
     42  CB         9.5860   35.6120  254.7540 C.3    33  THR33       0.1770
     43  OG1        9.1520   34.6160  253.8180 O.3    33  THR33      -0.2211
     44  CG2        8.7170   36.8560  254.6130 C.3    33  THR33       0.0375
     45  N         10.0990   34.1060  262.4770 N.3    42  LYS42      -0.1245
     46  CA         9.9760   34.4650  261.0700 C.3    42  LYS42       0.1561
     47  C         10.4440   35.9030  260.8610 C.2    42  LYS42       0.2260
     48  O          9.8710   36.8380  261.4180 O.2    42  LYS42      -0.2867
     49  CB         8.5390   34.2960  260.5830 C.3    42  LYS42       0.0271
     50  CG         8.4010   34.3240  259.0680 C.3    42  LYS42       0.0035
     51  CD         7.2970   35.2700  258.6270 C.3    42  LYS42       0.0206
     52  CE         6.8810   35.0050  257.1890 C.3    42  LYS42       0.1093
     53  NZ         5.8660   35.9900  256.7160 N.3    42  LYS42      -0.1314
     54  N          1.7000   40.0400  261.6590 N.3    57  HIS57      -0.1241
     55  CA         1.9950   39.1280  260.5640 C.3    57  HIS57       0.1621
     56  C          3.1320   38.1910  260.9370 C.2    57  HIS57       0.2264
     57  O          3.0240   36.9740  260.7940 O.2    57  HIS57      -0.2867
     58  CB         2.3490   39.9150  259.3010 C.3    57  HIS57       0.0745
     59  CG         2.7720   39.0600  258.1480 C.ar   57  HIS57       0.0817
     60  ND1        1.8730   38.4790  257.2810 N.ar   57  HIS57      -0.2268
     61  CD2        4.0020   38.6910  257.7180 C.ar   57  HIS57       0.1154
     62  CE1        2.5310   37.7910  256.3650 C.ar   57  HIS57       0.1986
     63  NE2        3.8250   37.9030  256.6080 N.ar   57  HIS57      -0.2212
     64  N          2.9220   34.0440  261.5830 N.3    61  TYR61      -0.1241
     65  CA         3.5710   33.0430  260.7460 C.3    61  TYR61       0.1605
     66  C          4.7450   32.3710  261.4400 C.2    61  TYR61       0.2264
     67  O          5.1870   31.3020  261.0220 O.2    61  TYR61      -0.2867
     68  CB         4.0020   33.6620  259.4190 C.3    61  TYR61       0.0534
     69  CG         2.8360   33.7630  258.4750 C.ar   61  TYR61      -0.0201
     70  CD1        2.4230   32.6630  257.7360 C.ar   61  TYR61      -0.0009
     71  CD2        2.1150   34.9400  258.3580 C.ar   61  TYR61      -0.0009
     72  CE1        1.3370   32.7440  256.8830 C.ar   61  TYR61       0.0417
     73  CE2        1.0310   35.0290  257.5120 C.ar   61  TYR61       0.0417
     74  CZ         0.6450   33.9300  256.7770 C.ar   61  TYR61       0.1957
     75  OH        -0.4370   34.0220  255.9360 O.3    61  TYR61      -0.2866
     76  N          2.9700   29.3700  262.9050 N.3    64  LEU64      -0.1231
     77  CA         2.7040   28.3480  261.9000 C.3    64  LEU64       0.1693
     78  C          3.9750   27.5960  261.5180 C.2    64  LEU64       0.2591
     79  O          3.9500   26.3830  261.3130 O.2    64  LEU64      -0.2718
     80  CB         2.0710   28.9740  260.6570 C.3    64  LEU64       0.0284
     81  CG         0.7630   29.7260  260.8970 C.3    64  LEU64       0.0019
     82  CD1        0.1750   30.2010  259.5790 C.3    64  LEU64       0.0001
     83  CD2       -0.2230   28.8540  261.6620 C.3    64  LEU64       0.0001
     84  N          5.0860   28.3170  261.4310 N.am   65  LEU65      -0.1980
     85  CA         6.3550   27.7070  261.0550 C.3    65  LEU65       0.1596
     86  C          6.9210   26.8170  262.1620 C.2    65  LEU65       0.2287
     87  O          7.6330   25.8520  261.8840 O.2    65  LEU65      -0.2864
     88  CB         7.3630   28.7880  260.6680 C.3    65  LEU65       0.0297
     89  CG         7.0840   29.3410  259.2690 C.3    65  LEU65       0.0022
     90  CD1        7.8560   30.6220  259.0070 C.3    65  LEU65       0.0001
     91  CD2        7.4110   28.2860  258.2240 C.3    65  LEU65       0.0001
     92  N          5.1340   23.7550  261.5800 N.3    68  TRP68      -0.1241
     93  CA         5.6410   23.0440  260.4180 C.3    68  TRP68       0.1605
     94  C          6.9600   22.3540  260.7150 C.2    68  TRP68       0.2264
     95  O          7.2180   21.2580  260.2180 O.2    68  TRP68      -0.2867
     96  CB         5.7870   23.9910  259.2290 C.3    68  TRP68       0.0550
     97  CG         4.5330   24.0660  258.4240 C.ar   68  TRP68       0.0003
     98  CD1        3.6630   25.1140  258.3480 C.ar   68  TRP68       0.0946
     99  CD2        3.9860   23.0280  257.6060 C.ar   68  TRP68       0.0152
    100  NE1        2.6160   24.7980  257.5180 N.ar   68  TRP68      -0.2442
    101  CE2        2.7900   23.5210  257.0510 C.ar   68  TRP68       0.0810
    102  CE3        4.3960   21.7310  257.2830 C.ar   68  TRP68       0.0012
    103  CZ2        1.9990   22.7620  256.1880 C.ar   68  TRP68       0.0191
    104  CZ3        3.6100   20.9790  256.4280 C.ar   68  TRP68       0.0001
    105  CH2        2.4260   21.4970  255.8900 C.ar   68  TRP68       0.0015
    106  N          9.9510   20.9780  250.3430 N.3    93  ARG93      -0.1245
    107  CA         8.6520   21.3620  249.8150 C.3    93  ARG93       0.1563
    108  C          8.7740   22.6740  249.0530 C.2    93  ARG93       0.2260
    109  O          9.4520   23.5970  249.5050 O.2    93  ARG93      -0.2867
    110  CB         7.6310   21.4980  250.9450 C.3    93  ARG93       0.0307
    111  CG         6.2440   21.9510  250.5040 C.3    93  ARG93       0.0489
    112  CD         5.4650   22.4630  251.7000 C.3    93  ARG93       0.2205
    113  NE         4.0210   22.4120  251.5010 N.pl3  93  ARG93      -0.0865
    114  CZ         3.2280   23.4770  251.4950 C.cat  93  ARG93       0.5346
    115  NH1        3.7390   24.6880  251.6750 N.pl3  93  ARG93       0.1354
    116  NH2        1.9230   23.3320  251.3140 N.pl3  93  ARG93       0.1354
    117  N          6.1920   25.5020  247.0830 N.3    95  ILE95      -0.1245
    118  CA         4.8640   25.9480  246.7090 C.3    95  ILE95       0.1561
    119  C          4.9780   27.3510  246.1310 C.2    95  ILE95       0.2260
    120  O          5.9070   28.0950  246.4670 O.2    95  ILE95      -0.2867
    121  CB         3.9000   25.9380  247.9120 C.3    95  ILE95       0.0252
    122  CG1        2.4440   26.0270  247.4480 C.3    95  ILE95       0.0019
    123  CG2        4.2320   27.0640  248.8760 C.3    95  ILE95       0.0019
    124  CD1        1.4450   25.8560  248.5680 C.3    95  ILE95       0.0001
    125  N         -6.1420   27.9190  246.7630 N.3   155  TRP155     -0.1241
    126  CA        -5.0290   28.7100  247.2650 C.3   155  TRP155      0.1605
    127  C         -4.0230   29.0360  246.1640 C.2   155  TRP155      0.2264
    128  O         -3.5460   30.1660  246.0650 O.2   155  TRP155     -0.2867
    129  CB        -4.3210   27.9930  248.4150 C.3   155  TRP155      0.0550
    130  CG        -3.3700   28.9030  249.1060 C.ar  155  TRP155      0.0003
    131  CD1       -3.6330   29.7010  250.1800 C.ar  155  TRP155      0.0946
    132  CD2       -2.0100   29.1530  248.7420 C.ar  155  TRP155      0.0152
    133  NE1       -2.5150   30.4230  250.5160 N.ar  155  TRP155     -0.2442
    134  CE2       -1.5040   30.1050  249.6470 C.ar  155  TRP155      0.0810
    135  CE3       -1.1680   28.6580  247.7430 C.ar  155  TRP155      0.0012
    136  CZ2       -0.1960   30.5690  249.5850 C.ar  155  TRP155      0.0191
    137  CZ3        0.1300   29.1200  247.6830 C.ar  155  TRP155      0.0001
    138  CH2        0.6030   30.0660  248.5960 C.ar  155  TRP155      0.0015
    139  N         -1.2690   37.1780  246.9590 N.3   163  TRP163     -0.1241
    140  CA        -0.0520   37.4310  247.7320 C.3   163  TRP163      0.1605
    141  C          1.0360   38.0320  246.8450 C.2   163  TRP163      0.2264
    142  O          1.7230   38.9760  247.2390 O.2   163  TRP163     -0.2867
    143  CB         0.4750   36.1460  248.3880 C.3   163  TRP163      0.0550
    144  CG        -0.2020   35.7660  249.6840 C.ar  163  TRP163      0.0003
    145  CD1       -0.9990   34.6780  249.9030 C.ar  163  TRP163      0.0946
    146  CD2       -0.1280   36.4650  250.9350 C.ar  163  TRP163      0.0152
    147  NE1       -1.4310   34.6610  251.2070 N.ar  163  TRP163     -0.2442
    148  CE2       -0.9110   35.7460  251.8620 C.ar  163  TRP163      0.0810
    149  CE3        0.5190   37.6300  251.3600 C.ar  163  TRP163      0.0012
    150  CZ2       -1.0640   36.1560  253.1880 C.ar  163  TRP163      0.0191
    151  CZ3        0.3650   38.0350  252.6770 C.ar  163  TRP163      0.0001
    152  CH2       -0.4200   37.3000  253.5740 C.ar  163  TRP163      0.0015
    153  N          2.8470   41.6550  247.1470 N.3   167  PHE167     -0.1241
    154  CA         4.2860   41.8080  247.3340 C.3   167  PHE167      0.1605
    155  C          4.9290   42.6120  246.2090 C.2   167  PHE167      0.2264
    156  O          5.9030   43.3340  246.4340 O.2   167  PHE167     -0.2867
    157  CB         4.9540   40.4370  247.4450 C.3   167  PHE167      0.0534
    158  CG         4.5780   39.6830  248.6890 C.ar  167  PHE167     -0.0203
    159  CD1        4.0230   40.3430  249.7740 C.ar  167  PHE167     -0.0042
    160  CD2        4.7830   38.3170  248.7760 C.ar  167  PHE167     -0.0042
    161  CE1        3.6750   39.6540  250.9190 C.ar  167  PHE167     -0.0003
    162  CE2        4.4400   37.6220  249.9220 C.ar  167  PHE167     -0.0003
    163  CZ         3.8850   38.2920  250.9930 C.ar  167  PHE167     -0.0000
@<TRIPOS>BOND
     1     1     2    1
     2     4     3    2
     3     2     3    1
     4     2     5    1
     5     5     6    1
     6   128   127    2
     7   119   120    2
     8   119   118    1
     9   127   126    1
    10   155   156    2
    11   155   154    1
    12     6     8    1
    13     6     7    1
    14   118   117    1
    15   118   121    1
    16   125   126    1
    17   141   142    2
    18   141   140    1
    19   139   140    1
    20   153   154    1
    21   126   129    1
    22   154   157    1
    23   157   158    1
    24   122   121    1
    25   122   124    1
    26   137   135   ar
    27   137   138   ar
    28   140   143    1
    29   135   132   ar
    30     9    10    1
    31   121   123    1
    32   143   144    1
    33   129   130    1
    34   138   136   ar
    35   158   160   ar
    36   158   159   ar
    37   132   130   ar
    38   132   134   ar
    39   160   162   ar
    40    12    11    2
    41   108   109    2
    42   108   107    1
    43   130   131   ar
    44    10    11    1
    45    10    13    1
    46   136   134   ar
    47   134   133   ar
    48   144   145   ar
    49   144   146   ar
    50   159   161   ar
    51   107   106    1
    52   107   110    1
    53    15    17   ar
    54    15    14   ar
    55   145   147   ar
    56   162   163   ar
    57    13    14    1
    58   131   133   ar
    59    17    19   ar
    60   111   110    1
    61   111   112    1
    62    14    16   ar
    63   161   163   ar
    64   146   149   ar
    65   146   148   ar
    66   147   148   ar
    67   116   114    1
    68   149   151   ar
    69   114   113    2
    70   114   115    1
    71   113   112    1
    72    19    20    1
    73    19    18   ar
    74    21    22    1
    75   148   150   ar
    76    16    18   ar
    77    24    23    2
    78   151   152   ar
    79    38    39    1
    80   150   152   ar
    81    23    22    1
    82    22    25    1
    83    43    42    1
    84    25    26    1
    85    41    40    2
    86    26    27    1
    87    39    42    1
    88    39    40    1
    89    44    42    1
    90    30    29    1
    91    29    31    1
    92    29    28    2
    93    34    33    1
    94    34    35    2
    95    27    28    1
    96    37    36    1
    97    33    36    1
    98    33    32    1
    99   105   103   ar
   100   105   104   ar
   101    75    74    1
   102   103   101   ar
   103    62    63   ar
   104    62    60   ar
   105   104   102   ar
   106    63    61   ar
   107    53    52    1
   108    74    72   ar
   109    74    73   ar
   110    72    70   ar
   111   101   100   ar
   112   101    99   ar
   113    52    51    1
   114    60    59   ar
   115   102    99   ar
   116    73    71   ar
   117   100    98   ar
   118    99    97   ar
   119    61    59   ar
   120    70    69   ar
   121    59    58    1
   122    91    89    1
   123    98    97   ar
   124    71    69   ar
   125    97    96    1
   126    69    68    1
   127    51    50    1
   128    90    89    1
   129    50    49    1
   130    96    93    1
   131    89    88    1
   132    58    55    1
   133    68    65    1
   134    82    81    1
   135    95    94    2
   136    93    94    1
   137    93    92    1
   138    55    56    1
   139    55    54    1
   140    49    46    1
   141    80    81    1
   142    80    77    1
   143    88    85    1
   144    65    66    1
   145    65    64    1
   146    57    56    2
   147    47    46    1
   148    47    48    2
   149    81    83    1
   150    67    66    2
   151    85    84    1
   152    85    86    1
   153    46    45    1
   154    79    78    2
   155    84    78   am
   156    78    77    1
   157    87    86    2
   158    77    76    1
