@<TRIPOS>MOLECULE
tmp/5u22A00.pdb
 124 122 0 0 0
SMALL
GASTEIGER

@<TRIPOS>ATOM
      1  N         26.3980   38.3350   35.0630 N.3    24  HIS24      -0.1241
      2  CA        26.9420   37.1140   34.4740 C.3    24  HIS24       0.1621
      3  C         27.3770   36.1560   35.5780 C.2    24  HIS24       0.2264
      4  O         28.1450   36.5410   36.4590 O.2    24  HIS24      -0.2867
      5  CB        28.1290   37.4690   33.5790 C.3    24  HIS24       0.0745
      6  CG        28.6620   36.3160   32.7930 C.ar   24  HIS24       0.0817
      7  ND1       27.8350   35.4100   32.1680 N.ar   24  HIS24      -0.2268
      8  CD2       29.9300   35.9300   32.5100 C.ar   24  HIS24       0.1154
      9  CE1       28.5690   34.5070   31.5420 C.ar   24  HIS24       0.1986
     10  NE2       29.8440   34.8050   31.7260 N.ar   24  HIS24      -0.2212
     11  N         32.8470   24.9860   30.5060 N.3    58  GLN58      -0.1231
     12  CA        33.6880   26.1230   30.8600 C.3    58  GLN58       0.1698
     13  C         33.8740   26.2300   32.3680 C.2    58  GLN58       0.2592
     14  O         34.9860   26.4740   32.8430 O.2    58  GLN58      -0.2718
     15  CB        33.0910   27.4210   30.3180 C.3    58  GLN58       0.0381
     16  CG        33.8900   28.6840   30.6560 C.3    58  GLN58       0.0905
     17  CD        35.2230   28.8020   29.9210 C.2    58  GLN58       0.2608
     18  OE1       36.0670   29.6070   30.2970 O.2    58  GLN58      -0.2717
     19  NE2       35.4070   28.0220   28.8660 N.am   58  GLN58      -0.0878
     20  N         32.8030   26.0740   33.1320 N.am   59  GLN59      -0.1979
     21  CA        32.8530   26.2220   34.5770 C.3    59  GLN59       0.1601
     22  C         32.1040   25.0820   35.2530 C.2    59  GLN59       0.2287
     23  O         31.2690   24.4130   34.6310 O.2    59  GLN59      -0.2864
     24  CB        32.2480   27.5690   35.0060 C.3    59  GLN59       0.0394
     25  CG        32.9900   28.7930   34.4750 C.3    59  GLN59       0.0908
     26  CD        34.3940   28.9390   35.0580 C.2    59  GLN59       0.2608
     27  OE1       34.7230   28.3260   36.0740 O.2    59  GLN59      -0.2717
     28  NE2       35.2160   29.7680   34.4230 N.am   59  GLN59      -0.0878
     29  N         40.0290   28.8670   28.1140 N.3    90  TRP90      -0.1241
     30  CA        39.9960   30.2600   27.6700 C.3    90  TRP90       0.1605
     31  C         41.3330   30.6210   27.0250 C.2    90  TRP90       0.2264
     32  O         42.3640   30.6480   27.7060 O.2    90  TRP90      -0.2867
     33  CB        39.6920   31.2200   28.8240 C.3    90  TRP90       0.0550
     34  CG        39.5030   32.6420   28.3540 C.ar   90  TRP90       0.0003
     35  CD1       40.4670   33.5990   28.2370 C.ar   90  TRP90       0.0946
     36  CD2       38.2760   33.2560   27.9300 C.ar   90  TRP90       0.0152
     37  NE1       39.9200   34.7730   27.7710 N.ar   90  TRP90      -0.2442
     38  CE2       38.5770   34.5900   27.5720 C.ar   90  TRP90       0.0810
     39  CE3       36.9540   32.8110   27.8240 C.ar   90  TRP90       0.0012
     40  CZ2       37.6010   35.4890   27.1140 C.ar   90  TRP90       0.0191
     41  CZ3       35.9830   33.7030   27.3550 C.ar   90  TRP90       0.0001
     42  CH2       36.3160   35.0290   27.0100 C.ar   90  TRP90       0.0015
     43  N         30.9930   34.2010   22.7440 N.3   126  ASN126     -0.1225
     44  CA        31.3860   35.1260   23.8070 C.3   126  ASN126      0.1785
     45  C         32.7570   35.6670   23.4530 C.2   126  ASN126      0.2597
     46  O         33.7110   34.8900   23.3390 O.2   126  ASN126     -0.2718
     47  CB        31.4260   34.4300   25.1730 C.3   126  ASN126      0.1169
     48  CG        31.8260   35.3700   26.3130 C.2   126  ASN126      0.2627
     49  OD1       31.4210   36.5300   26.3540 O.2   126  ASN126     -0.2716
     50  ND2       32.6150   34.8530   27.2550 N.am  126  ASN126     -0.0877
     51  N         32.8440   36.9820   23.2740 N.am  127  GLU127     -0.1979
     52  CA        34.1030   37.6730   23.0120 C.3   127  GLU127      0.1602
     53  C         34.9090   37.0170   21.8830 C.2   127  GLU127      0.2287
     54  O         36.0570   36.6040   22.0940 O.2   127  GLU127     -0.2864
     55  CB        34.9290   37.7810   24.2840 C.3   127  GLU127      0.0415
     56  CG        34.1330   38.4850   25.3910 C.3   127  GLU127      0.1163
     57  CD        34.9790   39.0190   26.5290 C.2   127  GLU127      0.3649
     58  OE1       36.0930   38.4900   26.7700 O.co2 127  GLU127     -0.2457
     59  OE2       34.5160   39.9830   27.1900 O.co2 127  GLU127     -0.2457
     60  N         34.1580   41.6180   23.1620 N.3   166  SER166     -0.1217
     61  CA        34.7190   42.0160   24.4510 C.3   166  SER166      0.1889
     62  C         34.7260   43.5320   24.6210 C.2   166  SER166      0.2288
     63  O         34.5540   44.0420   25.7380 O.2   166  SER166     -0.2866
     64  CB        36.1310   41.4780   24.6020 C.3   166  SER166      0.2089
     65  OG        36.6490   41.8720   25.8500 O.3   166  SER166     -0.2183
     66  N         33.6440   46.6540   29.5570 N.3   195  LEU195     -0.1245
     67  CA        34.4950   46.3110   30.6840 C.3   195  LEU195      0.1561
     68  C         35.9050   46.8680   30.5050 C.2   195  LEU195      0.2260
     69  O         36.8080   46.4870   31.2520 O.2   195  LEU195     -0.2867
     70  CB        34.5200   44.7840   30.8760 C.3   195  LEU195      0.0270
     71  CG        34.6630   43.9180   29.6160 C.3   195  LEU195      0.0019
     72  CD1       36.0780   43.9900   28.9980 C.3   195  LEU195      0.0001
     73  CD2       34.2980   42.4760   29.9560 C.3   195  LEU195      0.0001
     74  N         27.9940   42.0930   29.7640 N.3   226  GLU226     -0.1245
     75  CA        29.0150   42.2000   30.8080 C.3   226  GLU226      0.1567
     76  C         29.3990   43.6640   30.9220 C.2   226  GLU226      0.2260
     77  O         29.7510   44.2760   29.9120 O.2   226  GLU226     -0.2867
     78  CB        30.2660   41.3660   30.4940 C.3   226  GLU226      0.0388
     79  CG        30.0070   39.8410   30.4340 C.3   226  GLU226      0.1160
     80  CD        31.2860   39.0550   30.2640 C.2   226  GLU226      0.3649
     81  OE1       32.3190   39.5390   30.7600 O.co2 226  GLU226     -0.2457
     82  OE2       31.2590   37.9720   29.6330 O.co2 226  GLU226     -0.2457
     83  N         29.7080   42.1270   35.1440 N.3   259  THR259     -0.1203
     84  CA        30.7490   41.1430   34.8830 C.3   259  THR259      0.1994
     85  C         30.7890   40.0590   35.9550 C.2   259  THR259      0.2618
     86  O         30.1530   40.1460   37.0140 O.2   259  THR259     -0.2717
     87  CB        32.1300   41.8100   34.8280 C.3   259  THR259      0.1784
     88  OG1       32.2680   42.7260   35.9320 O.3   259  THR259     -0.2211
     89  CG2       32.3270   42.5410   33.5080 C.3   259  THR259      0.0376
     90  N         31.5670   39.0140   35.6510 N.am  260  TRP260     -0.1961
     91  CA        31.9740   37.9810   36.6120 C.3   260  TRP260      0.1771
     92  C         33.4940   37.9200   36.5500 C.2   260  TRP260      0.2619
     93  O         34.0680   37.0160   35.9330 O.2   260  TRP260     -0.2715
     94  CB        31.3410   36.6430   36.2820 C.3   260  TRP260      0.0590
     95  CG        31.7260   35.5320   37.2270 C.ar  260  TRP260      0.0006
     96  CD1       31.8250   35.5980   38.5900 C.ar  260  TRP260      0.0946
     97  CD2       32.0670   34.1930   36.8620 C.ar  260  TRP260      0.0152
     98  NE1       32.1830   34.3730   39.0960 N.ar  260  TRP260     -0.2442
     99  CE2       32.3530   33.4960   38.0530 C.ar  260  TRP260      0.0810
    100  CE3       32.1560   33.5140   35.6390 C.ar  260  TRP260      0.0012
    101  CZ2       32.7200   32.1520   38.0570 C.ar  260  TRP260      0.0191
    102  CZ3       32.5110   32.1820   35.6440 C.ar  260  TRP260      0.0001
    103  CH2       32.7890   31.5120   36.8440 C.ar  260  TRP260      0.0015
    104  N         34.1540   38.8980   37.1700 N.am  261  TRP261     -0.1974
    105  CA        35.6120   38.9000   37.1450 C.3   261  TRP261      0.1640
    106  C         36.2290   37.9440   38.1550 C.2   261  TRP261      0.2290
    107  O         37.3710   37.5200   37.9570 O.2   261  TRP261     -0.2864
    108  CB        36.1680   40.3040   37.4060 C.3   261  TRP261      0.0576
    109  CG        36.2100   41.1750   36.1980 C.ar  261  TRP261      0.0006
    110  CD1       35.5570   42.3590   36.0220 C.ar  261  TRP261      0.0946
    111  CD2       36.9400   40.9340   34.9930 C.ar  261  TRP261      0.0152
    112  NE1       35.8460   42.8780   34.7840 N.ar  261  TRP261     -0.2442
    113  CE2       36.6950   42.0210   34.1340 C.ar  261  TRP261      0.0810
    114  CE3       37.7980   39.9150   34.5640 C.ar  261  TRP261      0.0012
    115  CZ2       37.2580   42.1110   32.8660 C.ar  261  TRP261      0.0191
    116  CZ3       38.3570   40.0070   33.3120 C.ar  261  TRP261      0.0001
    117  CH2       38.0860   41.0980   32.4730 C.ar  261  TRP261      0.0015
    118  N         36.2200   34.6220   39.4120 N.3   263  VAL263     -0.1245
    119  CA        35.8160   33.2610   39.0820 C.3   263  VAL263      0.1561
    120  C         35.7270   32.3680   40.3180 C.2   263  VAL263      0.2260
    121  O         34.8330   31.5110   40.3660 O.2   263  VAL263     -0.2867
    122  CB        36.7610   32.6920   38.0110 C.3   263  VAL263      0.0252
    123  CG1       36.4690   31.2270   37.7450 C.3   263  VAL263      0.0019
    124  CG2       36.5930   33.4700   36.7190 C.3   263  VAL263      0.0019
@<TRIPOS>BOND
     1    53    54    2
     2    53    52    1
     3    43    44    1
     4    52    51    1
     5    52    55    1
     6    60    61    1
     7    51    45   am
     8    46    45    2
     9    45    44    1
    10    44    47    1
    11    55    56    1
    12    61    64    1
    13    61    62    1
    14    64    65    1
    15    62    63    2
    16    47    48    1
    17    56    57    1
    18    48    49    2
    19    48    50   am
    20    57    58   ar
    21    57    59   ar
    22    42    40   ar
    23    42    41   ar
    24    31    30    1
    25    31    32    2
    26    40    38   ar
    27    41    39   ar
    28    38    37   ar
    29    38    36   ar
    30    30    29    1
    31    30    33    1
    32    37    35   ar
    33    39    36   ar
    34    36    34   ar
    35    35    34   ar
    36    34    33    1
    37    19    17   am
    38    72    71    1
    39    66    67    1
    40    71    73    1
    41    71    70    1
    42    82    80   ar
    43    74    75    1
    44    77    76    2
    45    17    18    2
    46    17    16    1
    47    80    79    1
    48    80    81   ar
    49    15    16    1
    50    15    12    1
    51    79    78    1
    52    78    75    1
    53    68    67    1
    54    68    69    2
    55    11    12    1
    56    67    70    1
    57    75    76    1
    58    12    13    1
    59     9    10   ar
    60     9     7   ar
    61    10     8   ar
    62     7     6   ar
    63    13    14    2
    64    13    20   am
    65   117   115   ar
    66   117   116   ar
    67     8     6   ar
    68     6     5    1
    69   115   113   ar
    70    20    21    1
    71   116   114   ar
    72    89    87    1
    73     5     2    1
    74   113   112   ar
    75   113   111   ar
    76    28    26   am
    77     2     1    1
    78     2     3    1
    79    25    24    1
    80    25    26    1
    81   114   111   ar
    82    21    24    1
    83    21    22    1
    84    23    22    2
    85   112   110   ar
    86    87    84    1
    87    87    88    1
    88    84    83    1
    89    84    85    1
    90   111   109   ar
    91    26    27    2
    92     3     4    2
    93   100   102   ar
    94   100    97   ar
    95   102   103   ar
    96    90    85   am
    97    90    91    1
    98    93    92    2
    99    85    86    2
   100   110   109   ar
   101   109   108    1
   102    94    91    1
   103    94    95    1
   104    92    91    1
   105    92   104   am
   106   124   122    1
   107   103   101   ar
   108    97    95   ar
   109    97    99   ar
   110   105   104    1
   111   105   108    1
   112   105   106    1
   113    95    96   ar
   114   123   122    1
   115   107   106    2
   116   122   119    1
   117    99   101   ar
   118    99    98   ar
   119    96    98   ar
   120   119   118    1
   121   119   120    1
   122   120   121    2
