@<TRIPOS>MOLECULE
tmp/5u26A00.pdb
 214 210 0 0 0
SMALL
GASTEIGER

@<TRIPOS>ATOM
      1  N         -9.7340   -7.0730   10.8540 N.3    12  ILE12      -0.1231
      2  CA        -8.6830   -7.0730   11.8630 C.3    12  ILE12       0.1692
      3  C         -8.7490   -5.7760   12.6590 C.2    12  ILE12       0.2592
      4  O         -8.8110   -4.6890   12.0750 O.2    12  ILE12      -0.2718
      5  CB        -7.2700   -7.2720   11.2220 C.3    12  ILE12       0.0266
      6  CG1       -6.2010   -7.3370   12.3260 C.3    12  ILE12       0.0019
      7  CG2       -6.9710   -6.1740   10.1860 C.3    12  ILE12       0.0020
      8  CD1       -4.8370   -7.8170   11.8490 C.3    12  ILE12       0.0001
      9  N         -8.7820   -5.8820   13.9980 N.am   13  TRP13      -0.1962
     10  CA        -8.8220   -4.6840   14.8440 C.3    13  TRP13       0.1771
     11  C         -8.2450   -4.9410   16.2220 C.2    13  TRP13       0.2619
     12  O         -8.0500   -6.0950   16.6080 O.2    13  TRP13      -0.2715
     13  CB       -10.2650   -4.1530   14.9940 C.3    13  TRP13       0.0590
     14  CG       -11.1700   -4.9460   15.9520 C.ar   13  TRP13       0.0006
     15  CD1      -11.2940   -4.7780   17.3030 C.ar   13  TRP13       0.0946
     16  CD2      -12.1110   -5.9700   15.5850 C.ar   13  TRP13       0.0152
     17  NE1      -12.2350   -5.6630   17.8130 N.ar   13  TRP13      -0.2442
     18  CE2      -12.7530   -6.3970   16.7760 C.ar   13  TRP13       0.0810
     19  CE3      -12.4660   -6.5620   14.3720 C.ar   13  TRP13       0.0012
     20  CZ2      -13.7410   -7.3810   16.7900 C.ar   13  TRP13       0.0191
     21  CZ3      -13.4360   -7.5810   14.3850 C.ar   13  TRP13       0.0001
     22  CH2      -14.0550   -7.9820   15.5900 C.ar   13  TRP13       0.0015
     23  N         -7.9480   -3.8420   16.9300 N.am   14  ALA14      -0.1977
     24  CA        -7.4960   -3.8580   18.3090 C.3    14  ALA14       0.1597
     25  C         -8.5420   -3.1080   19.1450 C.2    14  ALA14       0.2287
     26  O         -9.0200   -2.0300   18.7680 O.2    14  ALA14      -0.2864
     27  CB        -6.0980   -3.2050   18.4420 C.3    14  ALA14       0.0319
     28  N         -8.2480    8.9540   16.5630 N.3    26  ASP26      -0.1225
     29  CA        -7.0170    8.2250   16.8430 C.3    26  ASP26       0.1805
     30  C         -7.3380    6.9530   17.6210 C.2    26  ASP26       0.2597
     31  O         -8.4890    6.7040   17.9430 O.2    26  ASP26      -0.2718
     32  CB        -6.0500    9.1230   17.6280 C.3    26  ASP26       0.1424
     33  CG        -4.6100    8.6000   17.6510 C.2    26  ASP26       0.3668
     34  OD1       -4.2970    7.5740   16.9960 O.co2  26  ASP26      -0.2456
     35  OD2       -3.7790    9.2550   18.3190 O.co2  26  ASP26      -0.2456
     36  N         -6.3190    6.1430   17.8940 N.am   27  ILE27      -0.1980
     37  CA        -6.4690    4.9310   18.7070 C.3    27  ILE27       0.1595
     38  C         -5.9410    5.2860   20.0930 C.2    27  ILE27       0.2287
     39  O         -4.8120    5.7600   20.2110 O.2    27  ILE27      -0.2864
     40  CB        -5.6850    3.7440   18.1090 C.3    27  ILE27       0.0276
     41  CG1       -6.2480    3.3590   16.7240 C.3    27  ILE27       0.0022
     42  CG2       -5.7180    2.5590   19.0350 C.3    27  ILE27       0.0022
     43  CD1       -5.4110    2.3190   15.9970 C.3    27  ILE27       0.0001
     44  N         -4.3960    4.1760   22.6150 N.3    29  TRP29      -0.1227
     45  CA        -3.2920    3.5010   23.3030 C.3    29  TRP29       0.1737
     46  C         -2.1620    3.3230   22.2830 C.2    29  TRP29       0.2595
     47  O         -2.3470    3.5600   21.0820 O.2    29  TRP29      -0.2718
     48  CB        -3.7080    2.1470   23.8940 C.3    29  TRP29       0.0564
     49  CG        -4.2360    1.2140   22.8400 C.ar   29  TRP29       0.0003
     50  CD1       -3.5010    0.4580   21.9640 C.ar   29  TRP29       0.0946
     51  CD2       -5.6060    0.9830   22.5190 C.ar   29  TRP29       0.0152
     52  NE1       -4.3380   -0.2250   21.1060 N.ar   29  TRP29      -0.2442
     53  CE2       -5.6380    0.0690   21.4370 C.ar   29  TRP29       0.0810
     54  CE3       -6.8150    1.4510   23.0400 C.ar   29  TRP29       0.0012
     55  CZ2       -6.8310   -0.3830   20.8790 C.ar   29  TRP29       0.0191
     56  CZ3       -8.0070    1.0040   22.4760 C.ar   29  TRP29       0.0001
     57  CH2       -8.0030    0.0960   21.4100 C.ar   29  TRP29       0.0015
     58  N         -0.9980    2.9090   22.7660 N.am   30  ARG30      -0.1980
     59  CA         0.1440    2.6700   21.8990 C.3    30  ARG30       0.1597
     60  C          0.6810    1.2780   22.2100 C.2    30  ARG30       0.2287
     61  O          0.9820    0.9710   23.3670 O.2    30  ARG30      -0.2864
     62  CB         1.2270    3.7390   22.0960 C.3    30  ARG30       0.0334
     63  CG         0.7530    5.1150   21.6180 C.3    30  ARG30       0.0492
     64  CD         1.0050    5.1880   20.1090 C.3    30  ARG30       0.2205
     65  NE         0.7210    6.5940   19.6660 N.pl3  30  ARG30      -0.0865
     66  CZ        -0.5240    7.0050   19.4220 C.cat  30  ARG30       0.5346
     67  NH1       -1.5890    6.2080   19.4550 N.pl3  30  ARG30       0.1354
     68  NH2       -0.7450    8.3270   19.2890 N.pl3  30  ARG30       0.1354
     69  N          1.1140   -4.8830   18.9040 N.3    34  ASP34      -0.1225
     70  CA        -0.0640   -5.0060   18.0480 C.3    34  ASP34       0.1805
     71  C          0.2490   -4.5320   16.6380 C.2    34  ASP34       0.2597
     72  O         -0.2350   -5.1030   15.6450 O.2    34  ASP34      -0.2718
     73  CB        -1.2300   -4.2000   18.6100 C.3    34  ASP34       0.1424
     74  CG        -2.3840   -4.1400   17.6510 C.2    34  ASP34       0.3668
     75  OD1       -2.9970   -5.1950   17.4230 O.co2  34  ASP34      -0.2456
     76  OD2       -2.6590   -3.0390   17.1330 O.co2  34  ASP34      -0.2456
     77  N          1.0820   -3.5030   16.5380 N.am   35  GLN35      -0.1979
     78  CA         1.4820   -3.0310   15.2280 C.3    35  GLN35       0.1601
     79  C          2.1570   -4.1470   14.4400 C.2    35  GLN35       0.2287
     80  O          1.8670   -4.3790   13.3240 O.2    35  GLN35      -0.2864
     81  CB         2.4180   -1.8520   15.3160 C.3    35  GLN35       0.0394
     82  CG         1.8260   -0.6250   15.9340 C.3    35  GLN35       0.0908
     83  CD         2.8660    0.4600   16.0740 C.2    35  GLN35       0.2608
     84  OE1        3.8470    0.4510   15.3520 O.2    35  GLN35      -0.2717
     85  NE2        2.6730    1.3510   17.0140 N.am   35  GLN35      -0.0878
     86  N          1.8690   -7.4210   14.8830 N.3    37  HIS37      -0.1226
     87  CA         0.8570   -8.4170   14.5710 C.3    37  HIS37       0.1752
     88  C          0.0200   -8.0120   13.3640 C.2    37  HIS37       0.2596
     89  O         -0.2330   -8.7970   12.4550 O.2    37  HIS37      -0.2718
     90  CB        -0.0130   -8.6080   15.8060 C.3    37  HIS37       0.0759
     91  CG        -1.1910   -9.4940   15.6050 C.ar   37  HIS37       0.0818
     92  ND1       -1.0730  -10.8460   15.3710 N.ar   37  HIS37      -0.2268
     93  CD2       -2.5170   -9.2310   15.6410 C.ar   37  HIS37       0.1154
     94  CE1       -2.2780  -11.3780   15.2610 C.ar   37  HIS37       0.1986
     95  NE2       -3.1720  -10.4210   15.4300 N.ar   37  HIS37      -0.2212
     96  N         -0.4210   -6.7650   13.3790 N.am   38  PHE38      -0.1962
     97  CA        -1.2010   -6.2150   12.2830 C.3    38  PHE38       0.1771
     98  C         -0.4650   -6.3350   10.9540 C.2    38  PHE38       0.2619
     99  O         -1.0490   -6.7650    9.9350 O.2    38  PHE38      -0.2715
    100  CB        -1.5330   -4.7440   12.5910 C.3    38  PHE38       0.0574
    101  CG        -2.2200   -4.0340   11.4600 C.ar   38  PHE38      -0.0200
    102  CD1       -3.5120   -4.3560   11.1160 C.ar   38  PHE38      -0.0042
    103  CD2       -1.5460   -3.0650   10.7160 C.ar   38  PHE38      -0.0042
    104  CE1       -4.1510   -3.7070   10.0620 C.ar   38  PHE38      -0.0003
    105  CE2       -2.1680   -2.4200    9.6420 C.ar   38  PHE38      -0.0003
    106  CZ        -3.4770   -2.7320    9.3250 C.ar   38  PHE38      -0.0000
    107  N          0.8270   -6.0020   10.9540 N.am   39  ARG39      -0.1977
    108  CA         1.6300   -6.1350    9.7400 C.3    39  ARG39       0.1597
    109  C          1.8210   -7.5700    9.3030 C.2    39  ARG39       0.2287
    110  O          1.8250   -7.8370    8.1040 O.2    39  ARG39      -0.2864
    111  CB         3.0150   -5.4940    9.9070 C.3    39  ARG39       0.0334
    112  CG         2.9640   -3.9800    9.9830 C.3    39  ARG39       0.0492
    113  CD         4.3750   -3.3790    9.9810 C.3    39  ARG39       0.2205
    114  NE         4.3800   -2.0790   10.6460 N.pl3  39  ARG39      -0.0865
    115  CZ         4.6560   -1.8790   11.9360 C.cat  39  ARG39       0.5346
    116  NH1        4.6160   -0.6420   12.4140 N.pl3  39  ARG39       0.1354
    117  NH2        5.0190   -2.8870   12.7430 N.pl3  39  ARG39       0.1354
    118  N        -10.4430    6.5200    8.7790 N.3    53  THR53      -0.1218
    119  CA        -9.2800    5.7320    9.1700 C.3    53  THR53       0.1862
    120  C         -8.0470    6.1470    8.3570 C.2    53  THR53       0.2287
    121  O         -6.9350    6.2280    8.8890 O.2    53  THR53      -0.2866
    122  CB        -9.5560    4.2190    9.0110 C.3    53  THR53       0.1770
    123  OG1      -10.5280    3.8170    9.9950 O.3    53  THR53      -0.2211
    124  CG2       -8.2660    3.3940    9.1880 C.3    53  THR53       0.0375
    125  N         -6.7850    9.0920    9.9540 N.3    56  SER56      -0.1202
    126  CA        -6.1960    8.7700   11.2550 C.3    56  SER56       0.2020
    127  C         -4.7840    8.2050   11.1500 C.2    56  SER56       0.2619
    128  O         -4.0730    8.1240   12.1510 O.2    56  SER56      -0.2717
    129  CB        -7.0840    7.7670   12.0270 C.3    56  SER56       0.2103
    130  OG        -6.9080    6.4120   11.5790 O.3    56  SER56      -0.2182
    131  N         -4.3660    7.7980    9.9610 N.am   57  LEU57      -0.1966
    132  CA        -3.0520    7.1420    9.8550 C.3    57  LEU57       0.1713
    133  C         -1.9310    8.1270   10.1470 C.2    57  LEU57       0.2458
    134  O         -1.9600    9.2660    9.6590 O.2    57  LEU57      -0.2730
    135  CB        -2.8530    6.5290    8.4700 C.3    57  LEU57       0.0310
    136  CG        -3.8200    5.4410    8.0180 C.3    57  LEU57       0.0022
    137  CD1       -3.5500    5.0680    6.5600 C.3    57  LEU57       0.0001
    138  CD2       -3.7500    4.2120    8.9370 C.3    57  LEU57       0.0001
    139  N         -0.9300    7.6930   10.9450 N.am   58  PRO58      -0.2727
    140  CA         0.2390    8.5540   11.1340 C.3    58  PRO58       0.1402
    141  C          0.8230    8.8710    9.7770 C.2    58  PRO58       0.2269
    142  O          0.8720    7.9800    8.9310 O.2    58  PRO58      -0.2865
    143  CB         1.1920    7.6920   11.9790 C.3    58  PRO58       0.0296
    144  CG         0.3110    6.6850   12.6530 C.3    58  PRO58       0.0237
    145  CD        -0.7770    6.3990   11.6350 C.3    58  PRO58       0.0939
    146  N          3.6650    9.0610    8.6630 N.3    60  LYS60      -0.1231
    147  CA         4.7890    8.1830    8.3200 C.3    60  LYS60       0.1693
    148  C          4.3450    6.8830    7.6490 C.2    60  LYS60       0.2591
    149  O          5.1290    6.2540    6.9550 O.2    60  LYS60      -0.2718
    150  CB         5.6210    7.8470    9.5710 C.3    60  LYS60       0.0285
    151  CG         4.8930    7.0450   10.6410 C.3    60  LYS60       0.0035
    152  CD         5.8870    6.7530   11.7400 C.3    60  LYS60       0.0206
    153  CE         5.2090    6.4460   13.0790 C.3    60  LYS60       0.1093
    154  NZ         4.3870    5.2570   13.0200 N.3    60  LYS60      -0.1314
    155  N          3.1000    6.4690    7.8600 N.am   61  VAL61      -0.1980
    156  CA         2.6100    5.2420    7.2350 C.3    61  VAL61       0.1595
    157  C          1.2930    5.4810    6.5110 C.2    61  VAL61       0.2287
    158  O          0.3600    4.6750    6.5690 O.2    61  VAL61      -0.2864
    159  CB         2.4640    4.0860    8.2710 C.3    61  VAL61       0.0276
    160  CG1        3.8460    3.6740    8.7660 C.3    61  VAL61       0.0022
    161  CG2        1.5710    4.4760    9.4270 C.3    61  VAL61       0.0022
    162  N         -0.2980    2.8350    4.0800 N.3    64  LEU64      -0.1231
    163  CA         0.3740    1.7640    4.7860 C.3    64  LEU64       0.1678
    164  C          1.2510    1.0280    3.7810 C.2    64  LEU64       0.2434
    165  O          0.7610    0.5330    2.7760 O.2    64  LEU64      -0.2733
    166  CB        -0.6430    0.8400    5.4460 C.3    64  LEU64       0.0284
    167  CG        -1.4230    1.5400    6.5480 C.3    64  LEU64       0.0019
    168  CD1       -2.6190    0.7070    6.9430 C.3    64  LEU64       0.0001
    169  CD2       -0.5100    1.8030    7.7570 C.3    64  LEU64       0.0001
    170  N          2.5640    0.9790    4.0430 N.am   65  PRO65      -0.2729
    171  CA         3.4930    0.4620    3.0300 C.3    65  PRO65       0.1401
    172  C          3.3620   -1.0540    2.8230 C.2    65  PRO65       0.2269
    173  O          2.9680   -1.7870    3.7350 O.2    65  PRO65      -0.2865
    174  CB         4.8730    0.8600    3.5880 C.3    65  PRO65       0.0296
    175  CG         4.6540    0.9550    5.1040 C.3    65  PRO65       0.0237
    176  CD         3.2420    1.4760    5.2550 C.3    65  PRO65       0.0939
    177  N          1.2330   -2.7370    1.0470 N.3    67  ARG67      -0.1245
    178  CA        -0.1420   -3.2270    0.9650 C.3    67  ARG67       0.1563
    179  C         -0.9140   -2.3710   -0.0270 C.2    67  ARG67       0.2260
    180  O         -0.6000   -1.1770   -0.1790 O.2    67  ARG67      -0.2867
    181  CB        -0.8020   -3.1820    2.3470 C.3    67  ARG67       0.0307
    182  CG        -0.3310   -4.3180    3.2750 C.3    67  ARG67       0.0489
    183  CD        -0.3980   -3.9290    4.7570 C.3    67  ARG67       0.2205
    184  NE         0.6730   -2.9840    5.0760 N.pl3  67  ARG67      -0.0865
    185  CZ         0.9280   -2.5220    6.2970 C.cat  67  ARG67       0.5346
    186  NH1        0.1850   -2.9180    7.3210 N.pl3  67  ARG67       0.1354
    187  NH2        1.9290   -1.6590    6.4950 N.pl3  67  ARG67       0.1354
    188  N         -9.5660   -2.9860    7.6300 N.3   101  ILE101     -0.1245
    189  CA        -8.7150   -2.5390    8.7400 C.3   101  ILE101      0.1561
    190  C         -9.2740   -1.3380    9.5130 C.2   101  ILE101      0.2260
    191  O         -8.5410   -0.6970   10.2660 O.2   101  ILE101     -0.2867
    192  CB        -7.3030   -2.1940    8.2290 C.3   101  ILE101      0.0252
    193  CG1       -7.3290   -0.9160    7.3650 C.3   101  ILE101      0.0019
    194  CG2       -6.6970   -3.3970    7.4740 C.3   101  ILE101      0.0019
    195  CD1       -5.9940   -0.1460    7.3660 C.3   101  ILE101      0.0001
    196  N        -16.1940   -1.5290    9.7170 N.3   107  TYR107     -0.1241
    197  CA       -16.2890   -2.8780   10.3080 C.3   107  TYR107      0.1605
    198  C        -17.7480   -3.3080   10.3700 C.2   107  TYR107      0.2264
    199  O        -18.1030   -4.4410   10.0410 O.2   107  TYR107     -0.2867
    200  CB       -15.7240   -2.9360   11.7250 C.3   107  TYR107      0.0534
    201  CG       -14.2300   -2.7880   11.8840 C.ar  107  TYR107     -0.0201
    202  CD1      -13.3410   -3.4900   11.0760 C.ar  107  TYR107     -0.0009
    203  CD2      -13.7140   -1.9500   12.8780 C.ar  107  TYR107     -0.0009
    204  CE1      -11.9560   -3.3670   11.2630 C.ar  107  TYR107      0.0417
    205  CE2      -12.3510   -1.8350   13.0770 C.ar  107  TYR107      0.0417
    206  CZ       -11.4800   -2.5400   12.2540 C.ar  107  TYR107      0.1957
    207  OH       -10.1320   -2.3940   12.4370 O.3   107  TYR107     -0.2866
    208  N         -7.0830   -8.0640   18.5400 N.3   120  THR120     -0.1218
    209  CA        -6.2070   -7.8170   19.6860 C.3   120  THR120      0.1862
    210  C         -7.0250   -7.1430   20.7650 C.2   120  THR120      0.2287
    211  O         -7.6040   -6.1040   20.5300 O.2   120  THR120     -0.2866
    212  CB        -5.0040   -6.9040   19.3180 C.3   120  THR120      0.1770
    213  OG1       -4.2900   -7.4810   18.2240 O.3   120  THR120     -0.2211
    214  CG2       -4.0290   -6.7520   20.5230 C.3   120  THR120      0.0375
@<TRIPOS>BOND
     1   180   179    2
     2   179   178    1
     3   178   177    1
     4   178   181    1
     5   181   182    1
     6   165   164    2
     7   172   171    1
     8   172   173    2
     9   171   174    1
    10   171   170    1
    11   182   183    1
    12   174   175    1
    13   164   170   am
    14   164   163    1
    15   170   176    1
    16   162   163    1
    17   183   184    1
    18   163   166    1
    19   184   185    2
    20   175   176    1
    21   166   167    1
    22   185   187    1
    23   185   186    1
    24   157   158    2
    25   157   156    1
    26   167   168    1
    27   167   169    1
    28   137   136    1
    29   149   148    2
    30   156   155    1
    31   156   159    1
    32   193   195    1
    33   193   192    1
    34   194   192    1
    35   188   189    1
    36   148   155   am
    37   148   147    1
    38   136   135    1
    39   136   138    1
    40   110   109    2
    41   192   189    1
    42   159   160    1
    43   159   161    1
    44   147   146    1
    45   147   150    1
    46   120   121    2
    47   120   119    1
    48   135   132    1
    49   189   190    1
    50   118   119    1
    51   142   141    2
    52   122   119    1
    53   122   124    1
    54   122   123    1
    55   109   108    1
    56   106   105   ar
    57   106   104   ar
    58   190   191    2
    59   150   151    1
    60   105   103   ar
    61   134   133    2
    62   196   197    1
    63   108   111    1
    64   108   107    1
    65   141   140    1
    66   132   131    1
    67   132   133    1
    68   111   112    1
    69    99    98    2
    70   125   126    1
    71   131   127   am
    72   113   112    1
    73   113   114    1
    74   199   198    2
    75   104   102   ar
    76   133   139   am
    77     7     5    1
    78   197   198    1
    79   197   200    1
    80   151   152    1
    81   114   115    2
    82   103   101   ar
    83     1     2    1
    84   139   140    1
    85   139   145    1
    86   107    98   am
    87    98    97    1
    88   202   204   ar
    89   202   201   ar
    90   102   101   ar
    91   140   143    1
    92   127   126    1
    93   127   128    2
    94     5     2    1
    95     5     6    1
    96   126   129    1
    97   204   206   ar
    98   101   100    1
    99   130   129    1
   100   145   144    1
   101   200   201    1
   102   152   153    1
   103     8     6    1
   104     2     3    1
   105   201   203   ar
   106   115   116    1
   107   115   117    1
   108   143   144    1
   109     4     3    2
   110   206   207    1
   111   206   205   ar
   112    97   100    1
   113    97    96    1
   114    89    88    2
   115     3     9   am
   116   203   205   ar
   117   154   153    1
   118    80    79    2
   119    88    96   am
   120    88    87    1
   121     9    10    1
   122    19    21   ar
   123    19    16   ar
   124    21    22   ar
   125    79    78    1
   126    87    86    1
   127    87    90    1
   128    10    13    1
   129    10    11    1
   130    13    14    1
   131    78    81    1
   132    78    77    1
   133    94    92   ar
   134    94    95   ar
   135    81    82    1
   136    84    83    2
   137    92    91   ar
   138    95    93   ar
   139    16    14   ar
   140    16    18   ar
   141    22    20   ar
   142    91    93   ar
   143    91    90    1
   144    72    71    2
   145    82    83    1
   146    14    15   ar
   147    43    41    1
   148    83    85   am
   149    11    12    2
   150    11    23   am
   151    77    71   am
   152    28    29    1
   153    71    70    1
   154    41    40    1
   155    18    20   ar
   156    18    17   ar
   157    29    30    1
   158    29    32    1
   159    23    24    1
   160    34    33   ar
   161    76    74   ar
   162    15    17   ar
   163    75    74   ar
   164    30    36   am
   165    30    31    2
   166    32    33    1
   167    74    73    1
   168    33    35   ar
   169    36    37    1
   170    70    73    1
   171    70    69    1
   172    40    37    1
   173    40    42    1
   174   213   212    1
   175    24    27    1
   176    24    25    1
   177   208   209    1
   178    37    38    1
   179    26    25    2
   180    68    66    1
   181   212   209    1
   182   212   214    1
   183    66    67    1
   184    66    65    2
   185    65    64    1
   186   209   210    1
   187    38    39    2
   188    64    63    1
   189   211   210    2
   190    55    57   ar
   191    55    53   ar
   192    47    46    2
   193    52    53   ar
   194    52    50   ar
   195    57    56   ar
   196    53    51   ar
   197    63    62    1
   198    59    62    1
   199    59    60    1
   200    59    58    1
   201    50    49   ar
   202    60    61    2
   203    46    58   am
   204    46    45    1
   205    56    54   ar
   206    51    49   ar
   207    51    54   ar
   208    44    45    1
   209    49    48    1
   210    45    48    1
