@<TRIPOS>MOLECULE
tmp/5u27A01.pdb
 171 165 0 0 0
SMALL
GASTEIGER

@<TRIPOS>ATOM
      1  N        -10.0580   -6.9350   11.0700 N.3    12  ILE12      -0.1231
      2  CA        -9.0240   -6.9350   12.0970 C.3    12  ILE12       0.1692
      3  C         -9.0640   -5.6280   12.8800 C.2    12  ILE12       0.2592
      4  O         -9.1000   -4.5410   12.2960 O.2    12  ILE12      -0.2718
      5  CB        -7.6100   -7.1690   11.4980 C.3    12  ILE12       0.0266
      6  CG1       -6.5530   -7.2150   12.6110 C.3    12  ILE12       0.0019
      7  CG2       -7.2670   -6.1230   10.4380 C.3    12  ILE12       0.0020
      8  CD1       -5.1680   -7.5910   12.1170 C.3    12  ILE12       0.0001
      9  N         -9.0980   -5.7440   14.2070 N.am   13  TRP13      -0.1962
     10  CA        -9.1510   -4.5710   15.0710 C.3    13  TRP13       0.1771
     11  C         -8.5790   -4.8440   16.4560 C.2    13  TRP13       0.2619
     12  O         -8.4260   -5.9950   16.8760 O.2    13  TRP13      -0.2715
     13  CB       -10.5920   -4.0540   15.1990 C.3    13  TRP13       0.0590
     14  CG       -11.5200   -4.8760   16.0820 C.ar   13  TRP13       0.0006
     15  CD1      -11.6290   -4.8140   17.4480 C.ar   13  TRP13       0.0946
     16  CD2      -12.4850   -5.8440   15.6510 C.ar   13  TRP13       0.0152
     17  NE1      -12.5880   -5.6980   17.8890 N.ar   13  TRP13      -0.2442
     18  CE2      -13.1300   -6.3390   16.8070 C.ar   13  TRP13       0.0810
     19  CE3      -12.8700   -6.3400   14.3990 C.ar   13  TRP13       0.0012
     20  CZ2      -14.1360   -7.3050   16.7480 C.ar   13  TRP13       0.0191
     21  CZ3      -13.8610   -7.3050   14.3410 C.ar   13  TRP13       0.0001
     22  CH2      -14.4850   -7.7800   15.5120 C.ar   13  TRP13       0.0015
     23  N         -8.2530   -3.7600   17.1500 N.am   14  ALA14      -0.1977
     24  CA        -7.8860   -3.8040   18.5550 C.3    14  ALA14       0.1597
     25  C         -8.9450   -3.0540   19.3550 C.2    14  ALA14       0.2287
     26  O         -9.3680   -1.9600   18.9680 O.2    14  ALA14      -0.2864
     27  CB        -6.5160   -3.1910   18.7690 C.3    14  ALA14       0.0319
     28  N         -8.5660    8.9310   16.9020 N.3    26  ASP26      -0.1225
     29  CA        -7.3480    8.2130   17.2500 C.3    26  ASP26       0.1805
     30  C         -7.6870    6.8970   17.9500 C.2    26  ASP26       0.2597
     31  O         -8.8520    6.5890   18.1870 O.2    26  ASP26      -0.2718
     32  CB        -6.4540    9.0880   18.1420 C.3    26  ASP26       0.1424
     33  CG        -4.9940    8.6510   18.1390 C.2    26  ASP26       0.3668
     34  OD1       -4.6270    7.7420   17.3700 O.co2  26  ASP26      -0.2456
     35  OD2       -4.2040    9.2300   18.9080 O.co2  26  ASP26      -0.2456
     36  N         -6.6610    6.1150   18.2550 N.am   27  ILE27      -0.1980
     37  CA        -6.8060    4.9610   19.1270 C.3    27  ILE27       0.1595
     38  C         -6.2700    5.3610   20.5000 C.2    27  ILE27       0.2287
     39  O         -5.1090    5.7560   20.6150 O.2    27  ILE27      -0.2864
     40  CB        -6.0510    3.7360   18.5740 C.3    27  ILE27       0.0276
     41  CG1       -6.6130    3.3480   17.2010 C.3    27  ILE27       0.0022
     42  CG2       -6.1320    2.5760   19.5450 C.3    27  ILE27       0.0022
     43  CD1       -5.8330    2.2540   16.5060 C.3    27  ILE27       0.0001
     44  N         -1.5130    3.0040   23.0820 N.3    30  ARG30      -0.1245
     45  CA        -0.4420    2.6010   22.1830 C.3    30  ARG30       0.1563
     46  C          0.0300    1.2190   22.5900 C.2    30  ARG30       0.2260
     47  O          0.2750    0.9520   23.7710 O.2    30  ARG30      -0.2867
     48  CB         0.7200    3.6000   22.2080 C.3    30  ARG30       0.0307
     49  CG         0.4110    4.9220   21.5200 C.3    30  ARG30       0.0489
     50  CD         0.0630    4.7040   20.0560 C.3    30  ARG30       0.2205
     51  NE        -0.2250    5.9570   19.3630 N.pl3  30  ARG30      -0.0865
     52  CZ        -1.4490    6.4370   19.1630 C.cat  30  ARG30       0.5346
     53  NH1       -2.5120    5.7670   19.5960 N.pl3  30  ARG30       0.1354
     54  NH2       -1.6120    7.5820   18.5180 N.pl3  30  ARG30       0.1354
     55  N          0.6650   -4.9180   19.3230 N.3    34  ASP34      -0.1225
     56  CA        -0.5170   -5.0440   18.4710 C.3    34  ASP34       0.1805
     57  C         -0.2440   -4.5630   17.0560 C.2    34  ASP34       0.2597
     58  O         -0.7480   -5.1320   16.0870 O.2    34  ASP34      -0.2718
     59  CB        -1.6940   -4.2610   19.0390 C.3    34  ASP34       0.1424
     60  CG        -2.8300   -4.1410   18.0480 C.2    34  ASP34       0.3668
     61  OD1       -3.4720   -5.1730   17.7510 O.co2  34  ASP34      -0.2456
     62  OD2       -3.0750   -3.0170   17.5570 O.co2  34  ASP34      -0.2456
     63  N          0.5440   -3.5000   16.9420 N.am   35  GLN35      -0.1979
     64  CA         0.8910   -2.9770   15.6340 C.3    35  GLN35       0.1601
     65  C          1.6560   -4.0390   14.8480 C.2    35  GLN35       0.2287
     66  O          1.4140   -4.2350   13.6520 O.2    35  GLN35      -0.2864
     67  CB         1.7080   -1.6900   15.7520 C.3    35  GLN35       0.0394
     68  CG         1.8630   -0.9770   14.4220 C.3    35  GLN35       0.0908
     69  CD         2.5270    0.3820   14.5420 C.2    35  GLN35       0.2608
     70  OE1        2.8200    1.0290   13.5340 O.2    35  GLN35      -0.2717
     71  NE2        2.7600    0.8250   15.7670 N.am   35  GLN35      -0.0878
     72  N          1.4540   -7.3310   15.3360 N.3    37  HIS37      -0.1226
     73  CA         0.4800   -8.3770   15.0540 C.3    37  HIS37       0.1752
     74  C         -0.3760   -8.0160   13.8330 C.2    37  HIS37       0.2596
     75  O         -0.5760   -8.8370   12.9370 O.2    37  HIS37      -0.2718
     76  CB        -0.3950   -8.6010   16.2910 C.3    37  HIS37       0.0759
     77  CG        -1.5380   -9.5420   16.0710 C.ar   37  HIS37       0.0818
     78  ND1       -1.3590  -10.8830   15.8110 N.ar   37  HIS37      -0.2268
     79  CD2       -2.8750   -9.3360   16.0880 C.ar   37  HIS37       0.1154
     80  CE1       -2.5390  -11.4620   15.6700 C.ar   37  HIS37       0.1986
     81  NE2       -3.4750  -10.5450   15.8330 N.ar   37  HIS37      -0.2212
     82  N         -0.8650   -6.7780   13.8160 N.am   38  PHE38      -0.1976
     83  CA        -1.6550   -6.2450   12.7110 C.3    38  PHE38       0.1639
     84  C         -0.8560   -6.2940   11.4130 C.2    38  PHE38       0.2290
     85  O         -1.3670   -6.6860   10.3610 O.2    38  PHE38      -0.2864
     86  CB        -2.1060   -4.8100   13.0280 C.3    38  PHE38       0.0560
     87  CG        -2.5870   -4.0390   11.8250 C.ar   38  PHE38      -0.0200
     88  CD1       -3.8750   -4.2170   11.3380 C.ar   38  PHE38      -0.0042
     89  CD2       -1.7520   -3.1310   11.1890 C.ar   38  PHE38      -0.0042
     90  CE1       -4.3190   -3.5080   10.2270 C.ar   38  PHE38      -0.0003
     91  CE2       -2.1880   -2.4180   10.0780 C.ar   38  PHE38      -0.0003
     92  CZ        -3.4740   -2.6050    9.5980 C.ar   38  PHE38      -0.0000
     93  N        -10.3920    6.4480    8.9420 N.3    53  THR53      -0.1218
     94  CA        -9.2700    5.6190    9.3930 C.3    53  THR53       0.1862
     95  C         -7.9880    5.9750    8.6320 C.2    53  THR53       0.2287
     96  O         -6.8930    5.9610    9.1950 O.2    53  THR53      -0.2866
     97  CB        -9.5880    4.1230    9.2330 C.3    53  THR53       0.1770
     98  OG1      -10.5930    3.7640   10.1900 O.3    53  THR53      -0.2211
     99  CG2       -8.3420    3.2620    9.4790 C.3    53  THR53       0.0375
    100  N         -6.5890    8.8130   10.2510 N.3    56  SER56      -0.1202
    101  CA        -6.0450    8.4880   11.5680 C.3    56  SER56       0.2020
    102  C         -4.6580    7.8490   11.5150 C.2    56  SER56       0.2619
    103  O         -3.9930    7.7220   12.5480 O.2    56  SER56      -0.2717
    104  CB        -6.9990    7.5590   12.3180 C.3    56  SER56       0.2103
    105  OG        -6.8940    6.2210   11.8390 O.3    56  SER56      -0.2182
    106  N         -4.2190    7.4460   10.3250 N.am   57  LEU57      -0.1966
    107  CA        -2.9160    6.7930   10.1770 C.3    57  LEU57       0.1713
    108  C         -1.7680    7.7500   10.4660 C.2    57  LEU57       0.2458
    109  O         -1.7360    8.8600    9.9350 O.2    57  LEU57      -0.2730
    110  CB        -2.7510    6.2200    8.7680 C.3    57  LEU57       0.0310
    111  CG        -3.5690    4.9840    8.3870 C.3    57  LEU57       0.0022
    112  CD1       -3.3910    4.6530    6.9030 C.3    57  LEU57       0.0001
    113  CD2       -3.1770    3.7980    9.2610 C.3    57  LEU57       0.0001
    114  N         -0.8200    7.3270   11.3170 N.am   58  PRO58      -0.2727
    115  CA         0.3960    8.1300   11.4730 C.3    58  PRO58       0.1402
    116  C          1.0590    8.3290   10.1190 C.2    58  PRO58       0.2269
    117  O          1.1350    7.3810    9.3300 O.2    58  PRO58      -0.2865
    118  CB         1.2670    7.2840   12.4040 C.3    58  PRO58       0.0296
    119  CG         0.2870    6.4480   13.1740 C.3    58  PRO58       0.0237
    120  CD        -0.8390    6.1600   12.2170 C.3    58  PRO58       0.0939
    121  N          3.9640    8.4210    9.0790 N.3    60  LYS60      -0.1231
    122  CA         5.0820    7.5420    8.7480 C.3    60  LYS60       0.1693
    123  C          4.6180    6.2020    8.1860 C.2    60  LYS60       0.2591
    124  O          5.4030    5.4770    7.5800 O.2    60  LYS60      -0.2718
    125  CB         5.9700    7.3160    9.9760 C.3    60  LYS60       0.0285
    126  CG         5.3060    6.5850   11.1350 C.3    60  LYS60       0.0035
    127  CD         6.3520    6.3930   12.2060 C.3    60  LYS60       0.0206
    128  CE         5.7390    6.1770   13.5940 C.3    60  LYS60       0.1093
    129  NZ         4.9390    4.9730   13.6600 N.3    60  LYS60      -0.1314
    130  N          3.3440    5.8730    8.3880 N.am   61  VAL61      -0.1980
    131  CA         2.7870    4.6300    7.8640 C.3    61  VAL61       0.1595
    132  C          1.5060    4.8940    7.0670 C.2    61  VAL61       0.2287
    133  O          0.5900    4.0740    7.0480 O.2    61  VAL61      -0.2864
    134  CB         2.5070    3.6080    9.0000 C.3    61  VAL61       0.0276
    135  CG1        3.8120    3.2000    9.6780 C.3    61  VAL61       0.0022
    136  CG2        1.5390    4.1750   10.0260 C.3    61  VAL61       0.0022
    137  N          0.0210    2.3920    4.4840 N.3    64  LEU64      -0.1245
    138  CA         0.6610    1.2540    5.1320 C.3    64  LEU64       0.1561
    139  C          1.4920    0.4930    4.1030 C.2    64  LEU64       0.2260
    140  O          0.9610    0.0070    3.1070 O.2    64  LEU64      -0.2867
    141  CB        -0.3880    0.3480    5.7860 C.3    64  LEU64       0.0270
    142  CG        -1.0700    1.0230    6.9780 C.3    64  LEU64       0.0019
    143  CD1       -2.3830    0.3500    7.3610 C.3    64  LEU64       0.0001
    144  CD2       -0.1110    1.0360    8.1590 C.3    64  LEU64       0.0001
    145  N         -9.6740   -2.8890    7.8090 N.3   101  ILE101     -0.1245
    146  CA        -8.8850   -2.4720    8.9670 C.3   101  ILE101      0.1561
    147  C         -9.4760   -1.2980    9.7540 C.2   101  ILE101      0.2260
    148  O         -8.7830   -0.6970   10.5730 O.2   101  ILE101     -0.2867
    149  CB        -7.4460   -2.1030    8.5410 C.3   101  ILE101      0.0252
    150  CG1       -7.4450   -0.8420    7.6720 C.3   101  ILE101      0.0019
    151  CG2       -6.8140   -3.2720    7.7850 C.3   101  ILE101      0.0019
    152  CD1       -6.0690   -0.2890    7.3890 C.3   101  ILE101      0.0001
    153  N        -16.3090   -1.4910    9.5080 N.3   107  TYR107     -0.1241
    154  CA       -16.4710   -2.8130   10.1210 C.3   107  TYR107      0.1605
    155  C        -17.9210   -3.2690    9.9770 C.2   107  TYR107      0.2264
    156  O        -18.1820   -4.3800    9.5180 O.2   107  TYR107     -0.2867
    157  CB       -16.0750   -2.8130   11.6070 C.3   107  TYR107      0.0534
    158  CG       -14.5930   -2.6990   11.8790 C.ar  107  TYR107     -0.0201
    159  CD1      -13.6720   -3.4280   11.1430 C.ar  107  TYR107     -0.0009
    160  CD2      -14.1150   -1.8490   12.8710 C.ar  107  TYR107     -0.0009
    161  CE1      -12.3100   -3.3220   11.3890 C.ar  107  TYR107      0.0417
    162  CE2      -12.7600   -1.7330   13.1240 C.ar  107  TYR107      0.0417
    163  CZ       -11.8640   -2.4730   12.3810 C.ar  107  TYR107      0.1957
    164  OH       -10.5170   -2.3510   12.6260 O.3   107  TYR107     -0.2866
    165  N         -7.5240   -8.0250   18.7640 N.3   120  THR120     -0.1218
    166  CA        -6.6780   -7.8040   19.9270 C.3   120  THR120      0.1862
    167  C         -7.5300   -7.1850   21.0250 C.2   120  THR120      0.2287
    168  O         -8.1530   -6.1420   20.8180 O.2   120  THR120     -0.2866
    169  CB        -5.4900   -6.8730   19.6220 C.3   120  THR120      0.1770
    170  OG1       -4.7650   -7.3660   18.4910 O.3   120  THR120     -0.2211
    171  CG2       -4.5520   -6.7900   20.8300 C.3   120  THR120      0.0375
@<TRIPOS>BOND
     1   140   139    2
     2   139   138    1
     3   137   138    1
     4   138   141    1
     5   141   142    1
     6   112   111    1
     7   142   143    1
     8   142   144    1
     9   133   132    2
    10   132   131    1
    11   152   150    1
    12   124   123    2
    13   150   149    1
    14   151   149    1
    15   145   146    1
    16   131   130    1
    17   131   134    1
    18   123   130   am
    19   123   122    1
    20   111   110    1
    21   111   113    1
    22   149   146    1
    23    95    96    2
    24    95    94    1
    25   122   121    1
    26   122   125    1
    27   110   107    1
    28    93    94    1
    29   146   147    1
    30   134   135    1
    31   134   136    1
    32    97    94    1
    33    97    99    1
    34    97    98    1
    35   117   116    2
    36   153   154    1
    37   156   155    2
    38    92    91   ar
    39    92    90   ar
    40   147   148    2
    41   109   108    2
    42   125   126    1
    43   155   154    1
    44    91    89   ar
    45   116   115    1
    46   154   157    1
    47   107   106    1
    48   107   108    1
    49    90    88   ar
    50   100   101    1
    51   106   102   am
    52    85    84    2
    53     7     5    1
    54   108   114   am
    55     1     2    1
    56   126   127    1
    57   159   161   ar
    58   159   158   ar
    59    89    87   ar
    60   114   115    1
    61   114   120    1
    62    88    87   ar
    63   161   163   ar
    64    84    83    1
    65   115   118    1
    66     5     2    1
    67     5     6    1
    68   102   101    1
    69   102   103    2
    70   101   104    1
    71   157   158    1
    72    87    86    1
    73   105   104    1
    74   158   160   ar
    75     2     3    1
    76     8     6    1
    77   127   128    1
    78   120   119    1
    79     4     3    2
    80   163   164    1
    81   163   162   ar
    82   118   119    1
    83    83    86    1
    84    83    82    1
    85   160   162   ar
    86     3     9   am
    87    75    74    2
    88    70    69    2
    89   128   129    1
    90    66    65    2
    91    82    74   am
    92    74    73    1
    93     9    10    1
    94    21    19   ar
    95    21    22   ar
    96    19    16   ar
    97    68    69    1
    98    68    67    1
    99    69    71   am
   100    65    64    1
   101    73    72    1
   102    73    76    1
   103    10    13    1
   104    10    11    1
   105    13    14    1
   106    22    20   ar
   107    64    67    1
   108    64    63    1
   109    16    14   ar
   110    16    18   ar
   111    80    78   ar
   112    80    81   ar
   113    78    77   ar
   114    81    79   ar
   115    77    79   ar
   116    77    76    1
   117    14    15   ar
   118    58    57    2
   119    11    12    2
   120    11    23   am
   121    43    41    1
   122    20    18   ar
   123    18    17   ar
   124    28    29    1
   125    63    57   am
   126    57    56    1
   127    23    24    1
   128    41    40    1
   129    29    30    1
   130    29    32    1
   131    34    33   ar
   132    15    17   ar
   133    62    60   ar
   134    61    60   ar
   135    30    31    2
   136    30    36   am
   137    60    59    1
   138    33    32    1
   139    33    35   ar
   140    36    37    1
   141    56    59    1
   142    56    55    1
   143   170   169    1
   144    54    52    1
   145    24    27    1
   146    24    25    1
   147    40    37    1
   148    40    42    1
   149   165   166    1
   150    26    25    2
   151    37    38    1
   152    52    51    2
   153    52    53    1
   154    51    50    1
   155   169   166    1
   156   169   171    1
   157   166   167    1
   158    50    49    1
   159    38    39    2
   160   168   167    2
   161    49    48    1
   162    45    48    1
   163    45    46    1
   164    45    44    1
   165    46    47    2
