@<TRIPOS>MOLECULE
tmp/5u28A00.pdb
 133 132 0 0 0
SMALL
GASTEIGER

@<TRIPOS>ATOM
      1  N         -9.1190   -0.5730   -1.8540 N.3    39  TRP39      -0.1228
      2  CA        -9.4810   -1.6520   -0.9220 C.3    39  TRP39       0.1722
      3  C        -10.8270   -1.4810   -0.1720 C.2    39  TRP39       0.2437
      4  O        -11.5200   -2.4790    0.0430 O.2    39  TRP39      -0.2733
      5  CB        -8.3350   -1.8870    0.0930 C.3    39  TRP39       0.0563
      6  CG        -7.8790   -0.6560    0.8020 C.ar   39  TRP39       0.0003
      7  CD1       -7.0690    0.3110    0.3020 C.ar   39  TRP39       0.0946
      8  CD2       -8.2260   -0.2420    2.1330 C.ar   39  TRP39       0.0152
      9  NE1       -6.8910    1.3090    1.2320 N.ar   39  TRP39      -0.2442
     10  CE2       -7.5860    0.9890    2.3650 C.ar   39  TRP39       0.0810
     11  CE3       -9.0070   -0.7950    3.1500 C.ar   39  TRP39       0.0012
     12  CZ2       -7.7090    1.6820    3.5670 C.ar   39  TRP39       0.0191
     13  CZ3       -9.1210   -0.1060    4.3490 C.ar   39  TRP39       0.0001
     14  CH2       -8.4830    1.1180    4.5410 C.ar   39  TRP39       0.0015
     15  N        -11.2190   -0.2520    0.2310 N.am   40  PRO40      -0.2718
     16  CA       -12.5240   -0.1840    0.9020 C.3    40  PRO40       0.1535
     17  C        -13.7060   -0.4750   -0.0220 C.2    40  PRO40       0.2598
     18  O        -14.8070   -0.7440    0.4480 O.2    40  PRO40      -0.2715
     19  CB       -12.5900    1.2780    1.4030 C.3    40  PRO40       0.0310
     20  CG       -11.1580    1.7450    1.4130 C.3    40  PRO40       0.0237
     21  CD       -10.5780    1.0770    0.1970 C.3    40  PRO40       0.0939
     22  N        -13.4760   -0.4390   -1.3280 N.am   41  PHE41      -0.1974
     23  CA       -14.5870   -0.4390   -2.2660 C.3    41  PHE41       0.1639
     24  C        -14.5960   -1.6680   -3.1720 C.2    41  PHE41       0.2290
     25  O        -15.3840   -1.7380   -4.1070 O.2    41  PHE41      -0.2864
     26  CB       -14.5400    0.8480   -3.1020 C.3    41  PHE41       0.0560
     27  CG       -14.5550    2.1050   -2.2510 C.ar   41  PHE41      -0.0200
     28  CD1      -15.7350    2.5400   -1.6620 C.ar   41  PHE41      -0.0042
     29  CD2      -13.3860    2.8230   -2.0260 C.ar   41  PHE41      -0.0042
     30  CE1      -15.7540    3.6840   -0.8620 C.ar   41  PHE41      -0.0003
     31  CE2      -13.4010    3.9680   -1.2330 C.ar   41  PHE41      -0.0003
     32  CZ       -14.5860    4.3920   -0.6420 C.ar   41  PHE41      -0.0000
     33  N        -15.4130   -4.7200   -2.3520 N.3    43  GLN43      -0.1231
     34  CA       -16.4360   -5.6830   -1.9560 C.3    43  GLN43       0.1683
     35  C        -17.5640   -4.9440   -1.2440 C.2    43  GLN43       0.2434
     36  O        -17.3820   -3.7910   -0.8360 O.2    43  GLN43      -0.2733
     37  CB       -15.8320   -6.7590   -1.0430 C.3    43  GLN43       0.0380
     38  CG       -15.3000   -6.2200    0.2750 C.3    43  GLN43       0.0905
     39  CD       -14.0170   -5.4210    0.1020 C.2    43  GLN43       0.2608
     40  OE1      -13.0610   -5.9020   -0.4920 O.2    43  GLN43      -0.2717
     41  NE2      -14.0080   -4.1850    0.5910 N.am   43  GLN43      -0.0878
     42  N        -18.7300   -5.5940   -1.0870 N.am   44  PRO44      -0.2718
     43  CA       -19.8130   -4.9140   -0.3710 C.3    44  PRO44       0.1535
     44  C        -19.4240   -4.4820    1.0310 C.2    44  PRO44       0.2598
     45  O        -18.6200   -5.1600    1.6940 O.2    44  PRO44      -0.2715
     46  CB       -20.9110   -5.9790   -0.3070 C.3    44  PRO44       0.0310
     47  CG       -20.6830   -6.8200   -1.5270 C.3    44  PRO44       0.0237
     48  CD       -19.1860   -6.8490   -1.7180 C.3    44  PRO44       0.0939
     49  N        -19.9750   -3.3560    1.4660 N.am   45  VAL45      -0.1978
     50  CA       -19.8630   -2.9330    2.8580 C.3    45  VAL45       0.1596
     51  C        -20.4180   -4.0200    3.7800 C.2    45  VAL45       0.2287
     52  O        -21.5450   -4.4920    3.5980 O.2    45  VAL45      -0.2864
     53  CB       -20.6140   -1.6010    3.1110 C.3    45  VAL45       0.0276
     54  CG1      -20.8690   -1.3880    4.6030 C.3    45  VAL45       0.0022
     55  CG2      -19.8300   -0.4330    2.5410 C.3    45  VAL45       0.0022
     56  N        -17.7200   -3.4470   10.2210 N.3    50  LEU50      -0.1231
     57  CA       -17.2440   -2.0670   10.2110 C.3    50  LEU50       0.1693
     58  C        -17.9080   -1.1890   11.2600 C.2    50  LEU50       0.2592
     59  O        -17.5310   -0.0270   11.4290 O.2    50  LEU50      -0.2718
     60  CB       -17.4530   -1.4470    8.8280 C.3    50  LEU50       0.0284
     61  CG       -16.6660   -2.0770    7.6760 C.3    50  LEU50       0.0019
     62  CD1      -17.0890   -1.4600    6.3470 C.3    50  LEU50       0.0001
     63  CD2      -15.1390   -1.9610    7.8650 C.3    50  LEU50       0.0001
     64  N        -18.8990   -1.7460   11.9510 N.am   51  ASN51      -0.1960
     65  CA       -19.6600   -1.0170   12.9650 C.3    51  ASN51       0.1819
     66  C        -20.3030    0.2580   12.4330 C.2    51  ASN51       0.2621
     67  O        -20.0320    1.3620   12.9120 O.2    51  ASN51      -0.2715
     68  CB       -18.7710   -0.6860   14.1650 C.3    51  ASN51       0.1195
     69  CG       -18.7570   -1.7890   15.1880 C.2    51  ASN51       0.2630
     70  OD1      -19.3960   -1.6870   16.2360 O.2    51  ASN51      -0.2716
     71  ND2      -18.0420   -2.8670   14.8840 N.am   51  ASN51      -0.0877
     72  N        -21.1590    0.0950   11.4300 N.am   52  LEU52      -0.1977
     73  CA       -21.8520    1.2180   10.8390 C.3    52  LEU52       0.1596
     74  C        -23.3310    1.1220   11.1840 C.2    52  LEU52       0.2287
     75  O        -24.1060    0.4900   10.4520 O.2    52  LEU52      -0.2864
     76  CB       -21.6550    1.2360    9.3160 C.3    52  LEU52       0.0297
     77  CG       -20.2080    1.1000    8.8390 C.3    52  LEU52       0.0022
     78  CD1      -20.1400    1.0380    7.3110 C.3    52  LEU52       0.0001
     79  CD2      -19.3500    2.2400    9.3610 C.3    52  LEU52       0.0001
     80  N        -26.6870    1.5350    8.7020 N.3    55  TYR55      -0.1241
     81  CA       -26.1910    1.6820    7.3230 C.3    55  TYR55       0.1605
     82  C        -27.2480    1.3510    6.2660 C.2    55  TYR55       0.2264
     83  O        -27.4450    2.1140    5.3090 O.2    55  TYR55      -0.2867
     84  CB       -24.9400    0.8140    7.0930 C.3    55  TYR55       0.0534
     85  CG       -24.3000    1.1020    5.7440 C.ar   55  TYR55      -0.0201
     86  CD1      -23.4380    2.1690    5.5860 C.ar   55  TYR55      -0.0009
     87  CD2      -24.5970    0.3320    4.6290 C.ar   55  TYR55      -0.0009
     88  CE1      -22.8710    2.4570    4.3600 C.ar   55  TYR55       0.0417
     89  CE2      -24.0320    0.6140    3.3960 C.ar   55  TYR55       0.0417
     90  CZ       -23.1720    1.6810    3.2700 C.ar   55  TYR55       0.1957
     91  OH       -22.5980    1.9900    2.0510 O.3    55  TYR55      -0.2866
     92  N        -21.1430    6.8130    0.1860 N.3    94  CYS94      -0.1235
     93  CA       -20.1170    7.1640    1.1570 C.3    94  CYS94       0.1677
     94  C        -20.3240    8.5990    1.6750 C.2    94  CYS94       0.2270
     95  O        -20.2090    8.8550    2.8850 O.2    94  CYS94      -0.2867
     96  CB       -18.7240    7.0000    0.5330 C.3    94  CYS94       0.0956
     97  SG       -17.3640    7.1710    1.7100 S.3    94  CYS94      -0.0801
     98  N        -23.5380    8.6920    4.0090 N.3    97  TYR97      -0.1227
     99  CA       -23.4950    8.0280    5.3120 C.3    97  TYR97       0.1736
    100  C        -22.5230    8.7060    6.2800 C.2    97  TYR97       0.2595
    101  O        -22.7640    8.7640    7.4880 O.2    97  TYR97      -0.2718
    102  CB       -23.1260    6.5420    5.1730 C.3    97  TYR97       0.0548
    103  CG       -23.1570    5.8450    6.5140 C.ar   97  TYR97      -0.0200
    104  CD1      -24.3610    5.4430    7.0710 C.ar   97  TYR97      -0.0009
    105  CD2      -21.9970    5.6400    7.2470 C.ar   97  TYR97      -0.0009
    106  CE1      -24.4100    4.8350    8.3080 C.ar   97  TYR97       0.0417
    107  CE2      -22.0410    5.0340    8.5010 C.ar   97  TYR97       0.0417
    108  CZ       -23.2490    4.6320    9.0140 C.ar   97  TYR97       0.1957
    109  OH       -23.3160    4.0330   10.2530 O.3    97  TYR97      -0.2866
    110  N        -21.4260    9.2320    5.7540 N.am   98  ASN98      -0.1974
    111  CA       -20.4070    9.7950    6.6120 C.3    98  ASN98       0.1688
    112  C        -20.4620   11.3220    6.6170 C.2    98  ASN98       0.2292
    113  O        -21.3990   11.9120    6.0850 O.2    98  ASN98      -0.2864
    114  CB       -19.0400    9.2840    6.1690 C.3    98  ASN98       0.1181
    115  CG       -18.9770    7.7530    6.1340 C.2    98  ASN98       0.2629
    116  OD1      -18.7380    7.1070    7.1580 O.2    98  ASN98      -0.2716
    117  ND2      -19.1780    7.1690    4.9500 N.am   98  ASN98      -0.0877
    118  N        -12.7190    8.1860    5.2760 N.3   104  ILE104     -0.1245
    119  CA       -13.2990    7.3520    4.2250 C.3   104  ILE104      0.1561
    120  C        -13.8610    8.2230    3.1060 C.2   104  ILE104      0.2260
    121  O        -13.8000    7.8480    1.9350 O.2   104  ILE104     -0.2867
    122  CB       -14.3870    6.4140    4.7840 C.3   104  ILE104      0.0252
    123  CG1      -14.8470    5.4210    3.7160 C.3   104  ILE104      0.0019
    124  CG2      -15.5500    7.2140    5.4000 C.3   104  ILE104      0.0019
    125  CD1      -13.7500    4.4650    3.2530 C.3   104  ILE104      0.0001
    126  N        -10.9820    9.3420    0.9440 N.3   107  MET107     -0.1245
    127  CA       -10.5090    8.2610    0.0890 C.3   107  MET107      0.1570
    128  C        -11.4550    8.0770   -1.0970 C.2   107  MET107      0.2261
    129  O        -11.0110    7.9120   -2.2330 O.2   107  MET107     -0.2867
    130  CB       -10.3710    6.9670    0.8760 C.3   107  MET107      0.0387
    131  CG        -9.1740    6.9630    1.8200 C.3   107  MET107      0.0595
    132  SD        -8.7140    5.3230    2.4090 S.3   107  MET107     -0.1393
    133  CE        -9.9900    5.0630    3.5820 C.3   107  MET107      0.0692
@<TRIPOS>BOND
     1    25    24    2
     2    24    23    1
     3    26    23    1
     4    26    27    1
     5    33    34    1
     6    23    22    1
     7    27    29   ar
     8    27    28   ar
     9   129   128    2
    10    29    31   ar
    11    34    35    1
    12    34    37    1
    13     1     2    1
    14    48    47    1
    15    48    42    1
    16    28    30   ar
    17    47    46    1
    18    22    17   am
    19    35    42   am
    20    35    36    2
    21    31    32   ar
    22   128   127    1
    23    42    43    1
    24    37    38    1
    25     2     3    1
    26     2     5    1
    27    30    32   ar
    28    40    39    2
    29    43    46    1
    30    43    44    1
    31     3     4    2
    32     3    15   am
    33    17    18    2
    34    17    16    1
    35   127   130    1
    36   127   126    1
    37     5     6    1
    38    39    38    1
    39    39    41   am
    40    92    93    1
    41    21    15    1
    42    21    20    1
    43    15    16    1
    44     7     6   ar
    45     7     9   ar
    46    96    93    1
    47    96    97    1
    48     6     8   ar
    49   130   131    1
    50    16    19    1
    51    44    49   am
    52    44    45    2
    53    93    94    1
    54     9    10   ar
    55    19    20    1
    56    49    50    1
    57    94    95    2
    58   131   132    1
    59   121   120    2
    60    91    90    1
    61     8    10   ar
    62     8    11   ar
    63    10    12   ar
    64   132   133    1
    65    55    53    1
    66    50    53    1
    67    50    51    1
    68   120   119    1
    69    53    54    1
    70    11    13   ar
    71   125   123    1
    72    90    89   ar
    73    90    88   ar
    74    89    87   ar
    75    12    14   ar
    76    52    51    2
    77   123   122    1
    78    98    99    1
    79   119   122    1
    80   119   118    1
    81    13    14   ar
    82    88    86   ar
    83    87    85   ar
    84   122   124    1
    85   117   115   am
    86   102    99    1
    87   102   103    1
    88    83    82    2
    89    99   100    1
    90    86    85   ar
    91    85    84    1
    92   110   100   am
    93   110   111    1
    94   113   112    2
    95   115   114    1
    96   115   116    2
    97   114   111    1
    98    82    81    1
    99   100   101    2
   100    62    61    1
   101   103   104   ar
   102   103   105   ar
   103   111   112    1
   104   104   106   ar
   105    84    81    1
   106   105   107   ar
   107    78    77    1
   108    81    80    1
   109    61    63    1
   110    61    60    1
   111   106   108   ar
   112   107   108   ar
   113    60    57    1
   114    77    76    1
   115    77    79    1
   116   108   109    1
   117    76    73    1
   118    57    56    1
   119    57    58    1
   120    75    74    2
   121    73    74    1
   122    73    72    1
   123    58    59    2
   124    58    64   am
   125    72    66   am
   126    64    65    1
   127    66    67    2
   128    66    65    1
   129    65    68    1
   130    68    69    1
   131    71    69   am
   132    69    70    2
