@<TRIPOS>MOLECULE
tmp/5u29A00.pdb
 185 181 0 0 0
SMALL
GASTEIGER

@<TRIPOS>ATOM
      1  N         -2.6950   23.2630    5.7480 N.3   280  THR280     -0.1218
      2  CA        -3.7010   24.3170    5.7580 C.3   280  THR280      0.1862
      3  C         -3.0860   25.6160    5.2410 C.2   280  THR280      0.2287
      4  O         -1.8920   25.6910    4.9590 O.2   280  THR280     -0.2866
      5  CB        -4.2720   24.4920    7.1630 C.3   280  THR280      0.1770
      6  OG1       -3.2210   24.8740    8.0540 O.3   280  THR280     -0.2211
      7  CG2       -4.8650   23.2040    7.6430 C.3   280  THR280      0.0375
      8  N         -7.4110   21.7240   -1.7300 N.3   325  TRP325     -0.1227
      9  CA        -8.2960   21.8780   -0.5900 C.3   325  TRP325      0.1737
     10  C         -8.7390   20.5000   -0.1390 C.2   325  TRP325      0.2595
     11  O         -8.9100   19.5940   -0.9660 O.2   325  TRP325     -0.2718
     12  CB        -9.5250   22.7190   -0.9820 C.3   325  TRP325      0.0564
     13  CG       -10.4570   23.1590    0.1400 C.ar  325  TRP325      0.0003
     14  CD1      -10.1810   23.2160    1.4830 C.ar  325  TRP325      0.0946
     15  CD2      -11.7960   23.6450   -0.0140 C.ar  325  TRP325      0.0152
     16  NE1      -11.2650   23.6960    2.1690 N.ar  325  TRP325     -0.2442
     17  CE2      -12.2760   23.9600    1.2750 C.ar  325  TRP325      0.0810
     18  CE3      -12.6410   23.8350   -1.1150 C.ar  325  TRP325      0.0012
     19  CZ2      -13.5710   24.4640    1.4920 C.ar  325  TRP325      0.0191
     20  CZ3      -13.9320   24.3290   -0.8960 C.ar  325  TRP325      0.0001
     21  CH2      -14.3810   24.6370    0.3950 C.ar  325  TRP325      0.0015
     22  N         -8.9560   20.3470    1.1720 N.am  326  ILE326     -0.1966
     23  CA        -9.4200   19.0460    1.6400 C.3   326  ILE326      0.1727
     24  C        -10.6630   18.6170    0.8690 C.2   326  ILE326      0.2616
     25  O        -10.8290   17.4260    0.5730 O.2   326  ILE326     -0.2715
     26  CB        -9.6650   19.0380    3.1660 C.3   326  ILE326      0.0290
     27  CG1       -9.9390   17.6060    3.6150 C.3   326  ILE326      0.0022
     28  CG2      -10.8750   19.8920    3.5600 C.3   326  ILE326      0.0023
     29  CD1       -8.7060   16.7050    3.4700 C.3   326  ILE326      0.0001
     30  N        -11.5170   19.5760    0.4610 N.am  327  THR327     -0.1951
     31  CA       -12.7190   19.2110   -0.2900 C.3   327  THR327      0.1897
     32  C        -12.3680   18.4420   -1.5610 C.2   327  THR327      0.2313
     33  O        -13.0600   17.4840   -1.9250 O.2   327  THR327     -0.2863
     34  CB       -13.5410   20.4510   -0.6400 C.3   327  THR327      0.1794
     35  OG1      -13.8240   21.2000    0.5490 O.3   327  THR327     -0.2208
     36  CG2      -14.8780   20.0410   -1.3180 C.3   327  THR327      0.0378
     37  N        -23.0810   22.5720   -0.4370 N.3   401  SER401     -0.1202
     38  CA       -22.4110   23.8110   -0.0870 C.3   401  SER401      0.2020
     39  C        -21.3920   23.4870    1.0000 C.2   401  SER401      0.2619
     40  O        -21.7280   22.7860    1.9610 O.2   401  SER401     -0.2717
     41  CB       -23.4560   24.8380    0.3770 C.3   401  SER401      0.2103
     42  OG       -22.8810   26.0600    0.8090 O.3   401  SER401     -0.2182
     43  N        -20.1510   23.9670    0.8460 N.am  402  VAL402     -0.1965
     44  CA       -19.0780   23.6200    1.7850 C.3   402  VAL402      0.1727
     45  C        -18.1010   24.7860    1.9210 C.2   402  VAL402      0.2617
     46  O        -17.8050   25.4780    0.9410 O.2   402  VAL402     -0.2715
     47  CB       -18.3280   22.3510    1.3380 C.3   402  VAL402      0.0290
     48  CG1      -17.8910   22.5000   -0.1040 C.3   402  VAL402      0.0023
     49  CG2      -17.1270   22.1080    2.2310 C.3   402  VAL402      0.0023
     50  N        -17.5930   24.9990    3.1400 N.am  403  GLY403     -0.1940
     51  CA       -16.4570   25.8730    3.3770 C.3   403  GLY403      0.2014
     52  C        -16.7380   27.0870    4.2390 C.2   403  GLY403      0.2639
     53  O        -15.7880   27.6870    4.7580 O.2   403  GLY403     -0.2714
     54  N        -17.9990   27.4480    4.4440 N.am  404  GLU404     -0.1963
     55  CA       -18.4020   28.6360    5.1920 C.3   404  GLU404      0.1718
     56  C        -19.9090   28.5870    5.3980 C.2   404  GLU404      0.2458
     57  O        -20.6080   27.8520    4.6920 O.2   404  GLU404     -0.2730
     58  CB       -18.0250   29.9170    4.4480 C.3   404  GLU404      0.0428
     59  CG       -16.9090   30.6770    5.0730 C.3   404  GLU404      0.1163
     60  CD       -16.9720   32.1410    4.7040 C.2   404  GLU404      0.3649
     61  OE1      -17.9080   32.5230    3.9580 O.co2 404  GLU404     -0.2457
     62  OE2      -16.1330   32.9150    5.2150 O.co2 404  GLU404     -0.2457
     63  N        -20.4350   29.3500    6.3500 N.am  405  PRO405     -0.2727
     64  CA       -21.8910   29.4090    6.4740 C.3   405  PRO405      0.1402
     65  C        -22.4720   29.9520    5.1790 C.2   405  PRO405      0.2269
     66  O        -21.9330   30.8900    4.5910 O.2   405  PRO405     -0.2865
     67  CB       -22.1140   30.3680    7.6500 C.3   405  PRO405      0.0296
     68  CG       -20.8000   30.3500    8.4270 C.3   405  PRO405      0.0237
     69  CD       -19.7530   30.1750    7.3680 C.3   405  PRO405      0.0939
     70  N        -25.9690   21.4430    3.1460 N.3   427  ASP427     -0.1225
     71  CA       -24.9560   22.3020    3.7390 C.3   427  ASP427      0.1805
     72  C        -24.0400   21.4220    4.5800 C.2   427  ASP427      0.2598
     73  O        -24.4650   20.8990    5.6190 O.2   427  ASP427     -0.2718
     74  CB       -25.6540   23.3590    4.5830 C.3   427  ASP427      0.1424
     75  CG       -24.7080   24.3650    5.1770 C.2   427  ASP427      0.3668
     76  OD1      -23.5350   24.3990    4.7690 O.co2 427  ASP427     -0.2456
     77  OD2      -25.1630   25.1500    6.0440 O.co2 427  ASP427     -0.2456
     78  N        -22.8070   21.2130    4.1290 N.am  428  THR428     -0.1939
     79  CA       -21.8970   20.2640    4.7720 C.3   428  THR428      0.2028
     80  C        -20.8590   20.9980    5.5990 C.2   428  THR428      0.2642
     81  O        -20.0300   21.7220    5.0450 O.2   428  THR428     -0.2714
     82  CB       -21.1840   19.3800    3.7500 C.3   428  THR428      0.1808
     83  OG1      -20.2310   20.1720    3.0410 O.3   428  THR428     -0.2208
     84  CG2      -22.1730   18.7660    2.7720 C.3   428  THR428      0.0379
     85  N        -20.8840   20.7830    6.9130 N.am  429  TYR429     -0.1959
     86  CA       -19.9000   21.3600    7.8180 C.3   429  TYR429      0.1771
     87  C        -18.8200   20.3210    8.1190 C.2   429  TYR429      0.2620
     88  O        -19.1380   19.1850    8.4890 O.2   429  TYR429     -0.2715
     89  CB       -20.5590   21.8290    9.1180 C.3   429  TYR429      0.0574
     90  CG       -19.5280   22.1630   10.1760 C.ar  429  TYR429     -0.0198
     91  CD1      -18.8660   23.3940   10.1600 C.ar  429  TYR429     -0.0009
     92  CD2      -19.1940   21.2500   11.1710 C.ar  429  TYR429     -0.0009
     93  CE1      -17.9070   23.6990   11.1080 C.ar  429  TYR429      0.0417
     94  CE2      -18.2430   21.5470   12.1170 C.ar  429  TYR429      0.0417
     95  CZ       -17.5980   22.7660   12.0720 C.ar  429  TYR429      0.1957
     96  OH       -16.6480   23.0620   13.0080 O.3   429  TYR429     -0.2866
     97  N        -17.5530   20.6910    7.9200 N.am  430  TRP430     -0.1960
     98  CA       -16.4090   19.8490    8.2960 C.3   430  TRP430      0.1771
     99  C        -15.1240   20.6650    8.1400 C.2   430  TRP430      0.2620
    100  O        -15.1500   21.8490    7.7800 O.2   430  TRP430     -0.2715
    101  CB       -16.3320   18.5310    7.5040 C.3   430  TRP430      0.0590
    102  CG       -16.2630   18.6540    5.9920 C.ar  430  TRP430      0.0006
    103  CD1      -17.1820   19.2380    5.1700 C.ar  430  TRP430      0.0946
    104  CD2      -15.2190   18.1660    5.1370 C.ar  430  TRP430      0.0152
    105  NE1      -16.7740   19.1360    3.8550 N.ar  430  TRP430     -0.2442
    106  CE2      -15.5730   18.4880    3.8120 C.ar  430  TRP430      0.0810
    107  CE3      -14.0260   17.4890    5.3640 C.ar  430  TRP430      0.0012
    108  CZ2      -14.7650   18.1660    2.7210 C.ar  430  TRP430      0.0191
    109  CZ3      -13.2450   17.1650    4.2900 C.ar  430  TRP430      0.0001
    110  CH2      -13.6120   17.5070    2.9820 C.ar  430  TRP430      0.0015
    111  N        -14.0000   20.0340    8.4870 N.am  431  MET431     -0.1963
    112  CA       -12.6890   20.6600    8.3930 C.3   431  MET431      0.1736
    113  C        -11.6490   19.6990    7.8180 C.2   431  MET431      0.2617
    114  O        -11.8420   18.4770    7.7750 O.2   431  MET431     -0.2715
    115  CB       -12.1940   21.1560    9.7580 C.3   431  MET431      0.0427
    116  CG       -13.2640   21.5180   10.7460 C.3   431  MET431      0.0599
    117  SD       -12.5420   22.2650   12.2120 S.3   431  MET431     -0.1393
    118  CE       -11.5350   20.9520   12.8630 C.3   431  MET431      0.0692
    119  N        -10.5140   20.2870    7.4020 N.am  432  THR432     -0.1937
    120  CA        -9.3680   19.4950    6.9760 C.3   432  THR432      0.2028
    121  C         -9.0330   18.4290    8.0020 C.2   432  THR432      0.2642
    122  O         -8.7710   17.2670    7.6530 O.2   432  THR432     -0.2714
    123  CB        -8.1630   20.4010    6.7760 C.3   432  THR432      0.1808
    124  OG1       -8.4160   21.2990    5.6920 O.3   432  THR432     -0.2208
    125  CG2       -6.9060   19.5620    6.4970 C.3   432  THR432      0.0379
    126  N         -9.0740   18.8080    9.2760 N.am  433  GLU433     -0.1976
    127  CA        -8.7610   17.9070   10.3740 C.3   433  GLU433      0.1602
    128  C         -9.7980   16.8050   10.5930 C.2   433  GLU433      0.2287
    129  O         -9.4640   15.8080   11.2440 O.2   433  GLU433     -0.2864
    130  CB        -8.6380   18.6870   11.6710 C.3   433  GLU433      0.0415
    131  CG        -7.5140   19.6800   11.7090 C.3   433  GLU433      0.1163
    132  CD        -7.8920   21.0340   11.1420 C.2   433  GLU433      0.3649
    133  OE1       -8.8540   21.1260   10.3420 O.co2 433  GLU433     -0.2457
    134  OE2       -7.2110   22.0100   11.5020 O.co2 433  GLU433     -0.2457
    135  N        -26.5630   23.3470    9.2010 N.3   453  ALA453     -0.1245
    136  CA       -25.9220   22.0720    8.8910 C.3   453  ALA453      0.1562
    137  C        -26.7920   20.8600    9.2500 C.2   453  ALA453      0.2260
    138  O        -26.5550   19.7670    8.7260 O.2   453  ALA453     -0.2867
    139  CB       -24.5700   22.0000    9.5840 C.3   453  ALA453      0.0290
    140  N        -15.0920   26.3920   15.9960 N.3   518  ASP518     -0.1239
    141  CA       -16.2530   27.1130   15.5040 C.3   518  ASP518      0.1674
    142  C        -17.2650   27.3470   16.6230 C.2   518  ASP518      0.2266
    143  O        -17.4570   26.5080   17.5070 O.2   518  ASP518     -0.2867
    144  CB       -16.9260   26.3400   14.3680 C.3   518  ASP518      0.1410
    145  CG       -16.0860   26.3250   13.0900 C.2   518  ASP518      0.3668
    146  OD1      -15.6960   27.4200   12.6050 O.co2 518  ASP518     -0.2456
    147  OD2      -15.8330   25.2170   12.5650 O.co2 518  ASP518     -0.2456
    148  N        -23.9380   26.4930   12.5070 N.3   530  ILE530     -0.1245
    149  CA       -22.5490   26.8930   12.6290 C.3   530  ILE530      0.1561
    150  C        -22.5190   28.4110   12.4910 C.2   530  ILE530      0.2260
    151  O        -22.9240   28.9570   11.4640 O.2   530  ILE530     -0.2867
    152  CB       -21.6820   26.1910   11.5690 C.3   530  ILE530      0.0252
    153  CG1      -21.8480   24.6650   11.6820 C.3   530  ILE530      0.0019
    154  CG2      -20.1960   26.5200   11.7450 C.3   530  ILE530      0.0019
    155  CD1      -21.5170   24.0980   13.0810 C.3   530  ILE530      0.0001
    156  N        -19.7810   30.5700   12.8750 N.3   532  GLY532     -0.1210
    157  CA       -18.5560   31.1550   12.3760 C.3   532  GLY532      0.1956
    158  C        -17.3850   30.8230   13.2730 C.2   532  GLY532      0.2611
    159  O        -17.5260   30.1940   14.3210 O.2   532  GLY532     -0.2717
    160  N        -16.1990   31.2540   12.8330 N.am  533  ARG533     -0.1979
    161  CA       -14.9800   30.9860   13.5850 C.3   533  ARG533      0.1597
    162  C        -15.0380   31.7150   14.9240 C.2   533  ARG533      0.2287
    163  O        -15.4320   32.8840   14.9940 O.2   533  ARG533     -0.2864
    164  CB       -13.7310   31.4280   12.7940 C.3   533  ARG533      0.0334
    165  CG       -13.3740   30.6480   11.5130 C.3   533  ARG533      0.0492
    166  CD       -13.1440   29.1610   11.7870 C.3   533  ARG533      0.2205
    167  NE       -11.9000   28.8990   12.5290 N.pl3 533  ARG533     -0.0865
    168  CZ       -11.4900   27.6940   12.9350 C.cat 533  ARG533      0.5346
    169  NH1      -12.2060   26.6030   12.6750 N.pl3 533  ARG533      0.1354
    170  NH2      -10.3610   27.5770   13.6210 N.pl3 533  ARG533      0.1354
    171  N        -10.3400   27.8420   -0.5340 N.3   629  SER629     -0.1217
    172  CA       -10.8160   27.0060    0.5630 C.3   629  SER629      0.1889
    173  C        -12.1910   27.4840    1.0560 C.2   629  SER629      0.2288
    174  O        -12.5510   27.2940    2.2260 O.2   629  SER629     -0.2866
    175  CB        -9.7770   26.9760    1.6910 C.3   629  SER629      0.2089
    176  OG        -9.6870   28.2150    2.3760 O.3   629  SER629     -0.2183
    177  N        -13.4270   30.4360    1.7890 N.3   631  LYS631     -0.1245
    178  CA       -13.4760   31.3310    2.9360 C.3   631  LYS631      0.1561
    179  C        -13.1000   32.7460    2.5290 C.2   631  LYS631      0.2260
    180  O        -12.3880   32.9680    1.5460 O.2   631  LYS631     -0.2867
    181  CB       -12.5760   30.8050    4.0920 C.3   631  LYS631      0.0271
    182  CG       -11.2480   31.5090    4.3940 C.3   631  LYS631      0.0035
    183  CD       -10.5540   30.7360    5.5480 C.3   631  LYS631      0.0206
    184  CE        -9.1700   31.2440    5.9590 C.3   631  LYS631      0.1093
    185  NZ        -8.3210   30.1010    6.5100 N.3   631  LYS631     -0.1314
@<TRIPOS>BOND
     1    33    32    2
     2     8     9    1
     3    32    31    1
     4    36    34    1
     5    18    20   ar
     6    18    15   ar
     7    12     9    1
     8    12    13    1
     9    11    10    2
    10    20    21   ar
    11    34    31    1
    12    34    35    1
    13     9    10    1
    14   171   172    1
    15    37    38    1
    16    31    30    1
    17    10    22   am
    18    48    47    1
    19    38    41    1
    20    38    39    1
    21    15    13   ar
    22    15    17   ar
    23    13    14   ar
    24    41    42    1
    25    21    19   ar
    26    30    24   am
    27   172   173    1
    28   172   175    1
    29    25    24    2
    30    43    39   am
    31    43    44    1
    32    24    23    1
    33    46    45    2
    34    39    40    2
    35   173   174    2
    36    22    23    1
    37    17    19   ar
    38    17    16   ar
    39    47    44    1
    40    47    49    1
    41    14    16   ar
    42   180   179    2
    43    23    26    1
    44   175   176    1
    45    44    45    1
    46   177   178    1
    47    45    50   am
    48   179   178    1
    49   108   110   ar
    50   108   106   ar
    51    84    82    1
    52   178   181    1
    53   110   109   ar
    54    83    82    1
    55    50    51    1
    56    70    71    1
    57    26    28    1
    58    26    27    1
    59    51    52    1
    60    29    27    1
    61    71    72    1
    62    71    74    1
    63    82    79    1
    64   106   105   ar
    65   106   104   ar
    66   105   103   ar
    67    61    60   ar
    68   181   182    1
    69    78    72   am
    70    78    79    1
    71    52    54   am
    72    52    53    2
    73   109   107   ar
    74   182   183    1
    75    54    55    1
    76    58    59    1
    77    58    55    1
    78    72    73    2
    79    74    75    1
    80    66    65    2
    81    57    56    2
    82    60    59    1
    83    60    62   ar
    84    76    75   ar
    85    79    80    1
    86     4     3    2
    87    81    80    2
    88   104   107   ar
    89   104   102   ar
    90   103   102   ar
    91    75    77   ar
    92    65    64    1
    93    55    56    1
    94     3     2    1
    95    56    63   am
    96   183   184    1
    97    80    85   am
    98   124   123    1
    99     1     2    1
   100     2     5    1
   101   184   185    1
   102   102   101    1
   103    63    64    1
   104    63    69    1
   105    64    67    1
   106   125   123    1
   107   123   120    1
   108    85    86    1
   109   120   119    1
   110   120   121    1
   111     5     7    1
   112     5     6    1
   113    69    68    1
   114   119   113   am
   115   101    98    1
   116    67    68    1
   117   122   121    2
   118   114   113    2
   119   100    99    2
   120   113   112    1
   121    86    87    1
   122    86    89    1
   123    97    87   am
   124    97    98    1
   125   121   126   am
   126    87    88    2
   127    99    98    1
   128    99   111   am
   129   112   111    1
   130   112   115    1
   131   138   137    2
   132   136   135    1
   133   136   137    1
   134   136   139    1
   135    89    90    1
   136   126   127    1
   137   115   116    1
   138    91    90   ar
   139    91    93   ar
   140    90    92   ar
   141   133   132   ar
   142   127   128    1
   143   127   130    1
   144   128   129    2
   145   116   117    1
   146    93    95   ar
   147   132   134   ar
   148   132   131    1
   149    92    94   ar
   150   151   150    2
   151   165   166    1
   152   165   164    1
   153   152   153    1
   154   152   154    1
   155   152   149    1
   156   130   131    1
   157   153   155    1
   158   166   167    1
   159    95    94   ar
   160    95    96    1
   161   117   118    1
   162   157   156    1
   163   157   158    1
   164   150   149    1
   165   148   149    1
   166   167   168    2
   167   147   145   ar
   168   146   145   ar
   169   169   168    1
   170   164   161    1
   171   160   158   am
   172   160   161    1
   173   168   170    1
   174   145   144    1
   175   158   159    2
   176   161   162    1
   177   144   141    1
   178   162   163    2
   179   141   140    1
   180   141   142    1
   181   142   143    2
