@<TRIPOS>MOLECULE
tmp/5u2bE00.pdb
 159 149 0 0 0
SMALL
GASTEIGER

@<TRIPOS>ATOM
      1  N         20.2860   12.9330   61.0760 N.3    34  MET34      -0.1245
      2  CA        19.1150   13.2370   61.8920 C.3    34  MET34       0.1570
      3  C         19.4940   13.4050   63.3570 C.2    34  MET34       0.2261
      4  O         18.9300   14.2510   64.0610 O.2    34  MET34      -0.2867
      5  CB        18.0640   12.1390   61.7300 C.3    34  MET34       0.0387
      6  CG        16.8010   12.4430   62.4710 C.3    34  MET34       0.0595
      7  SD        15.8930   13.6720   61.5300 S.3    34  MET34      -0.1393
      8  CE        14.8890   12.5580   60.5710 C.3    34  MET34       0.0692
      9  N         21.0260   16.9520   63.7910 N.3    37  LEU37      -0.1231
     10  CA        20.0910   18.0680   63.7050 C.3    37  LEU37       0.1693
     11  C         19.1550   18.1290   64.9050 C.2    37  LEU37       0.2592
     12  O         18.7770   19.2260   65.3320 O.2    37  LEU37      -0.2718
     13  CB        19.2830   17.9810   62.4080 C.3    37  LEU37       0.0284
     14  CG        19.8660   18.6770   61.1740 C.3    37  LEU37       0.0019
     15  CD1       21.2360   18.1250   60.8030 C.3    37  LEU37       0.0001
     16  CD2       18.9080   18.5660   59.9970 C.3    37  LEU37       0.0001
     17  N         18.7730   16.9780   65.4610 N.am   38  THR38      -0.1953
     18  CA        17.9300   16.9800   66.6520 C.3    38  THR38       0.1897
     19  C         18.7200   17.3270   67.9080 C.2    38  THR38       0.2313
     20  O         18.1640   17.9220   68.8370 O.2    38  THR38      -0.2863
     21  CB        17.2450   15.6230   66.8240 C.3    38  THR38       0.1794
     22  OG1       18.2350   14.5890   66.8990 O.3    38  THR38      -0.2208
     23  CG2       16.3110   15.3450   65.6540 C.3    38  THR38       0.0378
     24  N         21.4490   19.4030   68.0260 N.3    40  LEU40      -0.1231
     25  CA        21.7260   20.8360   67.9950 C.3    40  LEU40       0.1693
     26  C         20.4640   21.6480   68.2550 C.2    40  LEU40       0.2591
     27  O         20.5120   22.6770   68.9400 O.2    40  LEU40      -0.2718
     28  CB        22.3470   21.2200   66.6520 C.3    40  LEU40       0.0284
     29  CG        22.7000   22.6960   66.4600 C.3    40  LEU40       0.0019
     30  CD1       23.6910   23.1520   67.5190 C.3    40  LEU40       0.0001
     31  CD2       23.2510   22.9390   65.0640 C.3    40  LEU40       0.0001
     32  N         19.3260   21.2020   67.7190 N.am   41  ALA41      -0.1980
     33  CA        18.0670   21.8900   67.9850 C.3    41  ALA41       0.1597
     34  C         17.6870   21.7880   69.4560 C.2    41  ALA41       0.2287
     35  O         17.1750   22.7500   70.0420 O.2    41  ALA41      -0.2864
     36  CB        16.9580   21.3190   67.1020 C.3    41  ALA41       0.0319
     37  N         20.0680   24.1630   71.4250 N.3    44  GLU44      -0.1245
     38  CA        19.7190   25.5680   71.2550 C.3    44  GLU44       0.1567
     39  C         18.4050   25.9060   71.9450 C.2    44  GLU44       0.2260
     40  O         18.1750   27.0680   72.2970 O.2    44  GLU44      -0.2867
     41  CB        19.6350   25.9220   69.7690 C.3    44  GLU44       0.0388
     42  CG        20.9610   25.8500   69.0350 C.3    44  GLU44       0.1160
     43  CD        20.8560   26.3260   67.6010 C.2    44  GLU44       0.3649
     44  OE1       19.8350   26.9550   67.2560 O.co2  44  GLU44      -0.2457
     45  OE2       21.7950   26.0700   66.8190 O.co2  44  GLU44      -0.2457
     46  N          9.0100   28.2150   69.0370 N.3    74  TRP74      -0.1227
     47  CA        10.3810   27.7210   69.1610 C.3    74  TRP74       0.1737
     48  C         10.9880   27.3970   67.7990 C.2    74  TRP74       0.2595
     49  O         12.1000   27.8380   67.4870 O.2    74  TRP74      -0.2718
     50  CB        10.4310   26.5000   70.0870 C.3    74  TRP74       0.0564
     51  CG         9.7690   25.2640   69.5510 C.ar   74  TRP74       0.0003
     52  CD1        8.4430   24.9660   69.5990 C.ar   74  TRP74       0.0946
     53  CD2       10.4060   24.1550   68.8970 C.ar   74  TRP74       0.0152
     54  NE1        8.2090   23.7450   69.0130 N.ar   74  TRP74      -0.2442
     55  CE2        9.3980   23.2260   68.5740 C.ar   74  TRP74       0.0810
     56  CE3       11.7280   23.8610   68.5520 C.ar   74  TRP74       0.0012
     57  CZ2        9.6700   22.0230   67.9210 C.ar   74  TRP74       0.0191
     58  CZ3       11.9960   22.6670   67.9040 C.ar   74  TRP74       0.0001
     59  CH2       10.9720   21.7640   67.5950 C.ar   74  TRP74       0.0015
     60  N         10.2680   26.6430   66.9640 N.am   75  LEU75      -0.1980
     61  CA        10.8160   26.2840   65.6600 C.3    75  LEU75       0.1596
     62  C         10.9920   27.5090   64.7720 C.2    75  LEU75       0.2287
     63  O         11.9310   27.5610   63.9700 O.2    75  LEU75      -0.2864
     64  CB         9.9270   25.2490   64.9730 C.3    75  LEU75       0.0297
     65  CG        10.4920   24.6510   63.6810 C.3    75  LEU75       0.0022
     66  CD1       11.8970   24.1140   63.9090 C.3    75  LEU75       0.0001
     67  CD2        9.5810   23.5570   63.1470 C.3    75  LEU75       0.0001
     68  N         14.4940   29.1070   65.8810 N.3    78  LEU78      -0.1231
     69  CA        15.6830   28.4660   65.3260 C.3    78  LEU78       0.1693
     70  C         15.7880   28.7060   63.8250 C.2    78  LEU78       0.2591
     71  O         16.8900   28.8880   63.2960 O.2    78  LEU78      -0.2718
     72  CB        15.6670   26.9660   65.6190 C.3    78  LEU78       0.0284
     73  CG        15.5760   26.5070   67.0740 C.3    78  LEU78       0.0019
     74  CD1       14.3350   25.6680   67.2610 C.3    78  LEU78       0.0001
     75  CD2       16.8090   25.7130   67.4630 C.3    78  LEU78       0.0001
     76  N         14.6510   28.7090   63.1250 N.am   79  MET79      -0.1979
     77  CA        14.6710   28.8960   61.6780 C.3    79  MET79       0.1605
     78  C         15.1530   30.2930   61.3070 C.2    79  MET79       0.2287
     79  O         16.0300   30.4470   60.4490 O.2    79  MET79      -0.2864
     80  CB        13.2840   28.6300   61.0920 C.3    79  MET79       0.0413
     81  CG        12.9440   27.1550   60.9570 C.3    79  MET79       0.0598
     82  SD        11.3070   26.8790   60.2560 S.3    79  MET79      -0.1393
     83  CE        11.3260   25.1000   60.0570 C.3    79  MET79       0.0692
     84  N         18.6800   30.3910   61.9470 N.3    82  LEU82      -0.1245
     85  CA        19.4390   29.6500   60.9450 C.3    82  LEU82       0.1561
     86  C         19.5690   30.4390   59.6490 C.2    82  LEU82       0.2260
     87  O         20.6550   30.5020   59.0620 O.2    82  LEU82      -0.2867
     88  CB        18.7770   28.2980   60.6810 C.3    82  LEU82       0.0270
     89  CG        19.2670   27.5480   59.4390 C.3    82  LEU82       0.0019
     90  CD1       20.7310   27.1690   59.5780 C.3    82  LEU82       0.0001
     91  CD2       18.4120   26.3210   59.1750 C.3    82  LEU82       0.0001
     92  N         22.0540   33.2330   59.9610 N.3    85  ARG85      -0.1245
     93  CA        23.4230   32.7370   59.9750 C.3    85  ARG85       0.1563
     94  C         23.8340   32.1010   58.6540 C.2    85  ARG85       0.2260
     95  O         24.9870   31.6760   58.5230 O.2    85  ARG85      -0.2867
     96  CB        23.6060   31.7280   61.1120 C.3    85  ARG85       0.0307
     97  CG        23.6020   32.3550   62.4950 C.3    85  ARG85       0.0489
     98  CD        23.8080   31.3180   63.5890 C.3    85  ARG85       0.2205
     99  NE        22.6710   30.4120   63.7160 N.pl3  85  ARG85      -0.0865
    100  CZ        22.6570   29.1590   63.2720 C.cat  85  ARG85       0.5346
    101  NH1       23.7250   28.6540   62.6720 N.pl3  85  ARG85       0.1354
    102  NH2       21.5750   28.4090   63.4340 N.pl3  85  ARG85       0.1354
    103  N         23.9030   25.5900   60.0060 N.3    95  PHE95      -0.1241
    104  CA        23.2960   25.2470   61.2880 C.3    95  PHE95       0.1605
    105  C         24.2540   25.5340   62.4360 C.2    95  PHE95       0.2264
    106  O         23.8370   25.9820   63.5100 O.2    95  PHE95      -0.2867
    107  CB        22.8770   23.7760   61.2960 C.3    95  PHE95       0.0534
    108  CG        21.7900   23.4460   60.3110 C.ar   95  PHE95      -0.0203
    109  CD1       20.4790   23.2920   60.7320 C.ar   95  PHE95      -0.0042
    110  CD2       22.0780   23.2860   58.9660 C.ar   95  PHE95      -0.0042
    111  CE1       19.4780   22.9850   59.8300 C.ar   95  PHE95      -0.0003
    112  CE2       21.0820   22.9820   58.0590 C.ar   95  PHE95      -0.0003
    113  CZ        19.7800   22.8320   58.4920 C.ar   95  PHE95      -0.0000
    114  N         13.3600   16.4320   53.1950 N.3   112  MET112     -0.1245
    115  CA        13.8730   17.6590   53.7910 C.3   112  MET112      0.1570
    116  C         14.2370   18.7250   52.7710 C.2   112  MET112      0.2261
    117  O         14.1820   19.9120   53.0990 O.2   112  MET112     -0.2867
    118  CB        15.1020   17.3610   54.6590 C.3   112  MET112      0.0387
    119  CG        15.6790   18.5830   55.3640 C.3   112  MET112      0.0595
    120  SD        16.4510   18.1950   56.9410 S.3   112  MET112     -0.1393
    121  CE        15.0800   17.4040   57.7770 C.3   112  MET112      0.0692
    122  N         11.7930   21.6160   52.6590 N.3   115  ILE115     -0.1245
    123  CA        11.9990   22.5910   53.7260 C.3   115  ILE115      0.1561
    124  C         13.3860   23.2100   53.6140 C.2   115  ILE115      0.2260
    125  O         13.5770   24.3980   53.9050 O.2   115  ILE115     -0.2867
    126  CB        11.7820   21.9340   55.1010 C.3   115  ILE115      0.0252
    127  CG1       10.4050   21.2720   55.1680 C.3   115  ILE115      0.0019
    128  CG2       11.9200   22.9630   56.2130 C.3   115  ILE115      0.0019
    129  CD1       10.1960   20.4290   56.4060 C.3   115  ILE115      0.0001
    130  N         14.0580   27.1840   53.5530 N.3   119  LEU119     -0.1245
    131  CA        14.9970   27.9040   54.4070 C.3   119  LEU119      0.1561
    132  C         16.0800   28.5810   53.5770 C.2   119  LEU119      0.2260
    133  O         16.5080   29.6980   53.8900 O.2   119  LEU119     -0.2867
    134  CB        15.6190   26.9490   55.4260 C.3   119  LEU119      0.0270
    135  CG        14.7030   26.4280   56.5340 C.3   119  LEU119      0.0019
    136  CD1       15.2760   25.1600   57.1420 C.3   119  LEU119      0.0001
    137  CD2       14.5060   27.4900   57.6040 C.3   119  LEU119      0.0001
    138  N          7.9290   21.8940   59.0230 N.3   203  GLY203     -0.1225
    139  CA         8.8960   21.2020   59.8570 C.3   203  GLY203      0.1811
    140  C          8.2690   20.5520   61.0720 C.2   203  GLY203      0.2280
    141  O          8.7430   19.5130   61.5400 O.2   203  GLY203     -0.2866
    142  N          6.7990   17.4310   59.6670 N.3   206  HIS206     -0.1226
    143  CA         7.8330   16.4910   59.2490 C.3   206  HIS206      0.1752
    144  C          8.5490   15.8850   60.4490 C.2   206  HIS206      0.2595
    145  O          8.8440   14.6840   60.4600 O.2   206  HIS206     -0.2718
    146  CB         8.8300   17.1870   58.3230 C.3   206  HIS206      0.0759
    147  CG        10.0160   16.3440   57.9720 C.ar  206  HIS206      0.0818
    148  ND1       11.1670   16.3280   58.7300 N.ar  206  HIS206     -0.2268
    149  CD2       10.2290   15.4850   56.9460 C.ar  206  HIS206      0.1154
    150  CE1       12.0390   15.4970   58.1860 C.ar  206  HIS206      0.1986
    151  NE2       11.4940   14.9730   57.1030 N.ar  206  HIS206     -0.2212
    152  N          8.8430   16.6990   61.4650 N.am  207  LEU207     -0.1980
    153  CA         9.4960   16.1790   62.6620 C.3   207  LEU207      0.1596
    154  C          8.5720   15.2420   63.4300 C.2   207  LEU207      0.2287
    155  O          9.0310   14.2640   64.0320 O.2   207  LEU207     -0.2864
    156  CB         9.9550   17.3340   63.5520 C.3   207  LEU207      0.0297
    157  CG        10.6230   16.9600   64.8740 C.3   207  LEU207      0.0022
    158  CD1       11.8320   16.0700   64.6290 C.3   207  LEU207      0.0001
    159  CD2       11.0190   18.2110   65.6400 C.3   207  LEU207      0.0001
@<TRIPOS>BOND
     1   122   123    1
     2   116   117    2
     3   116   115    1
     4   114   115    1
     5   130   131    1
     6   132   133    2
     7   132   131    1
     8   124   123    1
     9   124   125    2
    10   123   126    1
    11   115   118    1
    12   131   134    1
    13   118   119    1
    14   126   127    1
    15   126   128    1
    16   127   129    1
    17   119   120    1
    18   134   135    1
    19   135   136    1
    20   135   137    1
    21   120   121    1
    22   149   151   ar
    23   149   147   ar
    24   151   150   ar
    25   147   146    1
    26   147   148   ar
    27   112   113   ar
    28   112   110   ar
    29   150   148   ar
    30   146   143    1
    31   113   111   ar
    32    95    94    2
    33    94    93    1
    34   110   108   ar
    35   138   139    1
    36    87    86    2
    37    91    89    1
    38   143   142    1
    39   143   144    1
    40    89    90    1
    41    89    88    1
    42    86    85    1
    43   111   109   ar
    44   139   140    1
    45    92    93    1
    46    93    96    1
    47    16    14    1
    48   103   104    1
    49    83    82    1
    50    82    81    1
    51   108   109   ar
    52   108   107    1
    53    79    78    2
    54   144   145    2
    55   144   152   am
    56     8     7    1
    57    88    85    1
    58    15    14    1
    59    85    84    1
    60    81    80    1
    61   140   141    2
    62     1     2    1
    63    80    77    1
    64    96    97    1
    65    14    13    1
    66   104   107    1
    67   104   105    1
    68    78    77    1
    69   152   153    1
    70     7     6    1
    71    77    76    1
    72     5     2    1
    73     5     6    1
    74     2     3    1
    75    13    10    1
    76   105   106    2
    77    97    98    1
    78   153   154    1
    79   153   156    1
    80   101   100    1
    81    76    70   am
    82    67    65    1
    83   100   102    1
    84   100    99    2
    85    71    70    2
    86     3     4    2
    87   154   155    2
    88   156   157    1
    89    98    99    1
    90    65    66    1
    91    65    64    1
    92    10     9    1
    93    10    11    1
    94    70    69    1
    95    63    62    2
    96   158   157    1
    97    62    61    1
    98   157   159    1
    99    11    12    2
   100    11    17   am
   101    64    61    1
   102    31    29    1
   103    69    72    1
   104    69    68    1
   105    17    18    1
   106    72    73    1
   107    23    21    1
   108    61    60    1
   109    29    28    1
   110    29    30    1
   111    18    21    1
   112    18    19    1
   113    28    25    1
   114    45    43   ar
   115    21    22    1
   116    60    48   am
   117    73    74    1
   118    73    75    1
   119    36    33    1
   120    44    43   ar
   121    49    48    2
   122    59    58   ar
   123    59    57   ar
   124    43    42    1
   125    32    33    1
   126    32    26   am
   127    48    47    1
   128    58    56   ar
   129    19    20    2
   130    57    55   ar
   131    33    34    1
   132    25    24    1
   133    25    26    1
   134    26    27    2
   135    56    53   ar
   136    55    53   ar
   137    55    54   ar
   138    53    51   ar
   139    54    52   ar
   140    42    41    1
   141    46    47    1
   142    47    50    1
   143    34    35    2
   144    51    52   ar
   145    51    50    1
   146    41    38    1
   147    38    37    1
   148    38    39    1
   149    39    40    2
