@<TRIPOS>MOLECULE
tmp/5u2bA00.pdb
 182 169 0 0 0
SMALL
GASTEIGER

@<TRIPOS>ATOM
      1  N         23.9270    5.0340   20.7240 N.3    43  MET43      -0.1245
      2  CA        23.7990    5.9580   19.6020 C.3    43  MET43       0.1570
      3  C         24.1860    5.2820   18.2940 C.2    43  MET43       0.2261
      4  O         23.5290    5.4780   17.2660 O.2    43  MET43      -0.2867
      5  CB        24.6590    7.2010   19.8370 C.3    43  MET43       0.0387
      6  CG        24.0960    8.1610   20.8710 C.3    43  MET43       0.0595
      7  SD        25.2690    9.4360   21.3740 S.3    43  MET43      -0.1393
      8  CE        25.4510   10.3620   19.8520 C.3    43  MET43       0.0692
      9  N         21.1760    2.6990   17.1380 N.3    46  LEU46      -0.1231
     10  CA        19.9290    3.2640   16.6300 C.3    46  LEU46       0.1693
     11  C         20.1330    3.9470   15.2840 C.2    46  LEU46       0.2592
     12  O         19.2780    3.8470   14.3960 O.2    46  LEU46      -0.2718
     13  CB        19.3420    4.2420   17.6460 C.3    46  LEU46       0.0284
     14  CG        18.9630    3.6510   19.0050 C.3    46  LEU46       0.0019
     15  CD1       18.1580    4.6500   19.8160 C.3    46  LEU46       0.0001
     16  CD2       18.1950    2.3500   18.8330 C.3    46  LEU46       0.0001
     17  N         21.2560    4.6440   15.1110 N.am   47  THR47      -0.1953
     18  CA        21.5270    5.2940   13.8360 C.3    47  THR47       0.1897
     19  C         21.9350    4.2920   12.7630 C.2    47  THR47       0.2313
     20  O         21.6850    4.5270   11.5760 O.2    47  THR47      -0.2863
     21  CB        22.6090    6.3600   14.0080 C.3    47  THR47       0.1794
     22  OG1       23.8480    5.7340   14.3630 O.3    47  THR47      -0.2208
     23  CG2       22.2090    7.3350   15.1060 C.3    47  THR47       0.0378
     24  N         20.6270    1.2220   12.8110 N.3    49  LEU49      -0.1231
     25  CA        19.3430    0.5860   12.5370 C.3    49  LEU49       0.1693
     26  C         18.4500    1.4850   11.6900 C.2    49  LEU49       0.2591
     27  O         17.7440    1.0030   10.7970 O.2    49  LEU49      -0.2718
     28  CB        18.6540    0.2230   13.8510 C.3    49  LEU49       0.0284
     29  CG        17.2230   -0.3090   13.7680 C.3    49  LEU49       0.0019
     30  CD1       17.1620   -1.5740   12.9270 C.3    49  LEU49       0.0001
     31  CD2       16.6850   -0.5640   15.1620 C.3    49  LEU49       0.0001
     32  N         18.4690    2.7940   11.9540 N.am   50  ALA50      -0.1980
     33  CA        17.6330    3.7140   11.1890 C.3    50  ALA50       0.1597
     34  C         18.0830    3.7940    9.7360 C.2    50  ALA50       0.2287
     35  O         17.2500    3.8910    8.8270 O.2    50  ALA50      -0.2864
     36  CB        17.6470    5.1000   11.8320 C.3    50  ALA50       0.0319
     37  N         16.9460    0.6780    7.8820 N.3    53  GLU53      -0.1245
     38  CA        15.5160    0.7330    7.6010 C.3    53  GLU53       0.1567
     39  C         15.1860    1.7910    6.5560 C.2    53  GLU53       0.2260
     40  O         14.1710    1.6720    5.8610 O.2    53  GLU53      -0.2867
     41  CB        14.7230    1.0010    8.8820 C.3    53  GLU53       0.0388
     42  CG        14.8140   -0.1030    9.9230 C.3    53  GLU53       0.1160
     43  CD        13.6840   -0.0470   10.9360 C.2    53  GLU53       0.3649
     44  OE1       13.1270   -1.1150   11.2650 O.co2  53  GLU53      -0.2457
     45  OE2       13.3490    1.0650   11.3950 O.co2  53  GLU53      -0.2457
     46  N         10.3300   10.4710    6.4810 N.3    83  TRP83      -0.1227
     47  CA        11.1490    9.2970    6.7780 C.3    83  TRP83       0.1737
     48  C         11.1830    8.9960    8.2720 C.2    83  TRP83       0.2595
     49  O         11.1030    7.8310    8.6780 O.2    83  TRP83      -0.2718
     50  CB        12.5660    9.4870    6.2370 C.3    83  TRP83       0.0564
     51  CG        13.3660   10.5200    6.9650 C.ar   83  TRP83       0.0003
     52  CD1       13.4360   11.8520    6.6830 C.ar   83  TRP83       0.0946
     53  CD2       14.2160   10.3040    8.0970 C.ar   83  TRP83       0.0152
     54  NE1       14.2750   12.4800    7.5710 N.ar   83  TRP83      -0.2442
     55  CE2       14.7660   11.5510    8.4500 C.ar   83  TRP83       0.0810
     56  CE3       14.5600    9.1770    8.8500 C.ar   83  TRP83       0.0012
     57  CZ2       15.6450   11.7020    9.5200 C.ar   83  TRP83       0.0191
     58  CZ3       15.4310    9.3290    9.9110 C.ar   83  TRP83       0.0001
     59  CH2       15.9640   10.5820   10.2360 C.ar   83  TRP83       0.0015
     60  N         11.2890   10.0300    9.1090 N.am   84  LEU84      -0.1980
     61  CA        11.3260    9.7900   10.5460 C.3    84  LEU84       0.1596
     62  C          9.9380    9.4830   11.0940 C.2    84  LEU84       0.2287
     63  O          9.8000    8.6750   12.0190 O.2    84  LEU84      -0.2864
     64  CB        11.9400   10.9880   11.2690 C.3    84  LEU84       0.0297
     65  CG        12.2180   10.7850   12.7590 C.3    84  LEU84       0.0022
     66  CD1       12.9320    9.4600   12.9950 C.3    84  LEU84       0.0001
     67  CD2       13.0400   11.9370   13.3090 C.3    84  LEU84       0.0001
     68  N          9.5700    5.8110   10.4490 N.3    87  LEU87      -0.1231
     69  CA        10.3450    4.9990   11.3830 C.3    87  LEU87       0.1693
     70  C          9.6720    4.9330   12.7480 C.2    87  LEU87       0.2591
     71  O          9.6880    3.8870   13.4080 O.2    87  LEU87      -0.2718
     72  CB        11.7620    5.5560   11.5210 C.3    87  LEU87       0.0284
     73  CG        12.7080    5.4600   10.3240 C.3    87  LEU87       0.0019
     74  CD1       14.0820    5.9900   10.7000 C.3    87  LEU87       0.0001
     75  CD2       12.8010    4.0280    9.8270 C.3    87  LEU87       0.0001
     76  N          9.0670    6.0390   13.1850 N.am   88  MET88      -0.1979
     77  CA         8.5100    6.0930   14.5310 C.3    88  MET88       0.1605
     78  C          7.1430    5.4250   14.6140 C.2    88  MET88       0.2287
     79  O          6.8140    4.8190   15.6400 O.2    88  MET88      -0.2864
     80  CB         8.4250    7.5410   15.0090 C.3    88  MET88       0.0413
     81  CG         9.7730    8.2310   15.1280 C.3    88  MET88       0.0598
     82  SD         9.6110    9.8890   15.8040 S.3    88  MET88      -0.1393
     83  CE         8.0230   10.3450   15.1210 C.3    88  MET88       0.0692
     84  N          7.9190    1.8450   15.0040 N.3    91  LEU91      -0.1245
     85  CA         8.4210    1.5050   16.3310 C.3    91  LEU91       0.1561
     86  C          7.2930    1.4200   17.3520 C.2    91  LEU91       0.2260
     87  O          7.2400    0.4750   18.1480 O.2    91  LEU91      -0.2867
     88  CB         9.4650    2.5300   16.7720 C.3    91  LEU91       0.0270
     89  CG         9.8620    2.5020   18.2490 C.3    91  LEU91       0.0019
     90  CD1       10.5310    1.1850   18.6090 C.3    91  LEU91       0.0001
     91  CD2       10.7670    3.6760   18.5770 C.3    91  LEU91       0.0001
     92  N          5.3540   -1.7590   16.7730 N.3    94  ARG94      -0.1245
     93  CA         6.0500   -2.9480   17.2500 C.3    94  ARG94       0.1563
     94  C          6.0590   -3.0480   18.7680 C.2    94  ARG94       0.2260
     95  O          6.2570   -4.1450   19.3020 O.2    94  ARG94      -0.2867
     96  CB         7.4910   -2.9650   16.7330 C.3    94  ARG94       0.0307
     97  CG         7.6210   -3.0600   15.2240 C.3    94  ARG94       0.0489
     98  CD         9.0730   -3.2330   14.7980 C.3    94  ARG94       0.2205
     99  NE         9.9170   -2.1010   15.1670 N.pl3  94  ARG94      -0.0865
    100  CZ        10.1380   -1.0500   14.3830 C.cat  94  ARG94       0.5346
    101  NH1        9.5700   -0.9830   13.1880 N.pl3  94  ARG94       0.1354
    102  NH2       10.9250   -0.0660   14.7940 N.pl3  94  ARG94       0.1354
    103  N         13.0020   -1.6240   19.1690 N.3   104  PHE104     -0.1241
    104  CA        13.6400   -1.1440   17.9490 C.3   104  PHE104      0.1605
    105  C         13.9530   -2.2890   16.9940 C.2   104  PHE104      0.2264
    106  O         13.8780   -2.1160   15.7720 O.2   104  PHE104     -0.2867
    107  CB        14.9140   -0.3720   18.2920 C.3   104  PHE104      0.0534
    108  CG        14.6670    0.9110   19.0340 C.ar  104  PHE104     -0.0203
    109  CD1       14.5670    2.1130   18.3520 C.ar  104  PHE104     -0.0042
    110  CD2       14.5340    0.9160   20.4120 C.ar  104  PHE104     -0.0042
    111  CE1       14.3400    3.2940   19.0310 C.ar  104  PHE104     -0.0003
    112  CE2       14.3060    2.0940   21.0960 C.ar  104  PHE104     -0.0003
    113  CZ        14.2090    3.2850   20.4050 C.ar  104  PHE104     -0.0000
    114  N         21.5010    8.1250   26.4400 N.3   118  VAL118     -0.1245
    115  CA        21.6720    9.0760   25.3530 C.3   118  VAL118      0.1561
    116  C         21.0290   10.3780   25.8170 C.2   118  VAL118      0.2260
    117  O         19.7990   10.5070   25.8410 O.2   118  VAL118     -0.2867
    118  CB        21.0620    8.5490   24.0490 C.3   118  VAL118      0.0252
    119  CG1       21.0020    9.6270   22.9740 C.3   118  VAL118      0.0019
    120  CG2       21.8680    7.3520   23.5630 C.3   118  VAL118      0.0019
    121  N         17.4840   12.2250   24.9260 N.3   121  MET121     -0.1245
    122  CA        16.5250   11.3040   24.3290 C.3   121  MET121      0.1570
    123  C         15.3580   10.9950   25.2570 C.2   121  MET121      0.2261
    124  O         14.3380   10.4680   24.7960 O.2   121  MET121     -0.2867
    125  CB        17.2270    9.9990   23.9240 C.3   121  MET121      0.0387
    126  CG        16.3520    9.0160   23.1520 C.3   121  MET121      0.0595
    127  SD        17.1420    8.3380   21.6830 S.3   121  MET121     -0.1393
    128  CE        18.2890    7.1760   22.4100 C.3   121  MET121      0.0692
    129  N         11.9780   12.3260   24.1350 N.3   124  ILE124     -0.1245
    130  CA        11.4430   11.6550   22.9550 C.3   124  ILE124      0.1561
    131  C         10.9980   10.2390   23.2990 C.2   124  ILE124      0.2260
    132  O          9.9980    9.7400   22.7670 O.2   124  ILE124     -0.2867
    133  CB        12.4910   11.6690   21.8270 C.3   124  ILE124      0.0252
    134  CG1       12.8060   13.1110   21.4250 C.3   124  ILE124      0.0019
    135  CG2       12.0080   10.8640   20.6280 C.3   124  ILE124      0.0019
    136  CD1       14.1930   13.3000   20.8550 C.3   124  ILE124      0.0001
    137  N          7.2240    8.4900   22.6380 N.3   128  LEU128     -0.1245
    138  CA         7.0540    7.2780   21.8420 C.3   128  LEU128      0.1561
    139  C          6.3270    6.1990   22.6330 C.2   128  LEU128      0.2260
    140  O          5.4690    5.4920   22.0920 O.2   128  LEU128     -0.2867
    141  CB         8.4140    6.7680   21.3660 C.3   128  LEU128      0.0270
    142  CG         9.1240    7.5740   20.2760 C.3   128  LEU128      0.0019
    143  CD1       10.5500    7.0820   20.0930 C.3   128  LEU128      0.0001
    144  CD2        8.3550    7.4840   18.9680 C.3   128  LEU128      0.0001
    145  N         12.5390   14.7300   17.2560 N.3   220  GLY220     -0.1225
    146  CA        13.6150   13.8000   16.9680 C.3   220  GLY220      0.1811
    147  C         14.5230   14.2680   15.8510 C.2   220  GLY220      0.2280
    148  O         15.6900   13.8740   15.7900 O.2   220  GLY220     -0.2866
    149  N         16.8380   17.0600   17.6920 N.3   223  HIS223     -0.1226
    150  CA        17.7910   16.4360   18.6040 C.3   223  HIS223      0.1752
    151  C         18.8590   15.6630   17.8420 C.2   223  HIS223      0.2595
    152  O         20.0440   15.7200   18.1910 O.2   223  HIS223     -0.2718
    153  CB        17.0580   15.5190   19.5830 C.3   223  HIS223      0.0759
    154  CG        17.9620   14.5870   20.3270 C.ar  223  HIS223      0.0818
    155  ND1       18.0210   13.2370   20.0580 N.ar  223  HIS223     -0.2268
    156  CD2       18.8490   14.8110   21.3260 C.ar  223  HIS223      0.1154
    157  CE1       18.9020   12.6680   20.8620 C.ar  223  HIS223      0.1986
    158  NE2       19.4180   13.6010   21.6410 N.ar  223  HIS223     -0.2212
    159  N         18.4570   14.9360   16.7960 N.am  224  LEU224     -0.1980
    160  CA        19.4280   14.2400   15.9580 C.3   224  LEU224      0.1596
    161  C         20.3920   15.2230   15.3050 C.2   224  LEU224      0.2287
    162  O         21.5860   14.9320   15.1630 O.2   224  LEU224     -0.2864
    163  CB        18.6990   13.4110   14.9000 C.3   224  LEU224      0.0297
    164  CG        19.5240   12.6460   13.8630 C.3   224  LEU224      0.0022
    165  CD1       20.3660   11.5670   14.5160 C.3   224  LEU224      0.0001
    166  CD2       18.6120   12.0480   12.8020 C.3   224  LEU224      0.0001
    167  N         22.7660   16.3430   17.8300 N.3   227  MET227     -0.1245
    168  CA        23.6010   15.2050   18.1850 C.3   227  MET227      0.1570
    169  C         24.5850   14.8190   17.0990 C.2   227  MET227      0.2261
    170  O         25.4110   13.9290   17.3220 O.2   227  MET227     -0.2867
    171  CB        22.7300   13.9990   18.5290 C.3   227  MET227      0.0387
    172  CG        22.2540   14.0590   19.9580 C.3   227  MET227      0.0595
    173  SD        23.6670   14.4550   21.0130 S.3   227  MET227     -0.1393
    174  CE        22.8670   15.0210   22.5310 C.3   227  MET227      0.0692
    175  N         26.4840    8.3490   11.8350 N.3   230  LEU230     -0.1245
    176  CA        25.4180    8.7790   10.9390 C.3   230  LEU230      0.1561
    177  C         25.8370    8.6210    9.4810 C.2   230  LEU230      0.2260
    178  O         26.7550    9.2940    9.0170 O.2   230  LEU230     -0.2867
    179  CB        25.0270   10.2290   11.2170 C.3   230  LEU230      0.0270
    180  CG        24.5360   10.5510   12.6280 C.3   230  LEU230      0.0019
    181  CD1       24.4250   12.0490   12.8280 C.3   230  LEU230      0.0001
    182  CD2       23.2030    9.8890   12.8760 C.3   230  LEU230      0.0001
@<TRIPOS>BOND
     1    40    39    2
     2    50    47    1
     3    50    51    1
     4    46    47    1
     5    39    38    1
     6    52    51   ar
     7    52    54   ar
     8    47    48    1
     9    51    53   ar
    10    54    55   ar
    11    38    37    1
    12    38    41    1
    13    53    55   ar
    14    53    56   ar
    15    48    49    2
    16    48    60   am
    17    55    57   ar
    18    35    34    2
    19    56    58   ar
    20    41    42    1
    21   178   177    2
    22    60    61    1
    23   177   176    1
    24    57    59   ar
    25    34    33    1
    26    75    73    1
    27    58    59   ar
    28    42    43    1
    29    73    74    1
    30    73    72    1
    31    68    69    1
    32    61    62    1
    33    61    64    1
    34    27    26    2
    35    43    44   ar
    36    43    45   ar
    37   176   179    1
    38   176   175    1
    39    62    63    2
    40    33    36    1
    41    33    32    1
    42   179   180    1
    43    64    65    1
    44    69    72    1
    45    69    70    1
    46    20    19    2
    47    26    32   am
    48    26    25    1
    49    25    24    1
    50    25    28    1
    51   180   181    1
    52   180   182    1
    53    70    76   am
    54    70    71    2
    55    65    66    1
    56    65    67    1
    57    19    18    1
    58   166   164    1
    59    30    29    1
    60    76    77    1
    61   101   100    1
    62    29    28    1
    63    29    31    1
    64    18    21    1
    65    18    17    1
    66   164   165    1
    67   164   163    1
    68    21    22    1
    69    21    23    1
    70   100   102    1
    71   100    99    2
    72    12    11    2
    73    77    78    1
    74    77    80    1
    75    78    79    2
    76    98    99    1
    77    98    97    1
    78   163   160    1
    79    84    85    1
    80    80    81    1
    81    17    11   am
    82    83    82    1
    83    81    82    1
    84   162   161    2
    85    97    96    1
    86    11    10    1
    87   161   160    1
    88   106   105    2
    89   148   147    2
    90   147   146    1
    91   160   159    1
    92    85    88    1
    93    85    86    1
    94    10     9    1
    95    10    13    1
    96    96    93    1
    97    88    89    1
    98    92    93    1
    99   159   151   am
   100   146   145    1
   101   105   104    1
   102   169   170    2
   103   169   168    1
   104    93    94    1
   105     4     3    2
   106    86    87    2
   107    13    14    1
   108   149   150    1
   109   167   168    1
   110   151   152    2
   111   151   150    1
   112   104   107    1
   113   104   103    1
   114   168   171    1
   115    89    91    1
   116    89    90    1
   117   107   108    1
   118     3     2    1
   119   109   111   ar
   120   109   108   ar
   121   171   172    1
   122   150   153    1
   123    94    95    2
   124    16    14    1
   125   144   142    1
   126    14    15    1
   127   111   113   ar
   128   108   110   ar
   129   153   154    1
   130     2     5    1
   131     2     1    1
   132     5     6    1
   133     8     7    1
   134   172   173    1
   135   155   154   ar
   136   155   157   ar
   137   143   142    1
   138   142   141    1
   139   154   156   ar
   140   113   112   ar
   141   110   112   ar
   142   135   133    1
   143   136   134    1
   144   157   158   ar
   145     6     7    1
   146   173   174    1
   147   156   158   ar
   148   141   138    1
   149   134   133    1
   150   127   128    1
   151   127   126    1
   152   133   130    1
   153   138   139    1
   154   138   137    1
   155   140   139    2
   156   132   131    2
   157   130   131    1
   158   130   129    1
   159   119   118    1
   160   126   125    1
   161   120   118    1
   162   125   122    1
   163   118   115    1
   164   122   121    1
   165   122   123    1
   166   124   123    2
   167   115   116    1
   168   115   114    1
   169   116   117    2
