@<TRIPOS>MOLECULE
tmp/5u2cA00.pdb
 127 124 0 0 0
SMALL
GASTEIGER

@<TRIPOS>ATOM
      1  N          1.0590   40.5420    9.2860 N.3    36  TRP36      -0.1228
      2  CA         0.9710   40.3080   10.7270 C.3    36  TRP36       0.1722
      3  C         -0.4480   40.3010   11.2980 C.2    36  TRP36       0.2437
      4  O         -0.7170   39.5810   12.2590 O.2    36  TRP36      -0.2733
      5  CB         1.8250   41.3340   11.4790 C.3    36  TRP36       0.0563
      6  CG         1.3900   42.7670   11.3350 C.ar   36  TRP36       0.0003
      7  CD1        1.8580   43.6770   10.4340 C.ar   36  TRP36       0.0946
      8  CD2        0.4150   43.4570   12.1310 C.ar   36  TRP36       0.0152
      9  NE1        1.2360   44.8880   10.6140 N.ar   36  TRP36      -0.2442
     10  CE2        0.3450   44.7800   11.6470 C.ar   36  TRP36       0.0810
     11  CE3       -0.4070   43.0820   13.1980 C.ar   36  TRP36       0.0012
     12  CZ2       -0.5160   45.7290   12.1980 C.ar   36  TRP36       0.0191
     13  CZ3       -1.2590   44.0280   13.7410 C.ar   36  TRP36       0.0001
     14  CH2       -1.3070   45.3340   13.2410 C.ar   36  TRP36       0.0015
     15  N         -1.3620   41.1040   10.7250 N.am   37  PRO37      -0.2718
     16  CA        -2.7060   41.0150   11.3070 C.3    37  PRO37       0.1535
     17  C         -3.3540   39.6600   11.0610 C.2    37  PRO37       0.2598
     18  O         -4.1180   39.1790   11.8960 O.2    37  PRO37      -0.2715
     19  CB        -3.4790   42.1190   10.5750 C.3    37  PRO37       0.0310
     20  CG        -2.4340   43.0390   10.0250 C.3    37  PRO37       0.0237
     21  CD        -1.2690   42.1570    9.6970 C.3    37  PRO37       0.0939
     22  N         -2.9940   39.0310    9.9480 N.am   38  PHE38      -0.1974
     23  CA        -3.6640   37.8210    9.5010 C.3    38  PHE38       0.1639
     24  C         -2.9560   36.5690    9.9960 C.2    38  PHE38       0.2290
     25  O         -3.3130   35.4560    9.6130 O.2    38  PHE38      -0.2864
     26  CB        -3.7520   37.8040    7.9710 C.3    38  PHE38       0.0560
     27  CG        -4.2630   39.0890    7.3730 C.ar   38  PHE38      -0.0200
     28  CD1       -5.6220   39.2900    7.1760 C.ar   38  PHE38      -0.0042
     29  CD2       -3.3820   40.0990    7.0070 C.ar   38  PHE38      -0.0042
     30  CE1       -6.0940   40.4730    6.6200 C.ar   38  PHE38      -0.0003
     31  CE2       -3.8460   41.2840    6.4540 C.ar   38  PHE38      -0.0003
     32  CZ        -5.2030   41.4730    6.2600 C.ar   38  PHE38      -0.0000
     33  N         -2.8630   35.4450   13.1830 N.3    40  LYS40      -0.1245
     34  CA        -3.7400   34.7430   14.1090 C.3    40  LYS40       0.1561
     35  C         -5.1750   35.2370   13.9820 C.2    40  LYS40       0.2260
     36  O         -5.4180   36.3330   13.4700 O.2    40  LYS40      -0.2867
     37  CB        -3.2370   34.9040   15.5440 C.3    40  LYS40       0.0271
     38  CG        -1.9800   34.0960   15.8220 C.3    40  LYS40       0.0035
     39  CD        -1.8720   33.6980   17.2830 C.3    40  LYS40       0.0206
     40  CE        -0.6720   32.7910   17.5110 C.3    40  LYS40       0.1093
     41  NZ        -0.4350   32.5170   18.9560 N.3    40  LYS40      -0.1314
     42  N         -8.8320   36.8150   14.4720 N.3    42  VAL42      -0.1231
     43  CA        -9.1760   38.1390   14.9710 C.3    42  VAL42       0.1692
     44  C         -9.7830   38.0490   16.3650 C.2    42  VAL42       0.2592
     45  O        -10.7240   37.2860   16.5930 O.2    42  VAL42      -0.2718
     46  CB       -10.1730   38.8580   14.0340 C.3    42  VAL42       0.0266
     47  CG1      -10.5770   40.2070   14.6060 C.3    42  VAL42       0.0020
     48  CG2       -9.5810   39.0100   12.6370 C.3    42  VAL42       0.0020
     49  N         -9.2360   38.8190   17.3000 N.am   43  ASP43      -0.1974
     50  CA        -9.7820   38.8620   18.6500 C.3    43  ASP43       0.1709
     51  C        -10.8720   39.9210   18.6880 C.2    43  ASP43       0.2293
     52  O        -10.6140   41.0810   19.0060 O.2    43  ASP43      -0.2864
     53  CB        -8.6910   39.1670   19.6810 C.3    43  ASP43       0.1436
     54  CG        -9.1370   38.8930   21.1110 C.2    43  ASP43       0.3671
     55  OD1      -10.3580   38.9100   21.3790 O.co2  43  ASP43      -0.2456
     56  OD2       -8.2630   38.6630   21.9750 O.co2  43  ASP43      -0.2456
     57  N        -10.2160   43.4230   20.0750 N.3    47  LEU47      -0.1245
     58  CA       -10.3670   44.3620   18.9720 C.3    47  LEU47       0.1561
     59  C        -11.7210   45.0620   19.0420 C.2    47  LEU47       0.2260
     60  O        -11.9750   46.0060   18.2960 O.2    47  LEU47      -0.2867
     61  CB       -10.1890   43.6510   17.6230 C.3    47  LEU47       0.0270
     62  CG        -8.7730   43.1870   17.2420 C.3    47  LEU47       0.0019
     63  CD1       -8.1050   42.3750   18.3420 C.3    47  LEU47       0.0001
     64  CD2       -8.7890   42.4000   15.9400 C.3    47  LEU47       0.0001
     65  N        -14.5180   44.1580   18.0870 N.3    49  LEU49      -0.1245
     66  CA       -15.2900   43.9960   16.8630 C.3    49  LEU49       0.1561
     67  C        -16.6650   43.4250   17.1830 C.2    49  LEU49       0.2260
     68  O        -16.9000   42.2200   17.0770 O.2    49  LEU49      -0.2867
     69  CB       -14.5370   43.1040   15.8740 C.3    49  LEU49       0.0270
     70  CG       -13.1270   43.6310   15.5860 C.3    49  LEU49       0.0019
     71  CD1      -12.4330   42.8310   14.4930 C.3    49  LEU49       0.0001
     72  CD2      -13.1750   45.1120   15.2300 C.3    49  LEU49       0.0001
     73  N        -18.4830   41.6750   14.1040 N.3    52  TYR52      -0.1241
     74  CA       -17.6960   40.8030   13.2290 C.3    52  TYR52       0.1605
     75  C        -18.2810   39.3930   13.1870 C.2    52  TYR52       0.2264
     76  O        -18.1420   38.6840   12.1910 O.2    52  TYR52      -0.2867
     77  CB       -16.2330   40.7560   13.6800 C.3    52  TYR52       0.0534
     78  CG       -15.2970   40.1200   12.6700 C.ar   52  TYR52      -0.0201
     79  CD1      -14.6470   40.8950   11.7180 C.ar   52  TYR52      -0.0009
     80  CD2      -15.0630   38.7520   12.6650 C.ar   52  TYR52      -0.0009
     81  CE1      -13.7900   40.3250   10.7910 C.ar   52  TYR52       0.0417
     82  CE2      -14.2060   38.1730   11.7410 C.ar   52  TYR52       0.0417
     83  CZ       -13.5730   38.9640   10.8070 C.ar   52  TYR52       0.1957
     84  OH       -12.7240   38.3910    9.8880 O.3    52  TYR52      -0.2866
     85  N        -11.9770   40.4630    5.2140 N.3    91  CYS91      -0.1235
     86  CA       -11.3720   41.7860    5.3260 C.3    91  CYS91       0.1677
     87  C        -12.1260   42.7440    4.4140 C.2    91  CYS91       0.2270
     88  O        -12.3560   43.9050    4.7550 O.2    91  CYS91      -0.2867
     89  CB        -9.8840   41.7370    4.9640 C.3    91  CYS91       0.0956
     90  SG        -9.0010   43.3040    5.1550 S.3    91  CYS91      -0.0801
     91  N        -16.0910   42.8800    5.7980 N.3    94  TYR94      -0.1227
     92  CA       -16.3410   43.5920    7.0450 C.3    94  TYR94       0.1736
     93  C        -16.1080   45.0910    6.9060 C.2    94  TYR94       0.2595
     94  O        -16.9540   45.8950    7.2890 O.2    94  TYR94      -0.2718
     95  CB       -15.4620   43.0300    8.1650 C.3    94  TYR94       0.0548
     96  CG       -15.7390   43.6300    9.5260 C.ar   94  TYR94      -0.0200
     97  CD1      -16.7200   43.1090   10.3570 C.ar   94  TYR94      -0.0009
     98  CD2      -15.0140   44.7220    9.9780 C.ar   94  TYR94      -0.0009
     99  CE1      -16.9700   43.6630   11.6020 C.ar   94  TYR94       0.0417
    100  CE2      -15.2560   45.2810   11.2170 C.ar   94  TYR94       0.0417
    101  CZ       -16.2340   44.7490   12.0260 C.ar   94  TYR94       0.1957
    102  OH       -16.4740   45.3070   13.2610 O.3    94  TYR94      -0.2866
    103  N        -14.9560   45.4630    6.3600 N.am   95  ASN95      -0.1974
    104  CA       -14.5450   46.8620    6.3470 C.3    95  ASN95       0.1688
    105  C        -14.7640   47.6140    5.0420 C.2    95  ASN95       0.2292
    106  O        -14.9790   47.0090    3.9900 O.2    95  ASN95      -0.2864
    107  CB       -13.0770   46.9640    6.7490 C.3    95  ASN95       0.1181
    108  CG       -12.8180   46.3600    8.1000 C.2    95  ASN95       0.2629
    109  OD1      -13.1420   46.9630    9.1210 O.2    95  ASN95      -0.2716
    110  ND2      -12.2330   45.1680    8.1230 N.am   95  ASN95      -0.0877
    111  N        -10.0390   51.5540    3.8040 N.3    99  HIS99      -0.1241
    112  CA        -9.3830   51.2110    5.0610 C.3    99  HIS99       0.1621
    113  C         -7.9930   50.6320    4.8150 C.2    99  HIS99       0.2264
    114  O         -7.7200   50.0730    3.7520 O.2    99  HIS99      -0.2867
    115  CB       -10.2260   50.2210    5.8680 C.3    99  HIS99       0.0745
    116  CG        -9.7890   50.0820    7.2930 C.ar   99  HIS99       0.0817
    117  ND1       -8.7000   49.3230    7.6630 N.ar   99  HIS99      -0.2268
    118  CD2      -10.2880   50.6050    8.4380 C.ar   99  HIS99       0.1154
    119  CE1       -8.5450   49.3860    8.9730 C.ar   99  HIS99       0.1986
    120  NE2       -9.4970   50.1560    9.4680 N.ar   99  HIS99      -0.2212
    121  N         -6.4630   48.1150    6.4610 N.3   101  VAL101     -0.1245
    122  CA        -6.3850   46.6640    6.6020 C.3   101  VAL101      0.1561
    123  C         -6.7130   46.0000    5.2660 C.2   101  VAL101      0.2260
    124  O         -6.2080   44.9180    4.9570 O.2   101  VAL101     -0.2867
    125  CB        -7.3390   46.1510    7.6950 C.3   101  VAL101      0.0252
    126  CG1       -8.7880   46.3560    7.2740 C.3   101  VAL101      0.0019
    127  CG2       -7.0750   44.6860    7.9880 C.3   101  VAL101      0.0019
@<TRIPOS>BOND
     1   114   113    2
     2   111   112    1
     3   106   105    2
     4    87    88    2
     5    87    86    1
     6   113   112    1
     7   124   123    2
     8    89    90    1
     9    89    86    1
    10   105   104    1
    11   112   115    1
    12    85    86    1
    13   123   122    1
    14    91    92    1
    15   115   116    1
    16    32    31   ar
    17    32    30   ar
    18   104   103    1
    19   104   107    1
    20   103    93   am
    21    31    29   ar
    22   121   122    1
    23   122   125    1
    24    30    28   ar
    25   107   108    1
    26    93    92    1
    27    93    94    2
    28    29    27   ar
    29    92    95    1
    30    28    27   ar
    31   126   125    1
    32   116   117   ar
    33   116   118   ar
    34    27    26    1
    35   117   119   ar
    36   125   127    1
    37    26    23    1
    38   108   110   am
    39   108   109    2
    40    95    96    1
    41   118   120   ar
    42   119   120   ar
    43     1     2    1
    44    23    22    1
    45    23    24    1
    46    96    98   ar
    47    96    97   ar
    48    25    24    2
    49    21    20    1
    50    21    15    1
    51    84    83    1
    52    22    17   am
    53    98   100   ar
    54    20    19    1
    55    97    99   ar
    56     7     9   ar
    57     7     6   ar
    58    19    16    1
    59     9    10   ar
    60    15     3   am
    61    15    16    1
    62     2     3    1
    63     2     5    1
    64    81    83   ar
    65    81    79   ar
    66    83    82   ar
    67    17    16    1
    68    17    18    2
    69   100   101   ar
    70     3     4    2
    71     6     5    1
    72     6     8   ar
    73    99   101   ar
    74    10     8   ar
    75    10    12   ar
    76    79    78   ar
    77    82    80   ar
    78   101   102    1
    79     8    11   ar
    80    76    75    2
    81    12    14   ar
    82    48    46    1
    83    80    78   ar
    84    78    77    1
    85    33    34    1
    86    75    74    1
    87    11    13   ar
    88    74    77    1
    89    74    73    1
    90    14    13   ar
    91    36    35    2
    92    35    34    1
    93    46    47    1
    94    46    43    1
    95    34    37    1
    96    42    43    1
    97    71    70    1
    98    43    44    1
    99    72    70    1
   100    37    38    1
   101    70    69    1
   102    38    39    1
   103    69    66    1
   104    64    62    1
   105    44    45    2
   106    44    49   am
   107    66    67    1
   108    66    65    1
   109    68    67    2
   110    62    61    1
   111    62    63    1
   112    39    40    1
   113    49    50    1
   114    40    41    1
   115    61    58    1
   116    60    59    2
   117    50    51    1
   118    50    53    1
   119    51    52    2
   120    58    59    1
   121    58    57    1
   122    53    54    1
   123    54    55   ar
   124    54    56   ar
