@<TRIPOS>MOLECULE
tmp/5u2eB00.pdb
 142 140 0 0 0
SMALL
GASTEIGER

@<TRIPOS>ATOM
      1  N          6.0700   -6.1740  -23.3580 N.3    41  TRP41      -0.1228
      2  CA         7.5280   -6.1360  -23.3000 C.3    41  TRP41       0.1722
      3  C          8.1600   -4.7700  -23.5850 C.2    41  TRP41       0.2437
      4  O          9.1930   -4.4730  -22.9600 O.2    41  TRP41      -0.2733
      5  CB         8.1080   -7.2060  -24.2390 C.3    41  TRP41       0.0563
      6  CG         7.5410   -7.2100  -25.6320 C.ar   41  TRP41       0.0003
      7  CD1        6.3480   -7.7390  -26.0340 C.ar   41  TRP41       0.0946
      8  CD2        8.1510   -6.6670  -26.8040 C.ar   41  TRP41       0.0152
      9  NE1        6.1770   -7.5540  -27.3830 N.ar   41  TRP41      -0.2442
     10  CE2        7.2680   -6.8950  -27.8790 C.ar   41  TRP41       0.0810
     11  CE3        9.3600   -6.0100  -27.0530 C.ar   41  TRP41       0.0012
     12  CZ2        7.5600   -6.4930  -29.1780 C.ar   41  TRP41       0.0191
     13  CZ3        9.6400   -5.6080  -28.3410 C.ar   41  TRP41       0.0001
     14  CH2        8.7460   -5.8500  -29.3860 C.ar   41  TRP41       0.0015
     15  N          7.6490   -3.9170  -24.4810 N.am   42  PRO42      -0.2718
     16  CA         8.2830   -2.5940  -24.6370 C.3    42  PRO42       0.1535
     17  C          8.2110   -1.7520  -23.3750 C.2    42  PRO42       0.2598
     18  O          9.0220   -0.8310  -23.2060 O.2    42  PRO42      -0.2715
     19  CB         7.4840   -1.9350  -25.7790 C.3    42  PRO42       0.0310
     20  CG         6.8280   -3.0480  -26.4800 C.3    42  PRO42       0.0237
     21  CD         6.4850   -4.0320  -25.3850 C.3    42  PRO42       0.0939
     22  N          7.2850   -2.0710  -22.4700 N.am   43  PHE43      -0.1974
     23  CA         6.9870   -1.2770  -21.2860 C.3    43  PHE43       0.1639
     24  C          7.4140   -1.9560  -19.9860 C.2    43  PHE43       0.2290
     25  O          7.1360   -1.4290  -18.9070 O.2    43  PHE43      -0.2864
     26  CB         5.4940   -0.9700  -21.2750 C.3    43  PHE43       0.0560
     27  CG         5.0260   -0.3310  -22.5380 C.ar   43  PHE43      -0.0200
     28  CD1        5.3320    1.0030  -22.8000 C.ar   43  PHE43      -0.0042
     29  CD2        4.3220   -1.0570  -23.4830 C.ar   43  PHE43      -0.0042
     30  CE1        4.9320    1.6100  -24.0030 C.ar   43  PHE43      -0.0003
     31  CE2        3.9240   -0.4720  -24.6660 C.ar   43  PHE43      -0.0003
     32  CZ         4.2340    0.8600  -24.9360 C.ar   43  PHE43      -0.0000
     33  N         10.5520   -2.3460  -19.0160 N.3    45  GLN45      -0.1231
     34  CA        11.8070   -1.7870  -18.5310 C.3    45  GLN45       0.1683
     35  C         11.9340   -0.3700  -19.0660 C.2    45  GLN45       0.2434
     36  O         11.2220    0.0030  -20.0040 O.2    45  GLN45      -0.2733
     37  CB        13.0110   -2.6440  -18.9680 C.3    45  GLN45       0.0380
     38  CG        13.2050   -2.7370  -20.4690 C.3    45  GLN45       0.0905
     39  CD        12.1130   -3.5320  -21.1500 C.2    45  GLN45       0.2608
     40  OE1       11.8310   -4.6770  -20.7780 O.2    45  GLN45      -0.2717
     41  NE2       11.4750   -2.9270  -22.1440 N.am   45  GLN45      -0.0878
     42  N         12.8030    0.4480  -18.4800 N.am   46  PRO46      -0.2718
     43  CA        12.9740    1.8140  -18.9860 C.3    46  PRO46       0.1535
     44  C         13.2660    1.8230  -20.4800 C.2    46  PRO46       0.2598
     45  O         13.8810    0.9060  -21.0210 O.2    46  PRO46      -0.2715
     46  CB        14.1640    2.3390  -18.1820 C.3    46  PRO46       0.0310
     47  CG        14.0520    1.6180  -16.8950 C.3    46  PRO46       0.0237
     48  CD        13.5710    0.2360  -17.2400 C.3    46  PRO46       0.0939
     49  N         12.7860    2.8710  -21.1470 N.am   47  VAL47      -0.1964
     50  CA        13.0780    3.0770  -22.5580 C.3    47  VAL47       0.1727
     51  C         14.5620    3.3550  -22.7230 C.2    47  VAL47       0.2616
     52  O         15.1100    4.2710  -22.0960 O.2    47  VAL47      -0.2715
     53  CB        12.2300    4.2320  -23.1100 C.3    47  VAL47       0.0290
     54  CG1       12.6400    4.5680  -24.5310 C.3    47  VAL47       0.0023
     55  CG2       10.7470    3.8790  -23.0180 C.3    47  VAL47       0.0023
     56  N         15.2240    2.5600  -23.5620 N.am   48  ASP48      -0.1971
     57  CA        16.6260    2.7880  -23.9000 C.3    48  ASP48       0.1709
     58  C         16.6480    3.6400  -25.1610 C.2    48  ASP48       0.2293
     59  O         16.6900    3.1320  -26.2810 O.2    48  ASP48      -0.2864
     60  CB        17.3680    1.4700  -24.0900 C.3    48  ASP48       0.1436
     61  CG        18.8680    1.6570  -24.1930 C.2    48  ASP48       0.3671
     62  OD1       19.3010    2.6840  -24.7500 O.co2  48  ASP48      -0.2456
     63  OD2       19.6140    0.7810  -23.7090 O.co2  48  ASP48      -0.2456
     64  N         19.7840    3.1750  -27.6310 N.3    51  LYS51      -0.1231
     65  CA        19.7930    1.9760  -28.4610 C.3    51  LYS51       0.1693
     66  C         18.6690    2.0050  -29.4860 C.2    51  LYS51       0.2591
     67  O         18.8570    1.5940  -30.6390 O.2    51  LYS51      -0.2718
     68  CB        19.6900    0.7430  -27.5710 C.3    51  LYS51       0.0285
     69  CG        19.0000   -0.4290  -28.2190 C.3    51  LYS51       0.0035
     70  CD        18.8020   -1.5270  -27.1950 C.3    51  LYS51       0.0206
     71  CE        18.0530   -2.7180  -27.7670 C.3    51  LYS51       0.1093
     72  NZ        17.9250   -3.7990  -26.7510 N.3    51  LYS51      -0.1314
     73  N         17.4950    2.4940  -29.0880 N.am   52  LEU52      -0.1980
     74  CA        16.3610    2.6180  -29.9930 C.3    52  LEU52       0.1596
     75  C         16.5010    3.7950  -30.9550 C.2    52  LEU52       0.2287
     76  O         15.7130    3.8950  -31.9080 O.2    52  LEU52      -0.2864
     77  CB        15.0700    2.7510  -29.1710 C.3    52  LEU52       0.0297
     78  CG        14.7030    1.5170  -28.3280 C.3    52  LEU52       0.0022
     79  CD1       13.5010    1.8050  -27.4180 C.3    52  LEU52       0.0001
     80  CD2       14.4220    0.3320  -29.2300 C.3    52  LEU52       0.0001
     81  N         16.2040    7.2340  -30.4160 N.3    54  LEU54      -0.1245
     82  CA        15.0270    8.0570  -30.1760 C.3    54  LEU54       0.1561
     83  C         15.4520    9.5140  -30.0240 C.2    54  LEU54       0.2260
     84  O         15.9270    9.9040  -28.9430 O.2    54  LEU54      -0.2867
     85  CB        14.2890    7.5820  -28.9170 C.3    54  LEU54       0.0270
     86  CG        13.1280    6.6050  -29.1270 C.3    54  LEU54       0.0019
     87  CD1       13.3880    5.6540  -30.2730 C.3    54  LEU54       0.0001
     88  CD2       12.8130    5.8470  -27.8430 C.3    54  LEU54       0.0001
     89  N         14.4650   12.1730  -26.9060 N.3    57  TYR57      -0.1241
     90  CA        13.4740   11.5010  -26.0720 C.3    57  TYR57       0.1605
     91  C         13.4280   12.0910  -24.6710 C.2    57  TYR57       0.2264
     92  O         12.3490   12.3510  -24.1350 O.2    57  TYR57      -0.2867
     93  CB        13.7560    9.9960  -25.9990 C.3    57  TYR57       0.0534
     94  CG        12.6500    9.2760  -25.2810 C.ar   57  TYR57      -0.0201
     95  CD1       11.4970    8.9120  -25.9580 C.ar   57  TYR57      -0.0009
     96  CD2       12.7350    9.0000  -23.9250 C.ar   57  TYR57      -0.0009
     97  CE1       10.4630    8.2690  -25.3160 C.ar   57  TYR57       0.0417
     98  CE2       11.6990    8.3490  -23.2630 C.ar   57  TYR57       0.0417
     99  CZ        10.5630    7.9860  -23.9600 C.ar   57  TYR57       0.1957
    100  OH         9.5170    7.3350  -23.3070 O.3    57  TYR57      -0.2866
    101  N          4.1210    7.7490  -24.3660 N.3    96  CYS96      -0.1235
    102  CA         4.0560    7.1350  -25.6820 C.3    96  CYS96       0.1677
    103  C          3.2640    8.0040  -26.6490 C.2    96  CYS96       0.2270
    104  O          3.7070    8.2780  -27.7760 O.2    96  CYS96      -0.2867
    105  CB         3.4320    5.7440  -25.5540 C.3    96  CYS96       0.0956
    106  SG         3.7010    4.7160  -27.0050 S.3    96  CYS96      -0.0801
    107  N          5.1380   11.1730  -27.8140 N.3    99  TYR99      -0.1227
    108  CA         6.3700   11.0570  -28.5740 C.3    99  TYR99       0.1736
    109  C          6.1740   10.5180  -29.9920 C.2    99  TYR99       0.2595
    110  O          7.0500   10.7440  -30.8410 O.2    99  TYR99      -0.2718
    111  CB         7.3650   10.1850  -27.7960 C.3    99  TYR99       0.0548
    112  CG         8.7290   10.1980  -28.3890 C.ar   99  TYR99      -0.0200
    113  CD1        9.5120   11.3420  -28.3190 C.ar   99  TYR99      -0.0009
    114  CD2        9.2500    9.0740  -29.0460 C.ar   99  TYR99      -0.0009
    115  CE1       10.7690   11.3760  -28.8800 C.ar   99  TYR99       0.0417
    116  CE2       10.5100    9.1130  -29.6190 C.ar   99  TYR99       0.0417
    117  CZ        11.2620   10.2600  -29.5400 C.ar   99  TYR99       0.1957
    118  OH        12.5160   10.3150  -30.1220 O.3    99  TYR99      -0.2866
    119  N          5.0550    9.8390  -30.2850 N.am  100  ASN100     -0.1974
    120  CA         4.9120    9.0520  -31.5110 C.3   100  ASN100      0.1688
    121  C          3.6570    9.4460  -32.2700 C.2   100  ASN100      0.2292
    122  O          2.6850    9.9280  -31.6850 O.2   100  ASN100     -0.2864
    123  CB         4.8410    7.5340  -31.2290 C.3   100  ASN100      0.1181
    124  CG         6.0000    7.0400  -30.4220 C.2   100  ASN100      0.2629
    125  OD1        7.0420    6.6940  -30.9760 O.2   100  ASN100     -0.2716
    126  ND2        5.8300    6.9800  -29.1100 N.am  100  ASN100     -0.0877
    127  N          0.6450    4.6850  -34.7670 N.3   104  ASP104     -0.1239
    128  CA         1.8520    3.9010  -34.9630 C.3   104  ASP104      0.1674
    129  C          1.7870    2.6240  -34.1290 C.2   104  ASP104      0.2266
    130  O          1.0090    2.5210  -33.1810 O.2   104  ASP104     -0.2867
    131  CB         3.0870    4.7010  -34.5850 C.3   104  ASP104      0.1410
    132  CG         3.6550    5.4880  -35.7610 C.2   104  ASP104      0.3668
    133  OD1        2.9550    5.6280  -36.7880 O.co2 104  ASP104     -0.2456
    134  OD2        4.8020    5.9650  -35.6500 O.co2 104  ASP104     -0.2456
    135  N          3.7950    1.1810  -31.8630 N.3   106  ILE106     -0.1245
    136  CA         4.0340    1.3050  -30.4270 C.3   106  ILE106      0.1561
    137  C          2.8370    1.9670  -29.7440 C.2   106  ILE106      0.2260
    138  O          2.4890    1.6300  -28.5980 O.2   106  ILE106     -0.2867
    139  CB         5.3540    2.0680  -30.1490 C.3   106  ILE106      0.0252
    140  CG1        5.7600    1.8860  -28.6780 C.3   106  ILE106      0.0019
    141  CG2        5.2340    3.5910  -30.4740 C.3   106  ILE106      0.0019
    142  CD1        6.0380    0.4320  -28.2940 C.3   106  ILE106      0.0001
@<TRIPOS>BOND
     1   133   132   ar
     2   132   134   ar
     3   132   131    1
     4   128   127    1
     5   128   131    1
     6   128   129    1
     7   129   130    2
     8   121   122    2
     9   121   120    1
    10    76    75    2
    11   135   136    1
    12   120   123    1
    13   120   119    1
    14   123   124    1
    15   125   124    2
    16    75    74    1
    17   110   109    2
    18    67    66    2
    19   141   139    1
    20   136   139    1
    21   136   137    1
    22   124   126   am
    23    81    82    1
    24   119   109   am
    25    87    86    1
    26    82    83    1
    27    82    85    1
    28   139   140    1
    29   118   117    1
    30    83    84    2
    31    74    77    1
    32    74    73    1
    33   109   108    1
    34   137   138    2
    35   116   117   ar
    36   116   114   ar
    37   117   115   ar
    38    66    73   am
    39    66    65    1
    40    14    12   ar
    41    14    13   ar
    42    80    78    1
    43    12    10   ar
    44    77    78    1
    45    86    85    1
    46    86    88    1
    47   114   112   ar
    48   115   113   ar
    49   140   142    1
    50   108   107    1
    51   108   111    1
    52    65    64    1
    53    65    68    1
    54   112   113   ar
    55   112   111    1
    56    13    11   ar
    57    78    79    1
    58    69    68    1
    59    69    70    1
    60    10     9   ar
    61    10     8   ar
    62   104   103    2
    63    71    70    1
    64    71    72    1
    65     9     7   ar
    66    11     8   ar
    67   106   105    1
    68    89    90    1
    69     8     6   ar
    70   103   102    1
    71    20    19    1
    72    20    21    1
    73    59    58    2
    74    90    93    1
    75    90    91    1
    76     7     6   ar
    77    93    94    1
    78    95    97   ar
    79    95    94   ar
    80    19    16    1
    81   102   105    1
    82   102   101    1
    83     6     5    1
    84    21    15    1
    85    97    99   ar
    86    94    96   ar
    87    58    57    1
    88    32    31   ar
    89    32    30   ar
    90    62    61   ar
    91    91    92    2
    92    31    29   ar
    93    16    15    1
    94    16    17    1
    95    54    53    1
    96    15     3   am
    97     5     2    1
    98    61    60    1
    99    61    63   ar
   100    60    57    1
   101    30    28   ar
   102    99   100    1
   103    99    98   ar
   104    96    98   ar
   105    57    56    1
   106     3     2    1
   107     3     4    2
   108    56    51   am
   109    29    27   ar
   110    17    18    2
   111    17    22   am
   112     1     2    1
   113    53    55    1
   114    53    50    1
   115    28    27   ar
   116    51    50    1
   117    51    52    2
   118    50    49    1
   119    27    26    1
   120    22    23    1
   121    41    39   am
   122    23    26    1
   123    23    24    1
   124    39    40    2
   125    39    38    1
   126    49    44   am
   127    45    44    2
   128    44    43    1
   129    38    37    1
   130    36    35    2
   131    24    25    2
   132    35    34    1
   133    35    42   am
   134    33    34    1
   135    43    42    1
   136    43    46    1
   137    37    34    1
   138    42    48    1
   139    46    47    1
   140    48    47    1
