@<TRIPOS>MOLECULE
tmp/5u2fB00.pdb
 135 131 0 0 0
SMALL
GASTEIGER

@<TRIPOS>ATOM
      1  N          1.2820    6.3470   32.1320 N.3    41  TRP41      -0.1228
      2  CA         1.0970    6.4000   33.5790 C.3    41  TRP41       0.1722
      3  C          0.7410    5.0600   34.2230 C.2    41  TRP41       0.2437
      4  O          1.2280    4.8080   35.3390 O.2    41  TRP41      -0.2733
      5  CB         0.0570    7.4760   33.9270 C.3    41  TRP41       0.0563
      6  CG        -1.3730    7.0330   33.9050 C.ar   41  TRP41       0.0003
      7  CD1       -2.0760    6.4730   34.9350 C.ar   41  TRP41       0.0946
      8  CD2       -2.2850    7.1330   32.8050 C.ar   41  TRP41       0.0152
      9  NE1       -3.3630    6.2040   34.5390 N.ar   41  TRP41      -0.2442
     10  CE2       -3.5170    6.5980   33.2360 C.ar   41  TRP41       0.0810
     11  CE3       -2.1750    7.6080   31.4940 C.ar   41  TRP41       0.0012
     12  CZ2       -4.6340    6.5360   32.4050 C.ar   41  TRP41       0.0191
     13  CZ3       -3.2840    7.5410   30.6700 C.ar   41  TRP41       0.0001
     14  CH2       -4.4980    7.0120   31.1290 C.ar   41  TRP41       0.0015
     15  N         -0.0610    4.1680   33.6210 N.am   42  PRO42      -0.2718
     16  CA        -0.3470    2.8980   34.3070 C.3    42  PRO42       0.1535
     17  C          0.8490    1.9760   34.3890 C.2    42  PRO42       0.2598
     18  O          0.7900    0.9830   35.1260 O.2    42  PRO42      -0.2715
     19  CB        -1.4610    2.2710   33.4540 C.3    42  PRO42       0.0310
     20  CG        -1.9760    3.3650   32.6070 C.3    42  PRO42       0.0237
     21  CD        -0.7880    4.2260   32.3400 C.3    42  PRO42       0.0939
     22  N          1.9270    2.2700   33.6620 N.am   43  PHE43      -0.1974
     23  CA         3.1010    1.4100   33.6150 C.3    43  PHE43       0.1639
     24  C          4.3360    2.0730   34.2130 C.2    43  PHE43       0.2290
     25  O          5.4460    1.5670   34.0240 O.2    43  PHE43      -0.2864
     26  CB         3.3730    0.9800   32.1700 C.3    43  PHE43       0.0560
     27  CG         2.1750    0.3930   31.4810 C.ar   43  PHE43      -0.0200
     28  CD1        1.8640   -0.9480   31.6310 C.ar   43  PHE43      -0.0042
     29  CD2        1.3570    1.1820   30.6880 C.ar   43  PHE43      -0.0042
     30  CE1        0.7620   -1.4960   31.0010 C.ar   43  PHE43      -0.0003
     31  CE2        0.2520    0.6410   30.0570 C.ar   43  PHE43      -0.0003
     32  CZ        -0.0450   -0.6990   30.2130 C.ar   43  PHE43      -0.0000
     33  N          4.8660    2.3880   37.4590 N.3    45  GLN45      -0.1245
     34  CA         5.0560    1.8780   38.8090 C.3    45  GLN45       0.1566
     35  C          4.5260    0.4520   38.8580 C.2    45  GLN45       0.2260
     36  O          3.7040    0.0670   38.0180 O.2    45  GLN45      -0.2867
     37  CB         4.3450    2.7620   39.8490 C.3    45  GLN45       0.0367
     38  CG         2.8350    2.8500   39.6860 C.3    45  GLN45       0.0905
     39  CD         2.4200    3.7980   38.5810 C.2    45  GLN45       0.2608
     40  OE1        3.1160    4.7690   38.2870 O.2    45  GLN45      -0.2717
     41  NE2        1.2840    3.5180   37.9570 N.am   45  GLN45      -0.0878
     42  N          2.3980   -2.7650   39.3240 N.3    47  VAL47      -0.1231
     43  CA         0.9480   -2.9130   39.3450 C.3    47  VAL47       0.1692
     44  C          0.4900   -3.3050   40.7410 C.2    47  VAL47       0.2592
     45  O          1.0970   -4.1560   41.4040 O.2    47  VAL47      -0.2718
     46  CB         0.5000   -3.9490   38.3000 C.3    47  VAL47       0.0266
     47  CG1       -1.0030   -4.1610   38.3620 C.3    47  VAL47       0.0020
     48  CG2        0.9210   -3.5080   36.9050 C.3    47  VAL47       0.0020
     49  N         -0.5800   -2.6670   41.2030 N.am   48  ASP48      -0.1974
     50  CA        -1.1680   -2.9320   42.5120 C.3    48  ASP48       0.1709
     51  C         -2.4370   -3.7490   42.2850 C.2    48  ASP48       0.2293
     52  O         -3.5140   -3.1980   42.0510 O.2    48  ASP48      -0.2864
     53  CB        -1.4560   -1.6300   43.2540 C.3    48  ASP48       0.1436
     54  CG        -1.7780   -1.8450   44.7200 C.2    48  ASP48       0.3671
     55  OD1       -2.5500   -2.7740   45.0430 O.co2  48  ASP48      -0.2456
     56  OD2       -1.2520   -1.0800   45.5530 O.co2  48  ASP48      -0.2456
     57  N         -5.1250   -3.0720   45.2360 N.3    51  LYS51      -0.1231
     58  CA        -5.9210   -1.8580   45.1000 C.3    51  LYS51       0.1693
     59  C         -6.8130   -1.9000   43.8640 C.2    51  LYS51       0.2591
     60  O         -7.9170   -1.3420   43.8800 O.2    51  LYS51      -0.2718
     61  CB        -4.9870   -0.6460   45.0740 C.3    51  LYS51       0.0285
     62  CG        -5.5470    0.6040   44.4320 C.3    51  LYS51       0.0035
     63  CD        -4.5770    1.7600   44.5980 C.3    51  LYS51       0.0206
     64  CE        -4.7240    2.7740   43.4790 C.3    51  LYS51       0.1093
     65  NZ        -3.7290    3.8780   43.5700 N.3    51  LYS51      -0.1314
     66  N         -6.3730   -2.5700   42.8020 N.am   52  LEU52      -0.1980
     67  CA        -7.1540   -2.6790   41.5760 C.3    52  LEU52       0.1596
     68  C         -8.0710   -3.8960   41.5530 C.2    52  LEU52       0.2287
     69  O         -8.8060   -4.0730   40.5760 O.2    52  LEU52      -0.2864
     70  CB        -6.2230   -2.7200   40.3590 C.3    52  LEU52       0.0297
     71  CG        -5.3810   -1.4790   40.0570 C.3    52  LEU52       0.0022
     72  CD1       -4.4140   -1.7660   38.9180 C.3    52  LEU52       0.0001
     73  CD2       -6.2660   -0.2880   39.7230 C.3    52  LEU52       0.0001
     74  N         -7.3140   -7.1240   41.1880 N.3    54  LEU54      -0.1245
     75  CA        -6.9390   -7.9570   40.0550 C.3    54  LEU54       0.1561
     76  C         -6.8840   -9.4100   40.5060 C.2    54  LEU54       0.2260
     77  O         -6.0050   -9.7650   41.3070 O.2    54  LEU54      -0.2867
     78  CB        -5.6020   -7.5130   39.4830 C.3    54  LEU54       0.0270
     79  CG        -5.6310   -6.0800   38.9440 C.3    54  LEU54       0.0019
     80  CD1       -4.3320   -5.7300   38.2380 C.3    54  LEU54       0.0001
     81  CD2       -6.8280   -5.8680   38.0220 C.3    54  LEU54       0.0001
     82  N         -3.5320  -12.1140   40.1140 N.3    57  TYR57      -0.1241
     83  CA        -2.5880  -11.4530   39.2170 C.3    57  TYR57       0.1605
     84  C         -1.1830  -12.0120   39.3930 C.2    57  TYR57       0.2264
     85  O         -0.5230  -12.3850   38.4180 O.2    57  TYR57      -0.2867
     86  CB        -2.6030   -9.9420   39.4480 C.3    57  TYR57       0.0534
     87  CG        -1.6830   -9.1920   38.5120 C.ar   57  TYR57      -0.0201
     88  CD1       -2.0930   -8.8560   37.2290 C.ar   57  TYR57      -0.0009
     89  CD2       -0.4040   -8.8320   38.9070 C.ar   57  TYR57      -0.0009
     90  CE1       -1.2550   -8.1780   36.3630 C.ar   57  TYR57       0.0417
     91  CE2        0.4410   -8.1550   38.0500 C.ar   57  TYR57       0.0417
     92  CZ         0.0120   -7.8310   36.7790 C.ar   57  TYR57       0.1957
     93  OH         0.8550   -7.1550   35.9250 O.3    57  TYR57      -0.2866
     94  N          0.6430   -7.6580   30.3500 N.3    96  CYS96      -0.1235
     95  CA        -0.6620   -7.0440   30.1380 C.3    96  CYS96       0.1677
     96  C         -1.5100   -7.8760   29.1840 C.2    96  CYS96       0.2270
     97  O         -2.7320   -7.9660   29.3480 O.2    96  CYS96      -0.2867
     98  CB        -0.4890   -5.6200   29.6090 C.3    96  CYS96       0.0956
     99  SG        -2.0210   -4.6720   29.4760 S.3    96  CYS96      -0.0801
    100  N         -2.8330  -11.2930   30.7680 N.3    99  TYR99      -0.1227
    101  CA        -3.8020  -11.1230   31.8410 C.3    99  TYR99       0.1736
    102  C         -5.1230  -10.5080   31.3940 C.2    99  TYR99       0.2595
    103  O         -6.1210  -10.6510   32.1060 O.2    99  TYR99      -0.2718
    104  CB        -3.1960  -10.2580   32.9530 C.3    99  TYR99       0.0548
    105  CG        -3.9820  -10.2840   34.2380 C.ar   99  TYR99      -0.0200
    106  CD1       -3.8330  -11.3280   35.1390 C.ar   99  TYR99      -0.0009
    107  CD2       -4.8720   -9.2660   34.5520 C.ar   99  TYR99      -0.0009
    108  CE1       -4.5500  -11.3590   36.3100 C.ar   99  TYR99       0.0417
    109  CE2       -5.5950   -9.2890   35.7220 C.ar   99  TYR99       0.0417
    110  CZ        -5.4270  -10.3370   36.5970 C.ar   99  TYR99       0.1957
    111  OH        -6.1380  -10.3700   37.7640 O.3    99  TYR99      -0.2866
    112  N         -5.1710   -9.8420   30.2440 N.am  100  ASN100     -0.1974
    113  CA        -6.3320   -9.0500   29.8700 C.3   100  ASN100      0.1688
    114  C         -6.8970   -9.4940   28.5300 C.2   100  ASN100      0.2292
    115  O         -6.2220  -10.1420   27.7220 O.2   100  ASN100     -0.2864
    116  CB        -5.9870   -7.5630   29.8140 C.3   100  ASN100      0.1181
    117  CG        -5.6520   -7.0000   31.1680 C.2   100  ASN100      0.2629
    118  OD1       -4.4840   -6.8560   31.5180 O.2   100  ASN100     -0.2716
    119  ND2       -6.6800   -6.6910   31.9510 N.am  100  ASN100     -0.0877
    120  N         -9.0710   -4.5990   25.1840 N.3   104  ASP104     -0.1239
    121  CA        -9.3840   -3.7990   26.3550 C.3   104  ASP104      0.1674
    122  C         -8.5210   -2.5410   26.3790 C.2   104  ASP104      0.2266
    123  O         -7.4740   -2.4590   25.7280 O.2   104  ASP104     -0.2867
    124  CB        -9.1770   -4.6120   27.6330 C.3   104  ASP104      0.1410
    125  CG       -10.3840   -5.4660   27.9880 C.2   104  ASP104      0.3668
    126  OD1      -11.3020   -5.5960   27.1500 O.co2 104  ASP104     -0.2456
    127  OD2      -10.4110   -6.0120   29.1100 O.co2 104  ASP104     -0.2456
    128  N         -6.6080   -1.2080   28.6500 N.3   106  ILE106     -0.1245
    129  CA        -5.2440   -1.3910   29.1360 C.3   106  ILE106      0.1561
    130  C         -4.3890   -2.0950   28.0900 C.2   106  ILE106      0.2260
    131  O         -3.1700   -1.8890   28.0270 O.2   106  ILE106     -0.2867
    132  CB        -5.2620   -2.1500   30.4790 C.3   106  ILE106      0.0252
    133  CG1       -3.8750   -2.1450   31.1240 C.3   106  ILE106      0.0019
    134  CG2       -5.7670   -3.5720   30.2950 C.3   106  ILE106      0.0019
    135  CD1       -3.3670   -0.7650   31.4590 C.3   106  ILE106      0.0001
@<TRIPOS>BOND
     1   120   121    1
     2   123   122    2
     3   121   122    1
     4   121   124    1
     5   126   125   ar
     6   124   125    1
     7   115   114    2
     8   125   127   ar
     9   131   130    2
    10   130   129    1
    11   114   113    1
    12   128   129    1
    13   129   132    1
    14    96    97    2
    15    96    95    1
    16    99    98    1
    17    98    95    1
    18   116   113    1
    19   116   117    1
    20   113   112    1
    21    31    32   ar
    22    31    29   ar
    23    95    94    1
    24    32    30   ar
    25   112   102   am
    26   134   132    1
    27   132   133    1
    28    13    14   ar
    29    13    11   ar
    30    29    27   ar
    31   100   101    1
    32    30    28   ar
    33   133   135    1
    34    14    12   ar
    35   117   118    2
    36   117   119   am
    37   102   101    1
    38   102   103    2
    39    27    28   ar
    40    27    26    1
    41    11     8   ar
    42   101   104    1
    43     1     2    1
    44    26    23    1
    45    21    20    1
    46    21    15    1
    47    12    10   ar
    48    20    19    1
    49     8    10   ar
    50     8     6   ar
    51   104   105    1
    52    10     9   ar
    53    19    16    1
    54     2     5    1
    55     2     3    1
    56    23    22    1
    57    23    24    1
    58    15     3   am
    59    15    16    1
    60    22    17   am
    61     6     5    1
    62     6     7   ar
    63    25    24    2
    64     3     4    2
    65   105   107   ar
    66   105   106   ar
    67    16    17    1
    68    17    18    2
    69     9     7   ar
    70   107   109   ar
    71   106   108   ar
    72   109   110   ar
    73    93    92    1
    74   108   110   ar
    75    90    92   ar
    76    90    88   ar
    77   110   111    1
    78    92    91   ar
    79    48    46    1
    80    88    87   ar
    81    33    34    1
    82    41    39   am
    83    36    35    2
    84    81    79    1
    85    91    89   ar
    86    80    79    1
    87    40    39    2
    88    46    47    1
    89    46    43    1
    90    85    84    2
    91    87    89   ar
    92    87    86    1
    93    39    38    1
    94    34    35    1
    95    34    37    1
    96    72    71    1
    97    79    78    1
    98    83    84    1
    99    83    86    1
   100    83    82    1
   101    42    43    1
   102    43    44    1
   103    78    75    1
   104    38    37    1
   105    73    71    1
   106    75    76    1
   107    75    74    1
   108    71    70    1
   109    70    67    1
   110    76    77    2
   111    69    68    2
   112    44    49   am
   113    44    45    2
   114    49    50    1
   115    68    67    1
   116    67    66    1
   117    52    51    2
   118    51    50    1
   119    50    53    1
   120    66    59   am
   121    53    54    1
   122    64    65    1
   123    64    63    1
   124    59    60    2
   125    59    58    1
   126    62    63    1
   127    62    61    1
   128    54    55   ar
   129    54    56   ar
   130    61    58    1
   131    58    57    1
