@<TRIPOS>MOLECULE
tmp/5u2hB02.pdb
 120 113 0 0 0
SMALL
GASTEIGER

@<TRIPOS>ATOM
      1  N        177.1660  159.0580  139.2240 N.3   102  PRO102     -0.2102
      2  CA       176.6050  159.5280  140.5040 C.3   102  PRO102      0.1504
      3  C        175.2760  160.2450  140.3390 C.2   102  PRO102      0.2575
      4  O        174.3290  159.9740  141.0890 O.2   102  PRO102     -0.2718
      5  CB       177.7060  160.4520  141.0440 C.3   102  PRO102      0.0282
      6  CG       178.4670  160.8860  139.8350 C.3   102  PRO102      0.0208
      7  CD       178.4430  159.7140  138.8990 C.3   102  PRO102      0.0893
      8  N        175.1760  161.1560  139.3680 N.am  103  GLN103     -0.1980
      9  CA       173.9110  161.8430  139.1360 C.3   103  GLN103      0.1601
     10  C        172.8650  160.9070  138.5450 C.2   103  GLN103      0.2287
     11  O        171.6700  161.0670  138.8170 O.2   103  GLN103     -0.2864
     12  CB       174.1250  163.0480  138.2200 C.3   103  GLN103      0.0394
     13  CG       174.9980  164.1690  138.7800 C.3   103  GLN103      0.0908
     14  CD       174.4620  164.7230  140.0750 C.2   103  GLN103      0.2608
     15  OE1      173.2740  165.0950  140.1290 O.2   103  GLN103     -0.2717
     16  NE2      175.2260  164.6760  141.1210 N.am  103  GLN103     -0.0878
     17  N        170.4540  157.7140  137.9030 N.3   105  LYS105     -0.1245
     18  CA       169.6670  156.8890  138.8110 C.3   105  LYS105      0.1561
     19  C        169.4800  155.4680  138.2910 C.2   105  LYS105      0.2260
     20  O        168.5640  154.7650  138.7310 O.2   105  LYS105     -0.2867
     21  CB       168.3080  157.5390  139.0740 C.3   105  LYS105      0.0271
     22  CG       168.3780  158.9070  139.7150 C.3   105  LYS105      0.0035
     23  CD       169.0770  158.8370  141.0580 C.3   105  LYS105      0.0206
     24  CE       168.8180  160.0910  141.8740 C.3   105  LYS105      0.1093
     25  NZ       169.1160  161.2980  141.0560 N.3   105  LYS105     -0.1314
     26  N        162.0770  158.5670  136.3860 N.3   131  GLU131     -0.1245
     27  CA       161.4500  159.8700  136.5550 C.3   131  GLU131      0.1567
     28  C        162.1050  160.8870  135.6310 C.2   131  GLU131      0.2260
     29  O        163.3340  160.9610  135.5400 O.2   131  GLU131     -0.2867
     30  CB       161.5500  160.3300  138.0100 C.3   131  GLU131      0.0388
     31  CG       162.9670  160.5900  138.4960 C.3   131  GLU131      0.1160
     32  CD       163.0000  161.4170  139.7680 C.2   131  GLU131      0.3649
     33  OE1      162.0340  162.1710  140.0130 O.co2 131  GLU131     -0.2457
     34  OE2      163.9890  161.3140  140.5250 O.co2 131  GLU131     -0.2457
     35  N        163.5860  164.2520  134.2630 N.3   133  VAL133     -0.1245
     36  CA       164.3140  165.3450  134.8980 C.3   133  VAL133      0.1561
     37  C        163.6240  166.6680  134.5960 C.2   133  VAL133      0.2260
     38  O        164.0950  167.4510  133.7650 O.2   133  VAL133     -0.2867
     39  CB       165.7830  165.3760  134.4370 C.3   133  VAL133      0.0252
     40  CG1      166.5110  166.5500  135.0740 C.3   133  VAL133      0.0019
     41  CG2      166.4730  164.0640  134.7780 C.3   133  VAL133      0.0019
     42  N        162.2260  170.2870  136.2470 N.3   135  ASP135     -0.1239
     43  CA       162.3350  171.1630  137.4000 C.3   135  ASP135      0.1674
     44  C        160.9500  171.4560  137.9760 C.2   135  ASP135      0.2266
     45  O        159.9170  171.0520  137.4340 O.2   135  ASP135     -0.2867
     46  CB       163.0480  172.4610  137.0240 C.3   135  ASP135      0.1410
     47  CG       164.5050  172.2420  136.6670 C.2   135  ASP135      0.3668
     48  OD1      164.9520  171.0750  136.6760 O.co2 135  ASP135     -0.2456
     49  OD2      165.2040  173.2360  136.3780 O.co2 135  ASP135     -0.2456
     50  N        160.0770  176.3100  144.3540 N.3   208  GLN208     -0.1245
     51  CA       161.3250  175.5620  144.4040 C.3   208  GLN208      0.1566
     52  C        161.6200  174.9660  145.7740 C.2   208  GLN208      0.2260
     53  O        162.5400  174.1490  145.8900 O.2   208  GLN208     -0.2867
     54  CB       162.4960  176.4580  143.9800 C.3   208  GLN208      0.0367
     55  CG       163.8490  175.7490  143.9320 C.3   208  GLN208      0.0905
     56  CD       163.9030  174.6500  142.8800 C.2   208  GLN208      0.2608
     57  OE1      163.3570  174.7920  141.7840 O.2   208  GLN208     -0.2717
     58  NE2      164.5580  173.5440  143.2150 N.am  208  GLN208     -0.0878
     59  N        171.3670  176.1670  143.0370 N.3   248  TYR248     -0.1228
     60  CA       171.0690  175.0230  143.8900 C.3   248  TYR248      0.1721
     61  C        170.2710  175.4300  145.1260 C.2   248  TYR248      0.2437
     62  O        170.6470  175.0660  146.2480 O.2   248  TYR248     -0.2733
     63  CB       172.3660  174.3260  144.3090 C.3   248  TYR248      0.0547
     64  CG       173.3000  174.0140  143.1590 C.ar  248  TYR248     -0.0200
     65  CD1      172.8110  173.7860  141.8790 C.ar  248  TYR248     -0.0009
     66  CD2      174.6730  173.9520  143.3540 C.ar  248  TYR248     -0.0009
     67  CE1      173.6630  173.5040  140.8280 C.ar  248  TYR248      0.0417
     68  CE2      175.5330  173.6700  142.3100 C.ar  248  TYR248      0.0417
     69  CZ       175.0230  173.4470  141.0490 C.ar  248  TYR248      0.1957
     70  OH       175.8750  173.1660  140.0050 O.3   248  TYR248     -0.2866
     71  N        169.1700  176.1780  144.9740 N.am  249  PRO249     -0.2718
     72  CA       168.3580  176.5250  146.1460 C.3   249  PRO249      0.1535
     73  C        167.1660  175.5960  146.3170 C.2   249  PRO249      0.2599
     74  O        166.8660  174.7930  145.4280 O.2   249  PRO249     -0.2715
     75  CB       167.9100  177.9540  145.8320 C.3   249  PRO249      0.0310
     76  CG       167.7300  177.9290  144.3380 C.3   249  PRO249      0.0237
     77  CD       168.7240  176.9170  143.7790 C.3   249  PRO249      0.0939
     78  N        166.4810  175.6970  147.4490 N.am  250  GLY250     -0.1955
     79  CA       165.2660  174.9470  147.6760 C.3   250  GLY250      0.1869
     80  C        165.4950  173.7050  148.5240 C.2   250  GLY250      0.2309
     81  O        166.6000  173.1660  148.6170 O.2   250  GLY250     -0.2863
     82  N        164.0470  169.8640  149.0140 N.3   252  ASN252     -0.1240
     83  CA       163.2590  168.8080  148.3970 C.3   252  ASN252      0.1653
     84  C        163.8840  167.4610  148.7260 C.2   252  ASN252      0.2266
     85  O        165.0790  167.3610  149.0150 O.2   252  ASN252     -0.2867
     86  CB       163.1560  168.9930  146.8770 C.3   252  ASN252      0.1155
     87  CG       164.4910  168.8270  146.1790 C.2   252  ASN252      0.2627
     88  OD1      165.5450  169.0830  146.7610 O.2   252  ASN252     -0.2716
     89  ND2      164.4530  168.3980  144.9230 N.am  252  ASN252     -0.0877
     90  N        163.1100  162.8750  148.0090 N.3   254  ARG254     -0.1245
     91  CA       162.3790  161.8340  147.3020 C.3   254  ARG254      0.1563
     92  C        161.6450  160.9400  148.2940 C.2   254  ARG254      0.2260
     93  O        162.1940  160.5660  149.3340 O.2   254  ARG254     -0.2867
     94  CB       163.3230  160.9970  146.4370 C.3   254  ARG254      0.0307
     95  CG       163.8350  161.8060  145.2710 C.3   254  ARG254      0.0489
     96  CD       165.1530  161.2410  144.8210 C.3   254  ARG254      0.2205
     97  NE       165.6430  161.9990  143.6850 N.pl3 254  ARG254     -0.0865
     98  CZ       166.3420  163.1450  143.8200 C.cat 254  ARG254      0.5346
     99  NH1      166.6370  163.6630  144.9900 N.pl3 254  ARG254      0.1354
    100  NH2      166.7220  163.8100  142.7460 N.pl3 254  ARG254      0.1354
    101  N        158.7550  163.3370  143.9860 N.3   271  LYS271     -0.1196
    102  CA       159.7220  164.3600  144.3620 C.3   271  LYS271      0.1781
    103  C        158.9900  165.4710  145.1040 C.2   271  LYS271      0.2306
    104  O        158.1120  166.1320  144.5380 O.2   271  LYS271     -0.2863
    105  CB       160.4390  164.9100  143.1300 C.2   271  LYS271      0.0004
    106  CG       161.6200  165.6290  143.2320 C.2   271  LYS271     -0.0013
    107  CD       162.3140  165.8970  141.9310 C.2   271  LYS271      0.0192
    108  CE       163.6610  165.8040  141.7490 C.2   271  LYS271      0.1057
    109  NZ       164.3970  166.3580  140.6540 N.pl3 271  LYS271     -0.1266
    110  N        158.8580  168.9930  147.0880 N.3   273  PHE273     -0.1241
    111  CA       159.4180  170.3120  147.3440 C.3   273  PHE273      0.1605
    112  C        158.5450  171.0040  148.3810 C.2   273  PHE273      0.2264
    113  O        157.3280  171.1090  148.1970 O.2   273  PHE273     -0.2867
    114  CB       159.4750  171.1520  146.0660 C.3   273  PHE273      0.0534
    115  CG       159.9850  170.4070  144.8650 C.ar  273  PHE273     -0.0203
    116  CD1      159.1270  169.6430  144.0920 C.ar  273  PHE273     -0.0042
    117  CD2      161.3190  170.4840  144.5000 C.ar  273  PHE273     -0.0042
    118  CE1      159.5900  168.9600  142.9840 C.ar  273  PHE273     -0.0003
    119  CE2      161.7890  169.8030  143.3910 C.ar  273  PHE273     -0.0003
    120  CZ       160.9220  169.0400  142.6330 C.ar  273  PHE273     -0.0000
@<TRIPOS>BOND
     1    38    37    2
     2    35    36    1
     3    39    41    1
     4    39    36    1
     5    39    40    1
     6    37    36    1
     7    29    28    2
     8    28    27    1
     9    42    43    1
    10    49    47   ar
    11    26    27    1
    12    27    30    1
    13    47    48   ar
    14    47    46    1
    15    46    43    1
    16    43    44    1
    17    45    44    2
    18    17    18    1
    19    30    31    1
    20    12    13    1
    21    12     9    1
    22    19    20    2
    23    19    18    1
    24    31    32    1
    25    10    11    2
    26    10     9    1
    27    13    14    1
    28    18    21    1
    29     7     1    1
    30     7     6    1
    31    21    22    1
    32     9     8    1
    33     1     2    1
    34     8     3   am
    35    22    23    1
    36    32    33   ar
    37    32    34   ar
    38     6     5    1
    39    70    69    1
    40    14    15    2
    41    14    16   am
    42     3     2    1
    43     3     4    2
    44     2     5    1
    45   109   108    1
    46    67    69   ar
    47    67    65   ar
    48    69    68   ar
    49    25    24    1
    50    23    24    1
    51   108   107    2
    52    57    56    2
    53    65    64   ar
    54   107   106    1
    55    68    66   ar
    56   120   118   ar
    57   120   119   ar
    58   100    98    1
    59    56    58   am
    60    56    55    1
    61   118   116   ar
    62    59    60    1
    63   105   106    2
    64   105   102    1
    65    64    66   ar
    66    64    63    1
    67   119   117   ar
    68    97    98    2
    69    97    96    1
    70    77    76    1
    71    77    71    1
    72    98    99    1
    73    60    63    1
    74    60    61    1
    75    55    54    1
    76    54    51    1
    77   101   102    1
    78   116   115   ar
    79    76    75    1
    80    50    51    1
    81   102   103    1
    82    51    52    1
    83   117   115   ar
    84   104   103    2
    85    96    95    1
    86   115   114    1
    87    89    87   am
    88    71    61   am
    89    71    72    1
    90    61    62    2
    91    95    94    1
    92    74    73    2
    93    52    53    2
    94    75    72    1
    95   114   111    1
    96    72    73    1
    97    87    88    2
    98    87    86    1
    99    73    78   am
   100    94    91    1
   101    86    83    1
   102   110   111    1
   103    91    90    1
   104    91    92    1
   105   111   112    1
   106    78    79    1
   107    79    80    1
   108   113   112    2
   109    92    93    2
   110    83    84    1
   111    83    82    1
   112    80    81    2
   113    84    85    2
