@<TRIPOS>MOLECULE
tmp/5u2kA00.pdb
 79 75 0 0 0
SMALL
GASTEIGER

@<TRIPOS>ATOM
      1  N        -10.7870   36.7750   27.4940 N.3   110  TYR110     -0.1241
      2  CA       -11.8840   37.7370   27.6280 C.3   110  TYR110      0.1605
      3  C        -13.1510   37.2020   27.0140 C.2   110  TYR110      0.2264
      4  O        -13.2460   37.1000   25.8080 O.2   110  TYR110     -0.2867
      5  CB       -11.5040   39.0350   26.9280 C.3   110  TYR110      0.0534
      6  CG       -10.2180   39.6720   27.4330 C.ar  110  TYR110     -0.0201
      7  CD1       -9.8710   39.6750   28.7700 C.ar  110  TYR110     -0.0009
      8  CD2       -9.3930   40.3460   26.5480 C.ar  110  TYR110     -0.0009
      9  CE1       -8.7130   40.3050   29.2130 C.ar  110  TYR110      0.0417
     10  CE2       -8.2680   41.0120   26.9780 C.ar  110  TYR110      0.0417
     11  CZ        -7.8960   40.9650   28.2880 C.ar  110  TYR110      0.1957
     12  OH        -6.7540   41.6370   28.7240 O.3   110  TYR110     -0.2866
     13  N        -16.1720   38.7460   27.6700 N.3   112  ALA112     -0.1231
     14  CA       -17.1710   39.8030   27.7100 C.3   112  ALA112      0.1694
     15  C        -17.2000   40.6400   26.4690 C.2   112  ALA112      0.2592
     16  O        -16.1570   41.1380   26.0000 O.2   112  ALA112     -0.2718
     17  CB       -16.9280   40.7490   28.8770 C.3   112  ALA112      0.0304
     18  N        -18.4130   40.8210   25.9440 N.am  113  THR113     -0.1953
     19  CA       -18.6530   41.8850   24.9830 C.3   113  THR113      0.1897
     20  C        -19.6670   42.8720   25.5340 C.2   113  THR113      0.2313
     21  O        -20.5250   42.5280   26.3340 O.2   113  THR113     -0.2863
     22  CB       -19.1280   41.3870   23.6080 C.3   113  THR113      0.1794
     23  OG1      -20.4840   40.9320   23.6850 O.3   113  THR113     -0.2208
     24  CG2      -18.1830   40.3380   23.0190 C.3   113  THR113      0.0378
     25  N        -22.0460   47.6540   20.8040 N.3   116  LEU116     -0.1245
     26  CA       -21.3560   48.7410   20.1430 C.3   116  LEU116      0.1561
     27  C        -22.0780   50.0790   20.2920 C.2   116  LEU116      0.2260
     28  O        -21.4270   51.1240   20.4130 O.2   116  LEU116     -0.2867
     29  CB       -21.0840   48.4160   18.6660 C.3   116  LEU116      0.0270
     30  CG       -20.1520   47.2230   18.4250 C.3   116  LEU116      0.0019
     31  CD1      -20.0080   46.9840   16.9590 C.3   116  LEU116      0.0001
     32  CD2      -18.7830   47.3690   19.0910 C.3   116  LEU116      0.0001
     33  N        -10.1260   36.3700   22.5770 N.3   146  LEU146     -0.1231
     34  CA       -11.3510   37.1350   22.5470 C.3   146  LEU146      0.1678
     35  C        -12.6110   36.2650   22.6900 C.2   146  LEU146      0.2434
     36  O        -12.5470   35.0330   22.7290 O.2   146  LEU146     -0.2733
     37  CB       -11.3430   37.9780   21.2650 C.3   146  LEU146      0.0284
     38  CG       -10.1380   38.9910   21.1500 C.3   146  LEU146      0.0019
     39  CD1      -10.5510   40.0350   20.1860 C.3   146  LEU146      0.0001
     40  CD2       -9.5080   39.5110   22.4030 C.3   146  LEU146      0.0001
     41  N        -13.7780   36.9310   22.8930 N.am  147  PRO147     -0.2729
     42  CA       -14.9760   36.1710   23.2200 C.3   147  PRO147      0.1401
     43  C        -15.3510   35.1610   22.1540 C.2   147  PRO147      0.2269
     44  O        -15.2480   35.4000   20.9470 O.2   147  PRO147     -0.2865
     45  CB       -16.0520   37.2540   23.3420 C.3   147  PRO147      0.0296
     46  CG       -15.3090   38.4660   23.8100 C.3   147  PRO147      0.0237
     47  CD       -13.9810   38.3730   23.1170 C.3   147  PRO147      0.0939
     48  N         -8.5460   36.3390   17.5510 N.3   164  THR164     -0.1203
     49  CA        -9.8680   36.8560   17.1840 C.3   164  THR164      0.1994
     50  C        -10.7940   35.7670   16.6260 C.2   164  THR164      0.2617
     51  O        -12.0060   35.9470   16.5770 O.2   164  THR164     -0.2717
     52  CB        -9.7250   37.9370   16.1190 C.3   164  THR164      0.1784
     53  OG1       -9.0990   37.3830   14.9510 O.3   164  THR164     -0.2211
     54  CG2       -8.8810   39.0890   16.6390 C.3   164  THR164      0.0376
     55  N        -10.1910   34.6640   16.1970 N.am  165  LYS165     -0.1979
     56  CA       -10.8560   33.5740   15.5270 C.3   165  LYS165      0.1596
     57  C        -10.3240   32.2440   16.0490 C.2   165  LYS165      0.2287
     58  O         -9.2070   32.1510   16.5570 O.2   165  LYS165     -0.2864
     59  CB       -10.6080   33.6380   13.9970 C.3   165  LYS165      0.0298
     60  CG       -11.1860   34.8970   13.3300 C.3   165  LYS165      0.0038
     61  CD       -10.8090   34.9470   11.8520 C.3   165  LYS165      0.0206
     62  CE       -11.3230   36.1710   11.1270 C.3   165  LYS165      0.1093
     63  NZ       -10.9580   36.1440    9.6780 N.3   165  LYS165     -0.1314
     64  N         -4.0400   40.2010   13.7780 N.3   177  PRO177     -0.2116
     65  CA        -4.8060   39.1240   14.4070 C.3   177  PRO177      0.1372
     66  C         -4.0560   37.7930   14.2780 C.2   177  PRO177      0.2244
     67  O         -3.2230   37.6120   13.3750 O.2   177  PRO177     -0.2868
     68  CB        -6.1110   39.1050   13.6000 C.3   177  PRO177      0.0268
     69  CG        -5.7010   39.6150   12.2460 C.3   177  PRO177      0.0207
     70  CD        -4.5750   40.5750   12.4560 C.3   177  PRO177      0.0892
     71  N         -3.0140   34.2310   13.3200 N.3   179  LYS179     -0.1245
     72  CA        -3.2290   33.3890   12.1490 C.3   179  LYS179      0.1561
     73  C         -2.3380   32.1690   12.2130 C.2   179  LYS179      0.2260
     74  O         -1.2050   32.2490   12.6530 O.2   179  LYS179     -0.2867
     75  CB        -2.9070   34.1610   10.8600 C.3   179  LYS179      0.0271
     76  CG        -3.7500   35.3940   10.6170 C.3   179  LYS179      0.0035
     77  CD        -5.2350   35.0710   10.4800 C.3   179  LYS179      0.0206
     78  CE        -6.0250   36.2930   10.0340 C.3   179  LYS179      0.1093
     79  NZ        -7.4280   36.2540   10.5230 N.3   179  LYS179     -0.1314
@<TRIPOS>BOND
     1    63    62    1
     2    78    77    1
     3    78    79    1
     4    77    76    1
     5    76    75    1
     6    75    72    1
     7    62    61    1
     8    61    60    1
     9    72    73    1
    10    72    71    1
    11    73    74    2
    12    69    70    1
    13    69    68    1
    14    70    64    1
    15    60    59    1
    16    67    66    2
    17    68    65    1
    18    64    65    1
    19    59    56    1
    20    66    65    1
    21    53    52    1
    22    56    57    1
    23    56    55    1
    24    57    58    2
    25    52    54    1
    26    52    49    1
    27    55    50   am
    28    51    50    2
    29    50    49    1
    30    31    30    1
    31    49    48    1
    32    30    29    1
    33    30    32    1
    34    29    26    1
    35    26    27    1
    36    26    25    1
    37    39    38    1
    38    27    28    2
    39    44    43    2
    40    38    37    1
    41    38    40    1
    42    37    34    1
    43    43    42    1
    44    34    33    1
    45    34    35    1
    46    35    36    2
    47    35    41   am
    48    41    47    1
    49    41    42    1
    50    24    22    1
    51    47    46    1
    52    42    45    1
    53    45    46    1
    54    22    23    1
    55    22    19    1
    56    19    20    1
    57    19    18    1
    58    20    21    2
    59     4     3    2
    60    18    15   am
    61    16    15    2
    62    15    14    1
    63     8    10   ar
    64     8     6   ar
    65     5     6    1
    66     5     2    1
    67    10    11   ar
    68     3     2    1
    69     6     7   ar
    70     1     2    1
    71    13    14    1
    72    14    17    1
    73    11    12    1
    74    11     9   ar
    75     7     9   ar
