@<TRIPOS>MOLECULE
tmp/5u2mA00.pdb
 168 159 0 0 0
SMALL
GASTEIGER

@<TRIPOS>ATOM
      1  N         14.1030   -3.6820   -1.8260 N.3   168  TYR168     -0.1227
      2  CA        14.3640   -2.2450   -1.6420 C.3   168  TYR168      0.1736
      3  C         13.0770   -1.4720   -1.3320 C.2   168  TYR168      0.2595
      4  O         13.1180   -0.2510   -1.1310 O.2   168  TYR168     -0.2718
      5  CB        15.1030   -1.6560   -2.8960 C.3   168  TYR168      0.0548
      6  CG        16.5030   -2.2190   -3.0490 C.ar  168  TYR168     -0.0200
      7  CD1       16.7380   -3.3450   -3.8320 C.ar  168  TYR168     -0.0009
      8  CD2       17.5660   -1.7090   -2.3080 C.ar  168  TYR168     -0.0009
      9  CE1       18.0120   -3.9090   -3.9270 C.ar  168  TYR168      0.0417
     10  CE2       18.8480   -2.2610   -2.4000 C.ar  168  TYR168      0.0417
     11  CZ        19.0660   -3.3630   -3.2110 C.ar  168  TYR168      0.1957
     12  OH        20.3210   -3.9270   -3.2890 O.3   168  TYR168     -0.2866
     13  N         11.9380   -2.1810   -1.2510 N.am  169  LYS169     -0.1980
     14  CA        10.6260   -1.5640   -1.0820 C.3   169  LYS169      0.1596
     15  C         10.2280   -1.1690    0.3590 C.2   169  LYS169      0.2287
     16  O          9.2770   -0.4080    0.5140 O.2   169  LYS169     -0.2864
     17  CB         9.5350   -2.4510   -1.7090 C.3   169  LYS169      0.0298
     18  CG         9.5540   -2.3820   -3.2330 C.3   169  LYS169      0.0038
     19  CD         8.1710   -2.1560   -3.8230 C.3   169  LYS169      0.0206
     20  CE         8.2420   -1.9850   -5.3130 C.3   169  LYS169      0.1093
     21  NZ         8.6640   -0.6210   -5.7280 N.3   169  LYS169     -0.1314
     22  N         12.2610    0.4970    3.3910 N.3   171  HIS171     -0.1241
     23  CA        13.4920    1.1320    3.8370 C.3   171  HIS171      0.1621
     24  C         13.3890    1.5380    5.3220 C.2   171  HIS171      0.2264
     25  O         12.4100    2.1590    5.7550 O.2   171  HIS171     -0.2867
     26  CB        13.7880    2.3480    2.9330 C.3   171  HIS171      0.0745
     27  CG        15.2170    2.7960    2.9240 C.ar  171  HIS171      0.0817
     28  ND1       16.0630    2.4940    1.8680 N.ar  171  HIS171     -0.2268
     29  CD2       15.8950    3.5490    3.8250 C.ar  171  HIS171      0.1154
     30  CE1       17.2350    3.0390    2.1770 C.ar  171  HIS171      0.1986
     31  NE2       17.1790    3.6960    3.3390 N.ar  171  HIS171     -0.2212
     32  N         13.9890    3.7830    8.2610 N.3   173  PHE173     -0.1241
     33  CA        14.1040    5.2120    8.5980 C.3   173  PHE173      0.1605
     34  C         14.1540    5.3900   10.1420 C.2   173  PHE173      0.2264
     35  O         14.1070    6.5130   10.6200 O.2   173  PHE173     -0.2867
     36  CB        12.8450    5.9610    8.0830 C.3   173  PHE173      0.0534
     37  CG        12.7330    6.2820    6.6000 C.ar  173  PHE173     -0.0203
     38  CD1       11.8470    7.2580    6.1500 C.ar  173  PHE173     -0.0042
     39  CD2       13.5290    5.6250    5.6590 C.ar  173  PHE173     -0.0042
     40  CE1       11.7430    7.5620    4.7890 C.ar  173  PHE173     -0.0003
     41  CE2       13.4170    5.9190    4.2960 C.ar  173  PHE173     -0.0003
     42  CZ        12.5280    6.8920    3.8750 C.ar  173  PHE173     -0.0000
     43  N         16.4180    5.0800   12.7660 N.3   175  TYR175     -0.1227
     44  CA        17.5570    5.3930   13.6420 C.3   175  TYR175      0.1736
     45  C         17.1940    6.3590   14.8250 C.2   175  TYR175      0.2595
     46  O         17.4700    6.0520   15.9960 O.2   175  TYR175     -0.2718
     47  CB        18.7240    5.9370   12.7930 C.3   175  TYR175      0.0548
     48  CG        20.1230    5.7030   13.3390 C.ar  175  TYR175     -0.0200
     49  CD1       20.3290    5.3820   14.6800 C.ar  175  TYR175     -0.0009
     50  CD2       21.2410    5.8580   12.5280 C.ar  175  TYR175     -0.0009
     51  CE1       21.6100    5.2220   15.1980 C.ar  175  TYR175      0.0417
     52  CE2       22.5290    5.6860   13.0300 C.ar  175  TYR175      0.0417
     53  CZ        22.7100    5.3660   14.3650 C.ar  175  TYR175      0.1957
     54  OH        23.9790    5.1660   14.8430 O.3   175  TYR175     -0.2866
     55  N         16.5560    7.5010   14.5190 N.am  176  ARG176     -0.1980
     56  CA        16.2070    8.4720   15.5590 C.3   176  ARG176      0.1597
     57  C         15.0630    8.0420   16.4810 C.2   176  ARG176      0.2287
     58  O         14.9940    8.5590   17.6090 O.2   176  ARG176     -0.2864
     59  CB        15.8700    9.8360   14.9190 C.3   176  ARG176      0.0334
     60  CG        14.4570    9.9000   14.3210 C.3   176  ARG176      0.0492
     61  CD        14.2610   11.0360   13.3330 C.3   176  ARG176      0.2205
     62  NE        15.1790   10.9630   12.1890 N.pl3 176  ARG176     -0.0865
     63  CZ        15.1640   11.8300   11.1900 C.cat 176  ARG176      0.5346
     64  NH1       14.2370   12.7800   11.1410 N.pl3 176  ARG176      0.1354
     65  NH2       16.0480   11.7350   10.2150 N.pl3 176  ARG176      0.1354
     66  N         18.7390    3.2950    6.2540 N.3   199  ASP199     -0.1239
     67  CA        19.4240    4.5290    6.6020 C.3   199  ASP199      0.1674
     68  C         20.0000    4.3830    8.0080 C.2   199  ASP199      0.2266
     69  O         20.7300    5.2600    8.4890 O.2   199  ASP199     -0.2867
     70  CB        18.4810    5.7420    6.5000 C.3   199  ASP199      0.1410
     71  CG        18.6530    6.4930    5.2250 C.2   199  ASP199      0.3668
     72  OD1       18.6820    5.8480    4.1580 O.co2 199  ASP199     -0.2456
     73  OD2       18.7860    7.7140    5.2870 O.co2 199  ASP199     -0.2456
     74  N         21.7000    2.7010    0.5680 N.3   221  SER221     -0.1202
     75  CA        20.8790    3.9020    0.6050 C.3   221  SER221      0.2020
     76  C         21.1070    4.7790   -0.6060 C.2   221  SER221      0.2618
     77  O         22.0260    4.5330   -1.4060 O.2   221  SER221     -0.2717
     78  CB        21.0950    4.6870    1.8970 C.3   221  SER221      0.2103
     79  OG        20.1010    5.6910    2.0090 O.3   221  SER221     -0.2182
     80  N         20.2410    5.7880   -0.7490 N.am  222  VAL222     -0.1979
     81  CA        20.2910    6.7840   -1.8060 C.3   222  VAL222      0.1595
     82  C         20.2690    8.1930   -1.1900 C.2   222  VAL222      0.2287
     83  O         19.7650    8.3720   -0.0740 O.2   222  VAL222     -0.2864
     84  CB        19.1960    6.6080   -2.9080 C.3   222  VAL222      0.0276
     85  CG1       19.3700    5.3020   -3.6810 C.3   222  VAL222      0.0022
     86  CG2       17.7730    6.7460   -2.3510 C.3   222  VAL222      0.0022
     87  N         18.9480   11.7020   -0.1420 N.3   224  ALA224     -0.1231
     88  CA        17.5800   12.1260    0.1080 C.3   224  ALA224      0.1694
     89  C         17.6270   13.4140    0.8730 C.2   224  ALA224      0.2592
     90  O         18.5810   13.6550    1.6190 O.2   224  ALA224     -0.2718
     91  CB        16.8180   11.0550    0.8920 C.3   224  ALA224      0.0304
     92  N         16.6180   14.2480    0.6610 N.am  225  ALA225     -0.1966
     93  CA        16.4650   15.5250    1.3310 C.3   225  ALA225      0.1728
     94  C         15.6980   15.3630    2.6450 C.2   225  ALA225      0.2616
     95  O         14.9940   14.3770    2.8420 O.2   225  ALA225     -0.2715
     96  CB        15.7160   16.4820    0.4250 C.3   225  ALA225      0.0334
     97  N         15.8460   16.3540    3.5380 N.am  226  GLU226     -0.1977
     98  CA        15.1080   16.4540    4.7840 C.3   226  GLU226      0.1602
     99  C         14.5120   17.8340    4.8060 C.2   226  GLU226      0.2287
    100  O         14.8730   18.6570    3.9740 O.2   226  GLU226     -0.2864
    101  CB        15.9750   16.1900    6.0170 C.3   226  GLU226      0.0415
    102  CG        17.0580   17.2110    6.3140 C.3   226  GLU226      0.1163
    103  CD        17.8130   16.8930    7.5880 C.2   226  GLU226      0.3649
    104  OE1       18.3350   17.8330    8.2130 O.co2 226  GLU226     -0.2457
    105  OE2       17.8530   15.7060    7.9880 O.co2 226  GLU226     -0.2457
    106  N         19.6540    7.7580   -7.9360 N.3   253  PRO253     -0.2116
    107  CA        18.2830    8.0030   -7.4500 C.3   253  PRO253      0.1372
    108  C         18.3240    9.0620   -6.3360 C.2   253  PRO253      0.2244
    109  O         19.3290    9.1730   -5.6080 O.2   253  PRO253     -0.2868
    110  CB        17.8610    6.6430   -6.8750 C.3   253  PRO253      0.0268
    111  CG        18.7810    5.6370   -7.4960 C.3   253  PRO253      0.0207
    112  CD        20.0860    6.3790   -7.6060 C.3   253  PRO253      0.0892
    113  N         15.7490   11.0980   -3.4570 N.3   255  SER255     -0.1217
    114  CA        14.4790   11.2510   -2.7710 C.3   255  SER255      0.1889
    115  C         14.3600   12.7030   -2.3140 C.2   255  SER255      0.2288
    116  O         15.2900   13.2360   -1.6970 O.2   255  SER255     -0.2866
    117  CB        14.4260   10.3100   -1.5800 C.3   255  SER255      0.2089
    118  OG        13.4690   10.7670   -0.6410 O.3   255  SER255     -0.2183
    119  N         15.9980    7.6210  -10.8120 N.3   287  PRO287     -0.2116
    120  CA        14.7390    8.3700  -10.7540 C.3   287  PRO287      0.1372
    121  C         14.6930    9.4590   -9.6750 C.2   287  PRO287      0.2244
    122  O         15.4740    9.4560   -8.7190 O.2   287  PRO287     -0.2868
    123  CB        13.7140    7.2790  -10.4050 C.3   287  PRO287      0.0268
    124  CG        14.5230    6.2620   -9.6210 C.3   287  PRO287      0.0207
    125  CD        15.8250    6.2260  -10.3350 C.3   287  PRO287      0.0892
    126  N         12.5250   10.4760   -6.6160 N.3   289  ILE289     -0.1245
    127  CA        11.5650    9.7950   -5.7490 C.3   289  ILE289      0.1561
    128  C         10.8820   10.8780   -4.9240 C.2   289  ILE289      0.2260
    129  O         11.5380   11.5170   -4.0990 O.2   289  ILE289     -0.2867
    130  CB        12.2060    8.6650   -4.9050 C.3   289  ILE289      0.0252
    131  CG1       13.1280    7.7450   -5.7810 C.3   289  ILE289      0.0019
    132  CG2       11.0820    7.8500   -4.2490 C.3   289  ILE289      0.0019
    133  CD1       14.2440    7.0450   -5.0460 C.3   289  ILE289      0.0001
    134  N          8.7410   12.4260   -2.0690 N.3   291  ARG291     -0.1245
    135  CA         8.3980   11.9870   -0.7340 C.3   291  ARG291      0.1563
    136  C          7.3760   12.8580   -0.0200 C.2   291  ARG291      0.2260
    137  O          7.7590   13.8800    0.5230 O.2   291  ARG291     -0.2867
    138  CB         9.6420   11.7990    0.1380 C.3   291  ARG291      0.0307
    139  CG         9.3350   11.3210    1.5620 C.3   291  ARG291      0.0489
    140  CD        10.5320   10.8120    2.3540 C.3   291  ARG291      0.2205
    141  NE        11.4640   11.8710    2.7550 N.pl3 291  ARG291     -0.0865
    142  CZ        11.5240   12.4410    3.9630 C.cat 291  ARG291      0.5346
    143  NH1       10.6550   12.1110    4.9080 N.pl3 291  ARG291      0.1354
    144  NH2       12.4440   13.3560    4.2250 N.pl3 291  ARG291      0.1354
    145  N          9.3420    8.0130   -9.1960 N.3   329  ARG329     -0.1245
    146  CA         8.7940    7.1110   -8.1780 C.3   329  ARG329      0.1563
    147  C          8.2990    7.8910   -6.9650 C.2   329  ARG329      0.2260
    148  O          8.4720    9.1060   -6.9000 O.2   329  ARG329     -0.2867
    149  CB         9.8090    6.0130   -7.7640 C.3   329  ARG329      0.0307
    150  CG        10.0790    4.9490   -8.8400 C.3   329  ARG329      0.0489
    151  CD         8.8590    4.1290   -9.1700 C.3   329  ARG329      0.2205
    152  NE         9.1110    3.1100  -10.1920 N.pl3 329  ARG329     -0.0865
    153  CZ         8.7880    3.2270  -11.4800 C.cat 329  ARG329      0.5346
    154  NH1        8.2660    4.3610  -11.9440 N.pl3 329  ARG329      0.1354
    155  NH2        8.9900    2.2160  -12.3150 N.pl3 329  ARG329      0.1354
    156  N          7.7430    7.6310   -2.4570 N.3   331  ILE331     -0.1245
    157  CA         8.1190    6.9420   -1.2300 C.3   331  ILE331      0.1561
    158  C          7.2330    7.5000   -0.1420 C.2   331  ILE331      0.2260
    159  O          7.1920    8.7220    0.0730 O.2   331  ILE331     -0.2867
    160  CB         9.6640    6.9670   -0.8600 C.3   331  ILE331      0.0252
    161  CG1        9.9250    6.2880    0.5200 C.3   331  ILE331      0.0019
    162  CG2       10.2000    8.4060   -0.8190 C.3   331  ILE331      0.0019
    163  CD1       10.7680    5.1080    0.5410 C.3   331  ILE331      0.0001
    164  N          7.6280    2.8160   -2.7750 N.3   359  ALA359     -0.1245
    165  CA         8.4920    2.2110   -1.7900 C.3   359  ALA359      0.1562
    166  C          8.0210    2.8080   -0.4490 C.2   359  ALA359      0.2260
    167  O          7.3120    3.8340   -0.4200 O.2   359  ALA359     -0.2867
    168  CB         9.9520    2.5680   -2.0660 C.3   359  ALA359      0.0290
@<TRIPOS>BOND
     1   155   153    1
     2   154   153    1
     3   153   152    2
     4   119   120    1
     5   119   125    1
     6   120   123    1
     7   120   121    1
     8   123   124    1
     9   125   124    1
    10   152   151    1
    11   121   122    2
    12   145   146    1
    13   151   150    1
    14   150   149    1
    15   146   149    1
    16   146   147    1
    17   106   112    1
    18   106   107    1
    19   112   111    1
    20   111   110    1
    21   107   110    1
    22   107   108    1
    23   147   148    2
    24   126   127    1
    25   108   109    2
    26   131   133    1
    27   131   130    1
    28   127   128    1
    29   127   130    1
    30    21    20    1
    31    20    19    1
    32   128   129    2
    33   130   132    1
    34     9     7   ar
    35     9    11   ar
    36     7     6   ar
    37    19    18    1
    38    85    84    1
    39   113   114    1
    40    12    11    1
    41    18    17    1
    42    11    10   ar
    43     6     5    1
    44     6     8   ar
    45    84    86    1
    46    84    81    1
    47     5     2    1
    48   164   165    1
    49   114   115    1
    50   114   117    1
    51   156   157    1
    52    10     8   ar
    53   115   116    2
    54   134   135    1
    55   168   165    1
    56     1     2    1
    57    81    82    1
    58    81    80    1
    59   165   166    1
    60    17    14    1
    61     2     3    1
    62   117   118    1
    63    77    76    2
    64     3    13   am
    65     3     4    2
    66    13    14    1
    67   157   160    1
    68   157   158    1
    69    82    83    2
    70    14    15    1
    71   160   162    1
    72   160   161    1
    73    80    76   am
    74   135   136    1
    75   135   138    1
    76    76    75    1
    77   166   167    2
    78    87    88    1
    79   158   159    2
    80   136   137    2
    81    88    89    1
    82    88    91    1
    83   138   139    1
    84    15    16    2
    85    96    93    1
    86   161   163    1
    87    74    75    1
    88    75    78    1
    89    92    89   am
    90    92    93    1
    91    89    90    2
    92    93    94    1
    93   139   140    1
    94    28    30   ar
    95    28    27   ar
    96    78    79    1
    97    30    31   ar
    98   140   141    1
    99    94    95    2
   100    94    97   am
   101   141   142    2
   102    27    26    1
   103    27    29   ar
   104    26    23    1
   105    31    29   ar
   106    22    23    1
   107    97    98    1
   108    23    24    1
   109    42    41   ar
   110    42    40   ar
   111   142   144    1
   112   142   143    1
   113   100    99    2
   114    72    71   ar
   115    41    39   ar
   116    98    99    1
   117    98   101    1
   118    40    38   ar
   119    71    73   ar
   120    71    70    1
   121    24    25    2
   122    39    37   ar
   123   101   102    1
   124    38    37   ar
   125    66    67    1
   126   102   103    1
   127    70    67    1
   128    37    36    1
   129    67    68    1
   130   103   105   ar
   131   103   104   ar
   132    68    69    2
   133    36    33    1
   134    32    33    1
   135    33    34    1
   136    34    35    2
   137    65    63    1
   138    64    63    1
   139    63    62    2
   140    62    61    1
   141    50    52   ar
   142    50    48   ar
   143    43    44    1
   144    47    48    1
   145    47    44    1
   146    52    53   ar
   147    61    60    1
   148    48    49   ar
   149    44    45    1
   150    60    59    1
   151    53    54    1
   152    53    51   ar
   153    55    45   am
   154    55    56    1
   155    49    51   ar
   156    45    46    2
   157    59    56    1
   158    56    57    1
   159    57    58    2
