@<TRIPOS>MOLECULE
tmp/5u2nB00.pdb
 173 162 0 0 0
SMALL
GASTEIGER

@<TRIPOS>ATOM
      1  N          8.3000    3.8590   46.3930 N.3   168  TYR168     -0.1227
      2  CA         8.5380    2.4350   46.2040 C.3   168  TYR168      0.1736
      3  C          7.3380    1.7230   45.6120 C.2   168  TYR168      0.2595
      4  O          7.3880    0.5020   45.4700 O.2   168  TYR168     -0.2718
      5  CB         8.9390    1.7800   47.5450 C.3   168  TYR168      0.0548
      6  CG        10.2920    2.2650   48.0090 C.ar  168  TYR168     -0.0200
      7  CD1       10.4030    3.3230   48.9060 C.ar  168  TYR168     -0.0009
      8  CD2       11.4650    1.7410   47.4690 C.ar  168  TYR168     -0.0009
      9  CE1       11.6470    3.8210   49.2880 C.ar  168  TYR168      0.0417
     10  CE2       12.7160    2.2290   47.8450 C.ar  168  TYR168      0.0417
     11  CZ        12.8000    3.2770   48.7500 C.ar  168  TYR168      0.1957
     12  OH        14.0240    3.7620   49.1400 O.3   168  TYR168     -0.2866
     13  N          6.2560    2.4640   45.2810 N.am  169  LYS169     -0.1980
     14  CA         5.0130    1.8360   44.8270 C.3   169  LYS169      0.1596
     15  C          5.0160    1.3580   43.3770 C.2   169  LYS169      0.2287
     16  O          4.1150    0.6160   43.0020 O.2   169  LYS169     -0.2864
     17  CB         3.7930    2.7250   45.0830 C.3   169  LYS169      0.0298
     18  CG         3.3950    2.7500   46.5640 C.3   169  LYS169      0.0038
     19  CD         1.9900    2.2440   46.7710 C.3   169  LYS169      0.0206
     20  CE         1.6360    2.1060   48.2260 C.3   169  LYS169      0.1093
     21  NZ         2.1090    0.8280   48.8220 N.3   169  LYS169     -0.1314
     22  N          7.6490   -0.4500   40.8210 N.3   171  HIS171     -0.1241
     23  CA         8.9450   -1.0780   40.7050 C.3   171  HIS171      0.1621
     24  C          9.2170   -1.4630   39.2570 C.2   171  HIS171      0.2264
     25  O          8.3400   -2.0100   38.5870 O.2   171  HIS171     -0.2867
     26  CB         9.0140   -2.3050   41.6400 C.3   171  HIS171      0.0745
     27  CG        10.4050   -2.7610   41.9480 C.ar  171  HIS171      0.0817
     28  ND1       11.0560   -2.3470   43.0910 N.ar  171  HIS171     -0.2268
     29  CD2       11.2070   -3.6150   41.2740 C.ar  171  HIS171      0.1154
     30  CE1       12.2290   -2.9530   43.0790 C.ar  171  HIS171      0.1986
     31  NE2       12.3540   -3.7500   42.0200 N.ar  171  HIS171     -0.2212
     32  N         10.3470   -3.6800   36.4640 N.3   173  PHE173     -0.1241
     33  CA        10.5160   -5.1100   36.1470 C.3   173  PHE173      0.1605
     34  C         10.9410   -5.2580   34.6690 C.2   173  PHE173      0.2264
     35  O         10.9060   -6.3650   34.1280 O.2   173  PHE173     -0.2867
     36  CB         9.1590   -5.8450   36.2990 C.3   173  PHE173      0.0534
     37  CG         8.6740   -6.2210   37.6870 C.ar  173  PHE173     -0.0203
     38  CD1        7.6570   -7.1570   37.8500 C.ar  173  PHE173     -0.0042
     39  CD2        9.2800   -5.6890   38.8250 C.ar  173  PHE173     -0.0042
     40  CE1        7.2170   -7.5240   39.1360 C.ar  173  PHE173     -0.0003
     41  CE2        8.8120   -6.0210   40.0980 C.ar  173  PHE173     -0.0003
     42  CZ         7.7790   -6.9380   40.2400 C.ar  173  PHE173     -0.0000
     43  N         14.1990   -7.5410   31.1080 N.3   176  ARG176     -0.1245
     44  CA        14.1370   -8.5010   30.0110 C.3   176  ARG176      0.1563
     45  C         13.3330   -8.0400   28.7980 C.2   176  ARG176      0.2260
     46  O         13.5600   -8.5680   27.6930 O.2   176  ARG176     -0.2867
     47  CB        13.6280   -9.8480   30.5110 C.3   176  ARG176      0.0307
     48  CG        12.1260   -9.9330   30.6660 C.3   176  ARG176      0.0489
     49  CD        11.7980  -11.1690   31.4630 C.3   176  ARG176      0.2205
     50  NE        12.2670  -10.9810   32.8270 N.pl3 176  ARG176     -0.0865
     51  CZ        12.1730  -11.8950   33.7790 C.cat 176  ARG176      0.5346
     52  NH1       11.6020  -13.0650   33.5300 N.pl3 176  ARG176      0.1354
     53  NH2       12.6310  -11.6410   34.9920 N.pl3 176  ARG176      0.1354
     54  N         14.5800   -3.3240   39.5490 N.3   199  ASP199     -0.1239
     55  CA        15.2660   -4.5840   39.3770 C.3   199  ASP199      0.1674
     56  C         16.1710   -4.4700   38.1350 C.2   199  ASP199      0.2266
     57  O         16.9440   -5.3840   37.8510 O.2   199  ASP199     -0.2867
     58  CB        14.2830   -5.7630   39.2530 C.3   199  ASP199      0.1410
     59  CG        14.1420   -6.5320   40.5460 C.2   199  ASP199      0.3668
     60  OD1       13.9490   -5.8850   41.5960 O.co2 199  ASP199     -0.2456
     61  OD2       14.2810   -7.7820   40.5140 O.co2 199  ASP199     -0.2456
     62  N         16.1380   -2.8030   45.9370 N.3   221  SER221     -0.1202
     63  CA        15.2600   -3.9490   45.7140 C.3   221  SER221      0.2020
     64  C         15.2610   -4.8710   46.8960 C.2   221  SER221      0.2618
     65  O         15.9630   -4.6380   47.8990 O.2   221  SER221     -0.2717
     66  CB        15.6080   -4.6920   44.4250 C.3   221  SER221      0.2103
     67  OG        14.5530   -5.5850   44.0930 O.3   221  SER221     -0.2182
     68  N         14.3960   -5.8710   46.8180 N.am  222  VAL222     -0.1979
     69  CA        14.2500   -6.8700   47.8610 C.3   222  VAL222      0.1595
     70  C         14.3600   -8.2670   47.2370 C.2   222  VAL222      0.2287
     71  O         14.1240   -8.4270   46.0140 O.2   222  VAL222     -0.2864
     72  CB        12.9230   -6.6850   48.6840 C.3   222  VAL222      0.0276
     73  CG1       12.7580   -5.2540   49.2140 C.3   222  VAL222      0.0022
     74  CG2       11.6820   -7.1640   47.9100 C.3   222  VAL222      0.0022
     75  N         13.2040  -11.7540   45.8800 N.3   224  ALA224     -0.1231
     76  CA        11.9430  -12.1630   45.2690 C.3   224  ALA224      0.1694
     77  C         12.1080  -13.4690   44.5460 C.2   224  ALA224      0.2592
     78  O         13.1940  -13.7710   44.0520 O.2   224  ALA224     -0.2718
     79  CB        11.4460  -11.0910   44.3040 C.3   224  ALA224      0.0304
     80  N         11.0330  -14.2590   44.4760 N.am  225  ALA225     -0.1966
     81  CA        11.0300  -15.5270   43.7510 C.3   225  ALA225      0.1728
     82  C         10.6140  -15.3080   42.3070 C.2   225  ALA225      0.2616
     83  O         10.0470  -14.2740   41.9640 O.2   225  ALA225     -0.2715
     84  CB        10.0570  -16.5080   44.4120 C.3   225  ALA225      0.0334
     85  N         10.9010  -16.2870   41.4670 N.am  226  GLU226     -0.1977
     86  CA        10.4060  -16.3110   40.0890 C.3   226  GLU226      0.1602
     87  C          9.7760  -17.6810   39.9230 C.2   226  GLU226      0.2287
     88  O          9.9140  -18.5170   40.8060 O.2   226  GLU226     -0.2864
     89  CB        11.5060  -16.0550   39.0570 C.3   226  GLU226      0.0415
     90  CG        12.5370  -17.1610   38.9450 C.3   226  GLU226      0.1163
     91  CD        13.5830  -16.8360   37.8950 C.2   226  GLU226      0.3649
     92  OE1       14.1060  -17.7860   37.2770 O.co2 226  GLU226     -0.2457
     93  OE2       13.8590  -15.6350   37.6640 O.co2 226  GLU226     -0.2457
     94  N         12.0390   -7.8370   53.5720 N.3   253  PRO253     -0.2116
     95  CA        10.7800   -8.0830   52.8440 C.3   253  PRO253      0.1372
     96  C         11.0630   -9.1390   51.7650 C.2   253  PRO253      0.2244
     97  O         12.2000   -9.2520   51.3090 O.2   253  PRO253     -0.2868
     98  CB        10.4380   -6.7190   52.2340 C.3   253  PRO253      0.0268
     99  CG        11.3320   -5.7080   52.9770 C.3   253  PRO253      0.0207
    100  CD        12.5630   -6.4820   53.2790 C.3   253  PRO253      0.0892
    101  N          9.3140  -11.0520   48.2720 N.3   255  SER255     -0.1217
    102  CA         8.2280  -11.1550   47.2980 C.3   255  SER255      0.1889
    103  C          8.1730  -12.6060   46.8090 C.2   255  SER255      0.2288
    104  O          9.2020  -13.1650   46.4440 O.2   255  SER255     -0.2866
    105  CB         8.4810  -10.1990   46.1430 C.3   255  SER255      0.2089
    106  OG         7.7680  -10.5830   44.9770 O.3   255  SER255     -0.2183
    107  N          7.8300   -7.7400   55.5330 N.3   287  PRO287     -0.2116
    108  CA         6.5830   -8.3910   55.1580 C.3   287  PRO287      0.1372
    109  C          6.7540   -9.4130   54.0550 C.2   287  PRO287      0.2244
    110  O          7.7250   -9.3680   53.2820 O.2   287  PRO287     -0.2868
    111  CB         5.7220   -7.2150   54.6560 C.3   287  PRO287      0.0268
    112  CG         6.7340   -6.2540   54.0800 C.3   287  PRO287      0.0207
    113  CD         7.8480   -6.3260   55.0840 C.3   287  PRO287      0.0892
    114  N          5.3530  -10.3780   50.6070 N.3   289  ILE289     -0.1245
    115  CA         4.6650   -9.6740   49.5400 C.3   289  ILE289      0.1561
    116  C          4.2130  -10.7730   48.5560 C.2   289  ILE289      0.2260
    117  O          5.0330  -11.4120   47.8910 O.2   289  ILE289     -0.2867
    118  CB         5.5610   -8.5960   48.8800 C.3   289  ILE289      0.0252
    119  CG1        6.1640   -7.6150   49.9570 C.3   289  ILE289      0.0019
    120  CG2        4.7340   -7.8140   47.8390 C.3   289  ILE289      0.0019
    121  CD1        7.5420   -7.1770   49.6680 C.3   289  ILE289      0.0001
    122  N          2.7840  -12.2090   45.2190 N.3   291  ARG291     -0.1245
    123  CA         2.7720  -11.7720   43.8430 C.3   291  ARG291      0.1563
    124  C          1.8750  -12.6240   42.9230 C.2   291  ARG291      0.2260
    125  O          2.3310  -13.6630   42.4320 O.2   291  ARG291     -0.2867
    126  CB         4.2060  -11.7060   43.2830 C.3   291  ARG291      0.0307
    127  CG         4.2610  -11.1100   41.8580 C.3   291  ARG291      0.0489
    128  CD         5.6490  -10.6680   41.4490 C.3   291  ARG291      0.2205
    129  NE         6.5840  -11.7690   41.2550 N.pl3 291  ARG291     -0.0865
    130  CZ         6.8980  -12.3150   40.0770 C.cat 291  ARG291      0.5346
    131  NH1        6.2700  -11.9390   38.9700 N.pl3 291  ARG291      0.1354
    132  NH2        7.8320  -13.2450   40.0030 N.pl3 291  ARG291      0.1354
    133  N          1.5750   -7.9310   52.3200 N.3   329  ARG329     -0.1245
    134  CA         1.2790   -6.9860   51.2490 C.3   329  ARG329      0.1563
    135  C          1.1570   -7.7400   49.9350 C.2   329  ARG329      0.2260
    136  O          1.4180   -8.9360   49.8990 O.2   329  ARG329     -0.2867
    137  CB         2.3570   -5.8750   51.1550 C.3   329  ARG329      0.0307
    138  CG         2.4150   -4.9170   52.3850 C.3   329  ARG329      0.0489
    139  CD         1.2310   -3.9930   52.3500 C.3   329  ARG329      0.2205
    140  NE         1.2400   -2.9560   53.3960 N.pl3 329  ARG329     -0.0865
    141  CZ         0.5900   -3.0630   54.5520 C.cat 329  ARG329      0.5346
    142  NH1       -0.0600   -4.1790   54.8550 N.pl3 329  ARG329      0.1354
    143  NH2        0.6010   -2.0590   55.4210 N.pl3 329  ARG329      0.1354
    144  N          1.8740   -7.4520   45.4670 N.3   331  ILE331     -0.1245
    145  CA         2.4680   -6.7170   44.3390 C.3   331  ILE331      0.1561
    146  C          1.8440   -7.2770   43.0450 C.2   331  ILE331      0.2260
    147  O          1.9020   -8.4880   42.8130 O.2   331  ILE331     -0.2867
    148  CB         4.0370   -6.7000   44.2770 C.3   331  ILE331      0.0252
    149  CG1        4.5230   -5.8380   43.0560 C.3   331  ILE331      0.0019
    150  CG2        4.6280   -8.1450   44.2380 C.3   331  ILE331      0.0019
    151  CD1        5.8900   -5.2720   43.1060 C.3   331  ILE331      0.0001
    152  N         -2.3600    1.4700   50.4190 N.3   356  GLU356     -0.1245
    153  CA        -1.1290    1.0580   51.1000 C.3   356  GLU356      0.1567
    154  C         -0.9490   -0.4860   51.0340 C.2   356  GLU356      0.2260
    155  O          0.1580   -0.9810   51.2220 O.2   356  GLU356     -0.2867
    156  CB        -0.9810    1.6490   52.5220 C.3   356  GLU356      0.0388
    157  CG        -2.0310    1.3420   53.5360 C.3   356  GLU356      0.1160
    158  CD        -2.3640    2.4730   54.4980 C.2   356  GLU356      0.3649
    159  OE1       -3.5430    2.8730   54.4900 O.co2 356  GLU356     -0.2457
    160  OE2       -1.5180    2.8630   55.3360 O.co2 356  GLU356     -0.2457
    161  N         -1.0460   -2.3690   48.3310 N.3   358  ILE358     -0.1231
    162  CA        -0.5280   -2.7830   47.0290 C.3   358  ILE358      0.1692
    163  C          0.7160   -2.0340   46.5720 C.2   358  ILE358      0.2591
    164  O          0.9150   -0.8660   46.8980 O.2   358  ILE358     -0.2718
    165  CB        -1.6810   -2.6570   45.9810 C.3   358  ILE358      0.0266
    166  CG1       -1.3880   -3.4500   44.6830 C.3   358  ILE358      0.0019
    167  CG2       -2.0280   -1.1800   45.6510 C.3   358  ILE358      0.0020
    168  CD1       -2.1700   -4.6840   44.4970 C.3   358  ILE358      0.0001
    169  N          1.5050   -2.7080   45.7500 N.am  359  ALA359     -0.1980
    170  CA         2.6260   -2.1550   45.0240 C.3   359  ALA359      0.1597
    171  C          2.4530   -2.6900   43.5960 C.2   359  ALA359      0.2287
    172  O          1.7120   -3.6610   43.3700 O.2   359  ALA359     -0.2864
    173  CB         3.9390   -2.6410   45.6150 C.3   359  ALA359      0.0319
@<TRIPOS>BOND
     1    46    45    2
     2    45    44    1
     3    44    47    1
     4    44    43    1
     5    47    48    1
     6    48    49    1
     7    49    50    1
     8    50    51    2
     9    52    51    1
    10    51    53    1
    11    35    34    2
    12    34    33    1
    13    33    36    1
    14    33    32    1
    15    36    37    1
    16    92    91   ar
    17    93    91   ar
    18    37    38   ar
    19    37    39   ar
    20    38    40   ar
    21    57    56    2
    22    91    90    1
    23    56    55    1
    24    25    24    2
    25    39    41   ar
    26    90    89    1
    27   131   130    1
    28    89    86    1
    29    40    42   ar
    30    58    55    1
    31    58    59    1
    32    24    23    1
    33    55    54    1
    34    87    86    1
    35    87    88    2
    36   132   130    1
    37   130   129    2
    38    86    85    1
    39    41    42   ar
    40    61    59   ar
    41    59    60   ar
    42    23    22    1
    43    23    26    1
    44   129   128    1
    45    29    27   ar
    46    29    31   ar
    47   128   127    1
    48    85    82   am
    49    26    27    1
    50   127   126    1
    51    27    28   ar
    52    83    82    2
    53    31    30   ar
    54    82    81    1
    55   125   124    2
    56   147   146    2
    57   124   123    1
    58    16    15    2
    59   146   145    1
    60   149   151    1
    61   149   148    1
    62    30    28   ar
    63   126   123    1
    64   172   171    2
    65    15    14    1
    66   171   170    1
    67    81    84    1
    68    81    80    1
    69   123   122    1
    70    78    77    2
    71    67    66    1
    72   150   148    1
    73   148   145    1
    74    79    76    1
    75   145   144    1
    76    66    63    1
    77    80    77   am
    78   168   166    1
    79    77    76    1
    80   166   165    1
    81    14    17    1
    82    14    13    1
    83   106   105    1
    84   170   173    1
    85   170   169    1
    86    17    18    1
    87    76    75    1
    88    13     3   am
    89     4     3    2
    90     3     2    1
    91   167   165    1
    92    63    62    1
    93    63    64    1
    94   169   163   am
    95   165   162    1
    96    71    70    2
    97   105   102    1
    98     2     1    1
    99     2     5    1
   100   104   103    2
   101    18    19    1
   102   163   164    2
   103   163   162    1
   104    19    20    1
   105   103   102    1
   106    68    64   am
   107    68    69    1
   108    64    65    2
   109   162   161    1
   110    70    69    1
   111   102   101    1
   112     8    10   ar
   113     8     6   ar
   114     5     6    1
   115   120   118    1
   116    10    11   ar
   117    69    72    1
   118   117   116    2
   119    74    72    1
   120     6     7   ar
   121    20    21    1
   122   116   115    1
   123    72    73    1
   124    11    12    1
   125    11     9   ar
   126   118   115    1
   127   118   119    1
   128     7     9   ar
   129   115   114    1
   130   121   119    1
   131   136   135    2
   132   135   134    1
   133   152   153    1
   134   154   153    1
   135   154   155    2
   136   153   156    1
   137   137   134    1
   138   137   138    1
   139   134   133    1
   140    97    96    2
   141    96    95    1
   142    98    95    1
   143    98    99    1
   144   139   138    1
   145   139   140    1
   146   156   157    1
   147    95    94    1
   148    99   100    1
   149   100    94    1
   150   110   109    2
   151   140   141    2
   152   157   158    1
   153   109   108    1
   154   112   111    1
   155   112   113    1
   156   159   158   ar
   157   158   160   ar
   158   141   142    1
   159   141   143    1
   160   111   108    1
   161   113   107    1
   162   108   107    1
