@<TRIPOS>MOLECULE
tmp/5u2oA00.pdb
 92 91 0 0 0
SMALL
GASTEIGER

@<TRIPOS>ATOM
      1  N         13.8810   48.4880  -27.8470 N.3     1  MET1       -0.1245
      2  CA        14.9390   47.5530  -28.3060 C.3     1  MET1        0.1570
      3  C         16.2870   48.2190  -28.4880 C.2     1  MET1        0.2261
      4  O         16.3780   49.4350  -28.4220 O.2     1  MET1       -0.2867
      5  CB        14.5210   46.9300  -29.5960 C.3     1  MET1        0.0387
      6  CG        14.3550   47.8810  -30.7330 C.3     1  MET1        0.0595
      7  SD        13.2600   47.1310  -31.9790 S.3     1  MET1       -0.1393
      8  CE        13.3810   45.3650  -31.5120 C.3     1  MET1        0.0692
      9  N          4.1150   53.4730  -30.3010 N.3    74  PRO74      -0.2102
     10  CA         5.5140   53.9150  -30.2640 C.3    74  PRO74       0.1504
     11  C          6.3920   52.9330  -29.5080 C.2    74  PRO74       0.2576
     12  O          5.9820   52.3390  -28.5100 O.2    74  PRO74      -0.2718
     13  CB         5.4400   55.2570  -29.5310 C.3    74  PRO74       0.0282
     14  CG         4.0620   55.7480  -29.8190 C.3    74  PRO74       0.0208
     15  CD         3.2070   54.5140  -29.7900 C.3    74  PRO74       0.0893
     16  N          7.6140   52.7660  -29.9970 N.am   75  PHE75      -0.1963
     17  CA         8.6150   51.9810  -29.2990 C.3    75  PHE75       0.1771
     18  C          9.9440   52.7060  -29.3970 C.2    75  PHE75       0.2619
     19  O         10.1430   53.5690  -30.2520 O.2    75  PHE75      -0.2715
     20  CB         8.7560   50.5780  -29.8870 C.3    75  PHE75       0.0574
     21  CG         9.1990   50.5700  -31.3280 C.ar   75  PHE75      -0.0200
     22  CD1        8.2800   50.7060  -32.3470 C.ar   75  PHE75      -0.0042
     23  CD2       10.5450   50.4200  -31.6580 C.ar   75  PHE75      -0.0042
     24  CE1        8.7000   50.6990  -33.6590 C.ar   75  PHE75      -0.0003
     25  CE2       10.9590   50.4250  -32.9670 C.ar   75  PHE75      -0.0003
     26  CZ        10.0370   50.5640  -33.9650 C.ar   75  PHE75      -0.0000
     27  N         10.8690   52.3250  -28.5290 N.am   76  ARG76      -0.1977
     28  CA        12.1700   52.9630  -28.4420 C.3    76  ARG76       0.1597
     29  C         13.2460   52.0760  -29.0350 C.2    76  ARG76       0.2287
     30  O         13.2040   50.8510  -28.8930 O.2    76  ARG76      -0.2864
     31  CB        12.5490   53.2020  -26.9830 C.3    76  ARG76       0.0334
     32  CG        11.8990   54.4010  -26.3500 C.3    76  ARG76       0.0492
     33  CD        12.8760   55.5540  -26.3600 C.3    76  ARG76       0.2205
     34  NE        14.0880   55.2480  -25.5980 N.pl3  76  ARG76      -0.0865
     35  CZ        15.3140   55.6540  -25.9240 C.cat  76  ARG76       0.5346
     36  NH1       15.5230   56.3850  -27.0190 N.pl3  76  ARG76       0.1354
     37  NH2       16.3440   55.3180  -25.1520 N.pl3  76  ARG76       0.1354
     38  N         17.5060   50.6650  -22.8260 N.3    81  VAL81      -0.1231
     39  CA        16.0900   50.3220  -22.7130 C.3    81  VAL81       0.1692
     40  C         15.7730   49.2540  -21.6670 C.2    81  VAL81       0.2592
     41  O         14.6250   49.1870  -21.2030 O.2    81  VAL81      -0.2718
     42  CB        15.4490   49.9420  -24.0580 C.3    81  VAL81       0.0266
     43  CG1       15.4040   51.1580  -24.9930 C.3    81  VAL81       0.0020
     44  CG2       16.1550   48.7650  -24.7050 C.3    81  VAL81       0.0020
     45  N         16.7170   48.3910  -21.2960 N.am   82  TYR82      -0.1976
     46  CA        16.4020   47.3010  -20.3760 C.3    82  TYR82       0.1639
     47  C         16.8850   47.5600  -18.9600 C.2    82  TYR82       0.2290
     48  O         16.6350   46.7300  -18.0830 O.2    82  TYR82      -0.2864
     49  CB        16.9350   45.9610  -20.8990 C.3    82  TYR82       0.0560
     50  CG        16.3460   45.6430  -22.2390 C.ar   82  TYR82      -0.0198
     51  CD1       14.9780   45.6120  -22.4070 C.ar   82  TYR82      -0.0009
     52  CD2       17.1410   45.4110  -23.3320 C.ar   82  TYR82      -0.0009
     53  CE1       14.4100   45.3600  -23.6550 C.ar   82  TYR82       0.0417
     54  CE2       16.5860   45.1480  -24.5770 C.ar   82  TYR82       0.0417
     55  CZ        15.2360   45.1330  -24.7280 C.ar   82  TYR82       0.1957
     56  OH        14.7140   44.8880  -25.9810 O.3    82  TYR82      -0.2866
     57  N         13.5200   48.0070  -16.5170 N.3    85  PRO85      -0.2116
     58  CA        12.8420   46.7660  -16.1220 C.3    85  PRO85       0.1372
     59  C         13.7180   45.8580  -15.2920 C.2    85  PRO85       0.2244
     60  O         13.2020   45.1520  -14.4250 O.2    85  PRO85      -0.2868
     61  CB        12.4270   46.1130  -17.4490 C.3    85  PRO85       0.0268
     62  CG        13.1820   46.8230  -18.4820 C.3    85  PRO85       0.0207
     63  CD        13.4840   48.2030  -17.9720 C.3    85  PRO85       0.0892
     64  N         11.7300   40.1360  -25.7810 N.3   442  HIS442     -0.1241
     65  CA        10.7370   40.8120  -26.6030 C.3   442  HIS442      0.1621
     66  C          9.3780   40.1400  -26.4290 C.2   442  HIS442      0.2264
     67  O          8.3440   40.8080  -26.3020 O.2   442  HIS442     -0.2867
     68  CB        11.1370   40.7590  -28.0780 C.3   442  HIS442      0.0745
     69  CG        12.4200   41.4620  -28.4190 C.ar  442  HIS442      0.0817
     70  ND1       12.7950   42.6540  -27.8470 N.ar  442  HIS442     -0.2268
     71  CD2       13.4240   41.1150  -29.2630 C.ar  442  HIS442      0.1154
     72  CE1       13.9670   43.0280  -28.3410 C.ar  442  HIS442      0.1986
     73  NE2       14.3720   42.1100  -29.2020 N.ar  442  HIS442     -0.2212
     74  N          7.7320   40.9160  -23.0330 N.3   445  PHE445     -0.1241
     75  CA         7.2460   42.2810  -22.9070 C.3   445  PHE445      0.1605
     76  C          6.0880   42.5910  -23.8460 C.2   445  PHE445      0.2264
     77  O          5.6330   43.7390  -23.8900 O.2   445  PHE445     -0.2867
     78  CB         8.3970   43.2630  -23.1490 C.3   445  PHE445      0.0534
     79  CG         9.4740   43.2480  -22.0820 C.ar  445  PHE445     -0.0203
     80  CD1        9.1930   42.8960  -20.7790 C.ar  445  PHE445     -0.0042
     81  CD2       10.7630   43.5800  -22.4110 C.ar  445  PHE445     -0.0042
     82  CE1       10.1940   42.9080  -19.8130 C.ar  445  PHE445     -0.0003
     83  CE2       11.7620   43.5740  -21.4490 C.ar  445  PHE445     -0.0003
     84  CZ        11.4650   43.2420  -20.1640 C.ar  445  PHE445     -0.0000
     85  N          5.2380   46.9070  -17.4160 N.3   458  ILE458     -0.1245
     86  CA         5.9690   47.0280  -18.6750 C.3   458  ILE458      0.1561
     87  C          5.0210   46.6280  -19.7870 C.2   458  ILE458      0.2260
     88  O          4.3660   45.5850  -19.6940 O.2   458  ILE458     -0.2867
     89  CB         7.1980   46.0950  -18.7100 C.3   458  ILE458      0.0252
     90  CG1        8.0890   46.2960  -17.4830 C.3   458  ILE458      0.0019
     91  CG2        8.0010   46.3210  -20.0040 C.3   458  ILE458      0.0019
     92  CD1        8.6750   47.6630  -17.3730 C.3   458  ILE458      0.0001
@<TRIPOS>BOND
     1    26    24   ar
     2    26    25   ar
     3    24    22   ar
     4    25    23   ar
     5    22    21   ar
     6     7     8    1
     7     7     6    1
     8    23    21   ar
     9    21    20    1
    10     6     5    1
    11     9    10    1
    12     9    15    1
    13    10    13    1
    14    10    11    1
    15    19    18    2
    16    16    11   am
    17    16    17    1
    18    20    17    1
    19    14    15    1
    20    14    13    1
    21     5     2    1
    22    11    12    2
    23    18    17    1
    24    18    27   am
    25    71    73   ar
    26    71    69   ar
    27    73    72   ar
    28    29    30    2
    29    29    28    1
    30    27    28    1
    31     3     4    2
    32     3     2    1
    33    28    31    1
    34    69    68    1
    35    69    70   ar
    36    72    70   ar
    37     2     1    1
    38    68    65    1
    39    36    35    1
    40    31    32    1
    41    65    66    1
    42    65    64    1
    43    66    67    2
    44    33    32    1
    45    33    34    1
    46    56    55    1
    47    35    34    2
    48    35    37    1
    49    43    42    1
    50    55    54   ar
    51    55    53   ar
    52    44    42    1
    53    54    52   ar
    54    42    39    1
    55    77    76    2
    56    76    75    1
    57    53    51   ar
    58    52    50   ar
    59    78    75    1
    60    78    79    1
    61    74    75    1
    62    38    39    1
    63    39    40    1
    64    81    79   ar
    65    81    83   ar
    66    51    50   ar
    67    50    49    1
    68    79    80   ar
    69    40    45   am
    70    40    41    2
    71    83    84   ar
    72    45    46    1
    73    49    46    1
    74    80    82   ar
    75    46    47    1
    76    84    82   ar
    77    91    89    1
    78    87    88    2
    79    87    86    1
    80    47    48    2
    81    89    86    1
    82    89    90    1
    83    86    85    1
    84    62    63    1
    85    62    61    1
    86    63    57    1
    87    90    92    1
    88    61    58    1
    89    57    58    1
    90    58    59    1
    91    59    60    2
