@<TRIPOS>MOLECULE
tmp/5u2tA00.pdb
 125 119 0 0 0
SMALL
GASTEIGER

@<TRIPOS>ATOM
      1  N         47.7130    4.3720   75.4890 N.3   144  ARG144     -0.1245
      2  CA        46.8390    4.3130   74.3060 C.3   144  ARG144      0.1563
      3  C         45.3880    4.1680   74.7920 C.2   144  ARG144      0.2260
      4  O         45.1280    3.8730   75.9700 O.2   144  ARG144     -0.2867
      5  CB        47.1670    3.1270   73.3950 C.3   144  ARG144      0.0307
      6  CG        48.5740    3.0990   72.8250 C.3   144  ARG144      0.0489
      7  CD        48.7500    4.0560   71.6660 C.3   144  ARG144      0.2205
      8  NE        48.0450    3.6210   70.4630 N.pl3 144  ARG144     -0.0865
      9  CZ        48.0500    4.2920   69.3130 C.cat 144  ARG144      0.5346
     10  NH1       48.7330    5.4270   69.1970 N.pl3 144  ARG144      0.1354
     11  NH2       47.3670    3.8350   68.2680 N.pl3 144  ARG144      0.1354
     12  N         41.2030   10.7290   62.6450 N.3   174  GLY174     -0.1210
     13  CA        42.3810   10.0230   63.1320 C.3   174  GLY174      0.1956
     14  C         42.3020    8.5150   62.9780 C.2   174  GLY174      0.2612
     15  O         41.5120    7.9820   62.1880 O.2   174  GLY174     -0.2717
     16  N         43.1070    7.8180   63.7590 N.am  175  SER175     -0.1952
     17  CA        43.2120    6.3620   63.6570 C.3   175  SER175      0.1924
     18  C         41.9020    5.6810   64.0330 C.2   175  SER175      0.2314
     19  O         41.6450    4.5600   63.6020 O.2   175  SER175     -0.2863
     20  CB        44.3370    5.8570   64.5510 C.3   175  SER175      0.2116
     21  OG        44.0260    6.1180   65.9090 O.3   175  SER175     -0.2180
     22  N         39.8750    5.1120   61.0160 N.3   178  ARG178     -0.1245
     23  CA        40.4700    4.0270   60.2320 C.3   178  ARG178      0.1563
     24  C         40.2470    2.6670   60.8850 C.2   178  ARG178      0.2260
     25  O         40.8590    1.6730   60.4750 O.2   178  ARG178     -0.2867
     26  CB        41.9790    4.2670   60.0240 C.3   178  ARG178      0.0307
     27  CG        42.3380    5.6110   59.3790 C.3   178  ARG178      0.0489
     28  CD        43.7830    5.6650   58.8780 C.3   178  ARG178      0.2205
     29  NE        44.7460    5.3420   59.9340 N.pl3 178  ARG178     -0.0865
     30  CZ        45.3440    6.2250   60.7350 C.cat 178  ARG178      0.5346
     31  NH1       45.0990    7.5320   60.6210 N.pl3 178  ARG178      0.1354
     32  NH2       46.1920    5.7970   61.6680 N.pl3 178  ARG178      0.1354
     33  N         43.7990    4.0340   69.9780 N.3   183  SER183     -0.1202
     34  CA        44.1400    5.3430   69.4730 C.3   183  SER183      0.2020
     35  C         44.9810    6.0560   70.5070 C.2   183  SER183      0.2619
     36  O         44.9260    5.7450   71.7030 O.2   183  SER183     -0.2717
     37  CB        42.8740    6.1500   69.1650 C.3   183  SER183      0.2103
     38  OG        42.0840    5.5420   68.1590 O.3   183  SER183     -0.2182
     39  N         45.7540    7.0310   70.0480 N.am  184  GLY184     -0.1942
     40  CA        46.5860    7.8210   70.9820 C.3   184  GLY184      0.2014
     41  C         45.8240    8.9800   71.5920 C.2   184  GLY184      0.2638
     42  O         46.1910    9.4850   72.6390 O.2   184  GLY184     -0.2714
     43  N         44.7200    9.3690   70.9480 N.am  185  ASP185     -0.1971
     44  CA        43.9360   10.5230   71.3860 C.3   185  ASP185      0.1709
     45  C         42.6430   10.5820   70.5590 C.2   185  ASP185      0.2293
     46  O         42.4290    9.7750   69.6400 O.2   185  ASP185     -0.2864
     47  CB        44.7490   11.8240   71.2450 C.3   185  ASP185      0.1436
     48  CG        45.1730   12.1230   69.8230 C.2   185  ASP185      0.3671
     49  OD1       44.6570   11.5420   68.8500 O.co2 185  ASP185     -0.2456
     50  OD2       46.0480   12.9940   69.6440 O.co2 185  ASP185     -0.2456
     51  N         40.5360   12.8660   67.9020 N.3   187  ASP187     -0.1239
     52  CA        40.4680   13.9890   66.9440 C.3   187  ASP187      0.1674
     53  C         39.0380   14.2210   66.4570 C.2   187  ASP187      0.2266
     54  O         38.4570   13.3440   65.8710 O.2   187  ASP187     -0.2867
     55  CB        41.3160   13.6710   65.7090 C.3   187  ASP187      0.1410
     56  CG        42.7260   13.2150   66.0560 C.2   187  ASP187      0.3668
     57  OD1       43.5450   14.0450   66.4980 O.co2 187  ASP187     -0.2456
     58  OD2       43.0260   12.0180   65.8830 O.co2 187  ASP187     -0.2456
     59  N         41.9850   14.8090   55.4000 N.3   263  TYR263     -0.1227
     60  CA        43.2970   15.1910   55.9430 C.3   263  TYR263      0.1736
     61  C         43.4970   14.7150   57.3680 C.2   263  TYR263      0.2595
     62  O         44.5200   14.0980   57.7010 O.2   263  TYR263     -0.2718
     63  CB        43.4010   16.7040   55.8920 C.3   263  TYR263      0.0548
     64  CG        44.7150   17.2960   56.3350 C.ar  263  TYR263     -0.0200
     65  CD1       44.9570   17.5870   57.6770 C.ar  263  TYR263     -0.0009
     66  CD2       45.6920   17.6280   55.4020 C.ar  263  TYR263     -0.0009
     67  CE1       46.1480   18.1600   58.0720 C.ar  263  TYR263      0.0417
     68  CE2       46.8890   18.2010   55.7960 C.ar  263  TYR263      0.0417
     69  CZ        47.1040   18.4680   57.1280 C.ar  263  TYR263      0.1957
     70  OH        48.2890   19.0500   57.5110 O.3   263  TYR263     -0.2866
     71  N         42.5300   15.0190   58.2260 N.am  264  PHE264     -0.1962
     72  CA        42.6260   14.5980   59.6240 C.3   264  PHE264      0.1771
     73  C         42.3630   13.1220   59.8760 C.2   264  PHE264      0.2620
     74  O         42.7230   12.6060   60.9390 O.2   264  PHE264     -0.2715
     75  CB        41.7800   15.5120   60.5130 C.3   264  PHE264      0.0574
     76  CG        42.3080   16.9180   60.5440 C.ar  264  PHE264     -0.0200
     77  CD1       43.5290   17.1880   61.1400 C.ar  264  PHE264     -0.0042
     78  CD2       41.6390   17.9470   59.9220 C.ar  264  PHE264     -0.0042
     79  CE1       44.0440   18.4670   61.1370 C.ar  264  PHE264     -0.0003
     80  CE2       42.1450   19.2250   59.9330 C.ar  264  PHE264     -0.0003
     81  CZ        43.3490   19.4890   60.5370 C.ar  264  PHE264     -0.0000
     82  N         41.7840   12.4190   58.9100 N.am  265  THR265     -0.1937
     83  CA        41.6690   10.9680   59.0320 C.3   265  THR265      0.2028
     84  C         43.0610   10.3010   58.8760 C.2   265  THR265      0.2643
     85  O         43.4020    9.3620   59.6080 O.2   265  THR265     -0.2714
     86  CB        40.6480   10.3910   58.0260 C.3   265  THR265      0.1808
     87  OG1       39.3350   10.9230   58.3030 O.3   265  THR265     -0.2208
     88  CG2       40.6210    8.8750   58.1120 C.3   265  THR265      0.0379
     89  N         43.8550   10.7970   57.9370 N.am  266  GLY266     -0.1939
     90  CA        45.2030   10.2680   57.7290 C.3   266  GLY266      0.2014
     91  C         45.1490    8.8760   57.1110 C.2   266  GLY266      0.2640
     92  O         44.1540    8.5440   56.4480 O.2   266  GLY266     -0.2714
     93  N         46.1820    8.0480   57.3080 N.am  267  SER267     -0.1935
     94  CA        47.3750    8.3370   58.1150 C.3   267  SER267      0.2055
     95  C         48.2160    9.4570   57.5220 C.2   267  SER267      0.2643
     96  O         48.0170    9.8330   56.3540 O.2   267  SER267     -0.2714
     97  CB        48.2620    7.0760   58.2050 C.3   267  SER267      0.2130
     98  OG        48.5550    6.5380   56.9030 O.3   267  SER267     -0.2179
     99  N         49.1760    9.9710   58.3020 N.am  268  ASP268     -0.1971
    100  CA        50.1130   10.9830   57.7750 C.3   268  ASP268      0.1709
    101  C         50.7550   10.4210   56.5050 C.2   268  ASP268      0.2293
    102  O         50.8250   11.0910   55.4690 O.2   268  ASP268     -0.2864
    103  CB        51.1920   11.3680   58.8090 C.3   268  ASP268      0.1436
    104  CG        51.6000   12.8530   58.7300 C.2   268  ASP268      0.3671
    105  OD1       51.0300   13.6140   57.9110 O.co2 268  ASP268     -0.2456
    106  OD2       52.4950   13.2680   59.5000 O.co2 268  ASP268     -0.2456
    107  N         48.3800   10.3410   53.4270 N.3   271  ASN271     -0.1240
    108  CA        48.1580   11.6820   52.8870 C.3   271  ASN271      0.1653
    109  C         49.3280   12.1230   52.0150 C.2   271  ASN271      0.2266
    110  O         49.1320   12.6770   50.9290 O.2   271  ASN271     -0.2867
    111  CB        47.9630   12.7160   54.0100 C.3   271  ASN271      0.1155
    112  CG        46.6380   12.5560   54.7600 C.2   271  ASN271      0.2627
    113  OD1       45.7490   11.7990   54.3560 O.2   271  ASN271     -0.2716
    114  ND2       46.5050   13.2870   55.8620 N.am  271  ASN271     -0.0877
    115  N         48.8810   13.1140   48.2690 N.3   275  ARG275     -0.1245
    116  CA        49.2910   14.4390   47.8270 C.3   275  ARG275      0.1563
    117  C         50.3580   14.3250   46.7480 C.2   275  ARG275      0.2260
    118  O         50.2080   14.9080   45.6740 O.2   275  ARG275     -0.2867
    119  CB        49.8010   15.2910   48.9990 C.3   275  ARG275      0.0307
    120  CG        48.6950   16.0520   49.7130 C.3   275  ARG275      0.0489
    121  CD        49.2450   17.1380   50.6200 C.3   275  ARG275      0.2205
    122  NE        49.4510   16.6630   51.9820 N.pl3 275  ARG275     -0.0865
    123  CZ        50.5770   16.1280   52.4480 C.cat 275  ARG275      0.5346
    124  NH1       51.6450   15.9710   51.6650 N.pl3 275  ARG275      0.1354
    125  NH2       50.6330   15.7370   53.7130 N.pl3 275  ARG275      0.1354
@<TRIPOS>BOND
     1   118   117    2
     2   117   116    1
     3   116   115    1
     4   116   119    1
     5   119   120    1
     6   120   121    1
     7   121   122    1
     8   110   109    2
     9   124   123    1
    10   122   123    2
    11   109   108    1
    12   123   125    1
    13   108   107    1
    14   108   111    1
    15   111   112    1
    16   113   112    2
    17   112   114   am
    18    59    60    1
    19    66    68   ar
    20    66    64   ar
    21   102   101    2
    22    68    69   ar
    23    63    60    1
    24    63    64    1
    25    60    61    1
    26    64    65   ar
    27    96    95    2
    28    92    91    2
    29   101   100    1
    30    98    97    1
    31    91    93   am
    32    91    90    1
    33    69    70    1
    34    69    67   ar
    35    93    94    1
    36    61    62    2
    37    61    71   am
    38    95    94    1
    39    95    99   am
    40    65    67   ar
    41    90    89    1
    42   100    99    1
    43   100   103    1
    44   105   104   ar
    45    89    84   am
    46    86    88    1
    47    86    87    1
    48    86    83    1
    49    94    97    1
    50    71    72    1
    51   104   103    1
    52   104   106   ar
    53    84    83    1
    54    84    85    2
    55    28    27    1
    56    28    29    1
    57    82    83    1
    58    82    73   am
    59    27    26    1
    60    72    73    1
    61    72    75    1
    62    73    74    2
    63    78    80   ar
    64    78    76   ar
    65    80    81   ar
    66    29    30    2
    67    26    23    1
    68    23    24    1
    69    23    22    1
    70    25    24    2
    71    75    76    1
    72    81    79   ar
    73    76    77   ar
    74    31    30    1
    75    30    32    1
    76    79    77   ar
    77    15    14    2
    78    12    13    1
    79    14    13    1
    80    14    16   am
    81    19    18    2
    82    17    16    1
    83    17    18    1
    84    17    20    1
    85    20    21    1
    86    55    56    1
    87    55    52    1
    88    54    53    2
    89    58    56   ar
    90    56    57   ar
    91    53    52    1
    92    52    51    1
    93    38    37    1
    94    11     9    1
    95    49    48   ar
    96    37    34    1
    97    10     9    1
    98     9     8    2
    99    34    33    1
   100    34    35    1
   101    46    45    2
   102    50    48   ar
   103    48    47    1
   104    39    35   am
   105    39    40    1
   106     8     7    1
   107    35    36    2
   108    45    44    1
   109    43    44    1
   110    43    41   am
   111    40    41    1
   112    47    44    1
   113    41    42    2
   114     7     6    1
   115     6     5    1
   116     5     2    1
   117     2     3    1
   118     2     1    1
   119     3     4    2
