@<TRIPOS>MOLECULE
tmp/5u2vA00.pdb
 139 139 0 0 0
SMALL
GASTEIGER

@<TRIPOS>ATOM
      1  N         -1.9620   62.5710  167.6390 N.3     8  TYR8       -0.1241
      2  CA        -2.4060   62.2610  166.2730 C.3     8  TYR8        0.1605
      3  C         -3.0150   60.8760  166.2250 C.2     8  TYR8        0.2264
      4  O         -2.4390   59.9010  166.7490 O.2     8  TYR8       -0.2867
      5  CB        -1.2730   62.3290  165.2660 C.3     8  TYR8        0.0534
      6  CG        -0.7560   63.7150  165.0430 C.ar    8  TYR8       -0.0201
      7  CD1       -1.3220   64.5580  164.0900 C.ar    8  TYR8       -0.0009
      8  CD2        0.3150   64.1830  165.7960 C.ar    8  TYR8       -0.0009
      9  CE1       -0.8310   65.8400  163.9050 C.ar    8  TYR8        0.0417
     10  CE2        0.8190   65.4320  165.6090 C.ar    8  TYR8        0.0417
     11  CZ         0.2550   66.2600  164.6800 C.ar    8  TYR8        0.1957
     12  OH         0.8180   67.5190  164.5440 O.3     8  TYR8       -0.2866
     13  N         -7.1170   60.7350  159.2650 N.3    25  SER25      -0.1217
     14  CA        -6.1010   61.0960  160.2440 C.3    25  SER25       0.1889
     15  C         -6.3300   62.5040  160.7550 C.2    25  SER25       0.2288
     16  O         -6.4440   63.4530  159.9810 O.2    25  SER25      -0.2866
     17  CB        -4.7120   60.9850  159.6510 C.3    25  SER25       0.2089
     18  OG        -3.7460   61.2290  160.6580 O.3    25  SER25      -0.2183
     19  N         -5.5250   69.5040  162.6200 N.3    35  THR35      -0.1218
     20  CA        -5.2420   69.0720  161.2590 C.3    35  THR35       0.1862
     21  C         -6.1470   67.9280  160.8800 C.2    35  THR35       0.2287
     22  O         -6.5990   67.1660  161.7450 O.2    35  THR35      -0.2866
     23  CB        -3.7930   68.5880  161.0520 C.3    35  THR35       0.1770
     24  OG1       -3.5600   67.4240  161.8600 O.3    35  THR35      -0.2211
     25  CG2       -2.7790   69.6810  161.3640 C.3    35  THR35       0.0375
     26  N         -4.1400   67.2970  153.0910 N.3    44  LYS44      -0.1245
     27  CA        -3.9460   67.7770  154.4410 C.3    44  LYS44       0.1561
     28  C         -4.4890   69.1880  154.6130 C.2    44  LYS44       0.2260
     29  O         -4.0910   70.1030  153.9000 O.2    44  LYS44      -0.2867
     30  CB        -2.4660   67.7600  154.8060 C.3    44  LYS44       0.0271
     31  CG        -2.2490   67.9340  156.2810 C.3    44  LYS44       0.0035
     32  CD        -2.5840   66.6360  156.9480 C.3    44  LYS44       0.0206
     33  CE        -2.3990   66.6490  158.4600 C.3    44  LYS44       0.1093
     34  NZ        -1.0350   67.0060  158.9340 N.3    44  LYS44      -0.1314
     35  N          3.7810   73.5490  153.6810 N.3    59  HIS59      -0.1226
     36  CA         3.6750   72.6260  154.8110 C.3    59  HIS59       0.1752
     37  C          2.5150   71.6830  154.5490 C.2    59  HIS59       0.2596
     38  O          2.6510   70.4600  154.6620 O.2    59  HIS59      -0.2718
     39  CB         3.4800   73.3540  156.1440 C.3    59  HIS59       0.0759
     40  CG         3.0390   72.4490  157.2600 C.ar   59  HIS59       0.0818
     41  ND1        3.9200   71.9120  158.1750 N.ar   59  HIS59      -0.2268
     42  CD2        1.8140   71.9680  157.5890 C.ar   59  HIS59       0.1154
     43  CE1        3.2540   71.1540  159.0280 C.ar   59  HIS59       0.1986
     44  NE2        1.9780   71.1570  158.6830 N.ar   59  HIS59      -0.2212
     45  N          1.3820   72.2490  154.1510 N.am   60  TRP60      -0.1976
     46  CA         0.2220   71.4310  153.8120 C.3    60  TRP60       0.1640
     47  C          0.5620   70.5150  152.6630 C.2    60  TRP60       0.2290
     48  O          0.2430   69.3200  152.6910 O.2    60  TRP60      -0.2864
     49  CB        -0.9750   72.3290  153.5090 C.3    60  TRP60       0.0576
     50  CG        -1.1750   73.2230  154.6950 C.ar   60  TRP60       0.0006
     51  CD1       -0.8800   74.5580  154.7880 C.ar   60  TRP60       0.0946
     52  CD2       -1.6030   72.8150  156.0010 C.ar   60  TRP60       0.0152
     53  NE1       -1.1410   75.0100  156.0640 N.ar   60  TRP60      -0.2442
     54  CE2       -1.5910   73.9620  156.8250 C.ar   60  TRP60       0.0810
     55  CE3       -2.0180   71.5960  156.5470 C.ar   60  TRP60       0.0012
     56  CZ2       -1.9780   73.9230  158.1640 C.ar   60  TRP60       0.0191
     57  CZ3       -2.4110   71.5590  157.8750 C.ar   60  TRP60       0.0001
     58  CH2       -2.3770   72.7170  158.6730 C.ar   60  TRP60       0.0015
     59  N          2.8320   67.6290  153.8670 N.3    63  TYR63      -0.1241
     60  CA         2.1790   66.6230  154.6970 C.3    63  TYR63       0.1605
     61  C          1.0720   65.9180  153.9390 C.2    63  TYR63       0.2264
     62  O          0.7000   64.7920  154.2960 O.2    63  TYR63      -0.2867
     63  CB         1.6760   67.2380  156.0180 C.3    63  TYR63       0.0534
     64  CG         2.8050   67.1930  157.0370 C.ar   63  TYR63      -0.0201
     65  CD1        3.7830   68.1880  157.0570 C.ar   63  TYR63      -0.0009
     66  CD2        2.9350   66.1220  157.9210 C.ar   63  TYR63      -0.0009
     67  CE1        4.8500   68.1320  157.9500 C.ar   63  TYR63       0.0417
     68  CE2        3.9960   66.0550  158.8180 C.ar   63  TYR63       0.0417
     69  CZ         4.9540   67.0620  158.8220 C.ar   63  TYR63       0.1957
     70  OH         6.0230   67.0180  159.7050 O.3    63  TYR63      -0.2866
     71  N          0.8930   61.8860  154.2790 N.3    67  LEU67      -0.1245
     72  CA        -0.3080   61.1190  154.6120 C.3    67  LEU67       0.1561
     73  C         -0.7430   60.1540  153.5260 C.2    67  LEU67       0.2260
     74  O         -1.2440   59.0710  153.8430 O.2    67  LEU67      -0.2867
     75  CB        -1.4630   62.0520  154.9770 C.3    67  LEU67       0.0270
     76  CG        -1.1830   62.2590  156.4760 C.3    67  LEU67       0.0019
     77  CD1       -1.3800   63.6480  156.8460 C.3    67  LEU67       0.0001
     78  CD2       -2.0020   61.3370  157.3810 C.3    67  LEU67       0.0001
     79  N          1.1770   57.2790  154.3080 N.3    70  TRP70      -0.1241
     80  CA         0.7610   56.6380  155.5570 C.3    70  TRP70       0.1605
     81  C         -0.5700   55.9400  155.3960 C.2    70  TRP70       0.2264
     82  O         -0.8130   54.8790  155.9850 O.2    70  TRP70      -0.2867
     83  CB         0.6890   57.6650  156.6900 C.3    70  TRP70       0.0550
     84  CG         2.0690   58.2120  157.0250 C.ar   70  TRP70       0.0003
     85  CD1        3.2640   57.6930  156.6330 C.ar   70  TRP70       0.0946
     86  CD2        2.3780   59.3980  157.7740 C.ar   70  TRP70       0.0152
     87  NE1        4.3010   58.4650  157.1070 N.ar   70  TRP70      -0.2442
     88  CE2        3.7820   59.5130  157.8170 C.ar   70  TRP70       0.0810
     89  CE3        1.6040   60.3670  158.4160 C.ar   70  TRP70       0.0012
     90  CZ2        4.4280   60.5530  158.4820 C.ar   70  TRP70       0.0191
     91  CZ3        2.2470   61.3980  159.0770 C.ar   70  TRP70       0.0001
     92  CH2        3.6470   61.4880  159.0950 C.ar   70  TRP70       0.0015
     93  N         -0.6910   58.4760  168.4740 N.3    97  ILE97      -0.1245
     94  CA         0.6090   58.8790  168.9580 C.3    97  ILE97       0.1561
     95  C          0.5080   60.2660  169.5780 C.2    97  ILE97       0.2260
     96  O         -0.3070   61.0840  169.1540 O.2    97  ILE97      -0.2867
     97  CB         1.6830   58.8710  167.8230 C.3    97  ILE97       0.0252
     98  CG1        3.1120   58.8290  168.4230 C.3    97  ILE97       0.0019
     99  CG2        1.4560   60.0470  166.8330 C.3    97  ILE97       0.0019
    100  CD1        4.2530   58.6670  167.3890 C.3    97  ILE97       0.0001
    101  N         11.3380   60.7930  168.5660 N.3   157  TRP157     -0.1241
    102  CA        10.2130   61.5800  168.0430 C.3   157  TRP157      0.1605
    103  C          9.2380   61.9590  169.1720 C.2   157  TRP157      0.2264
    104  O          8.8100   63.1110  169.2750 O.2   157  TRP157     -0.2867
    105  CB         9.4600   60.8330  166.9140 C.3   157  TRP157      0.0550
    106  CG         8.5760   61.7960  166.1760 C.ar  157  TRP157      0.0003
    107  CD1        8.9290   62.5780  165.1110 C.ar  157  TRP157      0.0946
    108  CD2        7.2370   62.1720  166.5270 C.ar  157  TRP157      0.0152
    109  NE1        7.8900   63.3960  164.7610 N.ar  157  TRP157     -0.2442
    110  CE2        6.8320   63.1670  165.6050 C.ar  157  TRP157      0.0810
    111  CE3        6.3340   61.7430  167.5100 C.ar  157  TRP157      0.0012
    112  CZ2        5.5510   63.7510  165.6300 C.ar  157  TRP157      0.0191
    113  CZ3        5.0610   62.3200  167.5440 C.ar  157  TRP157      0.0001
    114  CH2        4.6860   63.3280  166.6100 C.ar  157  TRP157      0.0015
    115  N          6.9130   70.1900  168.4140 N.3   165  TRP165     -0.1241
    116  CA         5.7050   70.5170  167.6540 C.3   165  TRP165      0.1605
    117  C          4.6460   71.1320  168.5590 C.2   165  TRP165      0.2264
    118  O          3.9800   72.1170  168.2060 O.2   165  TRP165     -0.2867
    119  CB         5.1240   69.2780  166.9630 C.3   165  TRP165      0.0550
    120  CG         5.8120   68.8490  165.6840 C.ar  165  TRP165      0.0003
    121  CD1        6.4900   67.6810  165.4540 C.ar  165  TRP165      0.0946
    122  CD2        5.8270   69.5690  164.4500 C.ar  165  TRP165      0.0152
    123  NE1        6.9310   67.6330  164.1350 N.ar  165  TRP165     -0.2442
    124  CE2        6.5440   68.7910  163.5120 C.ar  165  TRP165      0.0810
    125  CE3        5.2980   70.7950  164.0460 C.ar  165  TRP165      0.0012
    126  CZ2        6.7480   69.2100  162.2030 C.ar  165  TRP165      0.0191
    127  CZ3        5.5080   71.2100  162.7550 C.ar  165  TRP165      0.0001
    128  CH2        6.2190   70.4190  161.8430 C.ar  165  TRP165      0.0015
    129  N          2.7970   74.7630  168.3960 N.3   169  PHE169     -0.1241
    130  CA         1.3530   74.9330  168.1920 C.3   169  PHE169      0.1605
    131  C          0.7230   75.7050  169.3400 C.2   169  PHE169      0.2264
    132  O         -0.2320   76.4600  169.1310 O.2   169  PHE169     -0.2867
    133  CB         0.6560   73.5710  168.0230 C.3   169  PHE169      0.0534
    134  CG         1.0640   72.8430  166.7770 C.ar  169  PHE169     -0.0203
    135  CD1        1.6310   73.5430  165.7070 C.ar  169  PHE169     -0.0042
    136  CD2        0.8760   71.4710  166.6550 C.ar  169  PHE169     -0.0042
    137  CE1        2.0070   72.8930  164.5460 C.ar  169  PHE169     -0.0003
    138  CE2        1.2510   70.8160  165.4830 C.ar  169  PHE169     -0.0003
    139  CZ         1.8190   71.5280  164.4320 C.ar  169  PHE169     -0.0000
@<TRIPOS>BOND
     1    47    48    2
     2    47    46    1
     3    26    27    1
     4    49    46    1
     5    49    50    1
     6    73    74    2
     7    73    72    1
     8    35    36    1
     9    46    45    1
    10    59    60    1
    11    29    28    2
    12    61    62    2
    13    61    60    1
    14    45    37   am
    15    71    72    1
    16    79    80    1
    17    27    28    1
    18    27    30    1
    19    37    38    2
    20    37    36    1
    21    72    75    1
    22    50    51   ar
    23    50    52   ar
    24    60    63    1
    25    51    53   ar
    26    30    31    1
    27    36    39    1
    28    75    76    1
    29    81    80    1
    30    81    82    2
    31    80    83    1
    32    52    55   ar
    33    52    54   ar
    34    63    64    1
    35    53    54   ar
    36    39    40    1
    37    31    32    1
    38    76    77    1
    39    76    78    1
    40    55    57   ar
    41    85    84   ar
    42    85    87   ar
    43    83    84    1
    44    54    56   ar
    45    32    33    1
    46    84    86   ar
    47    64    65   ar
    48    64    66   ar
    49    65    67   ar
    50    87    88   ar
    51    40    42   ar
    52    40    41   ar
    53    42    44   ar
    54    86    88   ar
    55    86    89   ar
    56    88    90   ar
    57    57    58   ar
    58    66    68   ar
    59    67    69   ar
    60    56    58   ar
    61    41    43   ar
    62    89    91   ar
    63    33    34    1
    64    90    92   ar
    65    44    43   ar
    66    68    69   ar
    67    69    70    1
    68    91    92   ar
    69    13    14    1
    70    17    14    1
    71    17    18    1
    72    16    15    2
    73    14    15    1
    74    21    20    1
    75    21    22    2
    76    23    20    1
    77    23    25    1
    78    23    24    1
    79    20    19    1
    80   128   126   ar
    81   128   127   ar
    82   126   124   ar
    83   127   125   ar
    84   124   123   ar
    85   124   122   ar
    86     9     7   ar
    87     9    11   ar
    88   125   122   ar
    89     7     6   ar
    90   123   121   ar
    91   139   137   ar
    92   139   138   ar
    93   122   120   ar
    94    12    11    1
    95   137   135   ar
    96    11    10   ar
    97   109   107   ar
    98   109   110   ar
    99     6     5    1
   100     6     8   ar
   101   107   106   ar
   102     5     2    1
   103   121   120   ar
   104   138   136   ar
   105   110   112   ar
   106   110   108   ar
   107    10     8   ar
   108   112   114   ar
   109   120   119    1
   110   135   134   ar
   111   106   108   ar
   112   106   105    1
   113     3     2    1
   114     3     4    2
   115     2     1    1
   116   108   111   ar
   117   114   113   ar
   118   136   134   ar
   119   134   133    1
   120    99    97    1
   121   105   102    1
   122   119   116    1
   123   100    98    1
   124   111   113   ar
   125   116   115    1
   126   116   117    1
   127    97    98    1
   128    97    94    1
   129   133   130    1
   130   102   101    1
   131   102   103    1
   132   130   129    1
   133   130   131    1
   134   118   117    2
   135    93    94    1
   136    94    95    1
   137   132   131    2
   138    96    95    2
   139   103   104    2
