@<TRIPOS>MOLECULE
tmp/5u32A00.pdb
 122 115 0 0 0
SMALL
GASTEIGER

@<TRIPOS>ATOM
      1  N        -34.5930   21.6990   97.5440 N.3    15  ILE15      -0.1231
      2  CA       -34.9050   22.1200   96.1820 C.3    15  ILE15       0.1692
      3  C        -33.6520   22.0500   95.3210 C.2    15  ILE15       0.2593
      4  O        -32.5410   22.3790   95.7700 O.2    15  ILE15      -0.2718
      5  CB       -35.5140   23.5330   96.1800 C.3    15  ILE15       0.0266
      6  CG1      -36.8290   23.5380   96.9580 C.3    15  ILE15       0.0019
      7  CG2      -35.7210   24.0390   94.7600 C.3    15  ILE15       0.0020
      8  CD1      -37.4640   24.9150   97.1150 C.3    15  ILE15       0.0001
      9  N        -33.8230   21.5910   94.0830 N.am   16  GLY16      -0.1942
     10  CA       -32.7480   21.5790   93.1150 C.3    16  GLY16       0.2014
     11  C        -31.7380   20.4690   93.2700 C.2    16  GLY16       0.2639
     12  O        -30.7040   20.5090   92.6060 O.2    16  GLY16      -0.2714
     13  N        -32.0070   19.4740   94.1160 N.am   17  CYS17      -0.1953
     14  CA       -31.1450   18.3030   94.2520 C.3    17  CYS17       0.1843
     15  C        -31.2090   17.3710   93.0440 C.2    17  CYS17       0.2626
     16  O        -30.3530   16.4850   92.9220 O.2    17  CYS17      -0.2714
     17  CB       -31.5180   17.5180   95.5140 C.3    17  CYS17       0.0997
     18  SG       -30.9450   18.2430   97.0660 S.3    17  CYS17      -0.0797
     19  N        -32.1860   17.5480   92.1580 N.am   18  GLY18      -0.1940
     20  CA       -32.3700   16.6790   91.0180 C.3    18  GLY18       0.2014
     21  C        -33.5450   15.7250   91.0950 C.2    18  GLY18       0.2639
     22  O        -33.6210   14.8180   90.2610 O.2    18  GLY18      -0.2714
     23  N        -34.4710   15.9050   92.0560 N.am   19  LYS19      -0.1963
     24  CA       -35.5980   14.9800   92.2210 C.3    19  LYS19       0.1728
     25  C        -36.3810   14.8020   90.9310 C.2    19  LYS19       0.2617
     26  O        -36.6330   13.6760   90.4890 O.2    19  LYS19      -0.2715
     27  CB       -36.5640   15.4730   93.2940 C.3    19  LYS19       0.0311
     28  CG       -36.1410   15.3530   94.7100 C.3    19  LYS19       0.0038
     29  CD       -37.3240   15.7850   95.5930 C.3    19  LYS19       0.0206
     30  CE       -37.9090   17.1440   95.1740 C.3    19  LYS19       0.1093
     31  NZ       -36.9990   18.3210   95.4940 N.3    19  LYS19      -0.1314
     32  N        -36.8240   15.9040   90.3370 N.am   20  THR20      -0.1937
     33  CA       -37.7250   15.7750   89.2000 C.3    20  THR20       0.2028
     34  C        -36.9860   15.2590   87.9750 C.2    20  THR20       0.2642
     35  O        -37.5400   14.4640   87.2030 O.2    20  THR20      -0.2714
     36  CB       -38.4110   17.1100   88.9330 C.3    20  THR20       0.1808
     37  OG1      -39.1690   17.4580   90.0940 O.3    20  THR20      -0.2208
     38  CG2      -39.3660   17.0130   87.7480 C.3    20  THR20       0.0379
     39  N        -35.7210   15.6620   87.8060 N.am   21  THR21      -0.1950
     40  CA       -34.9240   15.1580   86.6900 C.3    21  THR21       0.1897
     41  C        -34.7130   13.6550   86.8120 C.2    21  THR21       0.2313
     42  O        -34.8740   12.9080   85.8420 O.2    21  THR21      -0.2863
     43  CB       -33.5830   15.8950   86.6370 C.3    21  THR21       0.1794
     44  OG1      -33.8260   17.3040   86.5120 O.3    21  THR21      -0.2208
     45  CG2      -32.7160   15.4050   85.4550 C.3    21  THR21       0.0378
     46  N        -45.3600   19.5650   93.2500 N.3    39  ASP39      -0.1239
     47  CA       -45.3370   20.8830   92.6250 C.3    39  ASP39       0.1674
     48  C        -46.5110   21.1090   91.6850 C.2    39  ASP39       0.2266
     49  O        -46.7820   22.2530   91.3190 O.2    39  ASP39      -0.2867
     50  CB       -44.0370   21.0630   91.8400 C.3    39  ASP39       0.1410
     51  CG       -42.8890   21.5050   92.7130 C.2    39  ASP39       0.3668
     52  OD1      -43.1670   22.0920   93.7770 O.co2  39  ASP39      -0.2456
     53  OD2      -41.7140   21.2740   92.3360 O.co2  39  ASP39      -0.2456
     54  N        -27.6480   25.5860   90.4630 N.3   122  ARG122     -0.1231
     55  CA       -28.5070   24.8260   89.5630 C.3   122  ARG122      0.1694
     56  C        -29.7970   25.5750   89.2850 C.2   122  ARG122      0.2591
     57  O        -30.2430   25.6500   88.1360 O.2   122  ARG122     -0.2718
     58  CB       -28.8320   23.4580   90.1540 C.3   122  ARG122      0.0321
     59  CG       -27.8820   22.3520   89.7680 C.3   122  ARG122      0.0489
     60  CD       -28.3640   21.0120   90.3200 C.3   122  ARG122      0.2205
     61  NE       -27.2520   20.0740   90.3880 N.pl3 122  ARG122     -0.0865
     62  CZ       -27.3070   18.8870   90.9740 C.cat 122  ARG122      0.5346
     63  NH1      -28.4380   18.4900   91.5560 N.pl3 122  ARG122      0.1354
     64  NH2      -26.2330   18.1100   90.9830 N.pl3 122  ARG122      0.1354
     65  N        -30.4100   26.1430   90.3220 N.am  123  VAL123     -0.1980
     66  CA       -31.7580   26.6780   90.1560 C.3   123  VAL123      0.1595
     67  C        -31.7280   28.0490   89.4810 C.2   123  VAL123      0.2287
     68  O        -32.5690   28.3420   88.6250 O.2   123  VAL123     -0.2864
     69  CB       -32.4980   26.6950   91.5130 C.3   123  VAL123      0.0276
     70  CG1      -33.8530   27.4030   91.4120 C.3   123  VAL123      0.0022
     71  CG2      -32.7130   25.2750   91.9930 C.3   123  VAL123      0.0022
     72  N        -29.4150   29.1470   87.3450 N.3   125  GLN125     -0.1245
     73  CA       -29.0190   28.9550   85.9520 C.3   125  GLN125      0.1566
     74  C        -30.1320   28.2920   85.1570 C.2   125  GLN125      0.2260
     75  O        -31.0550   28.9620   84.6980 O.2   125  GLN125     -0.2867
     76  CB       -27.7370   28.1220   85.8580 C.3   125  GLN125      0.0367
     77  CG       -26.5190   28.7830   86.4990 C.3   125  GLN125      0.0905
     78  CD       -25.2010   28.1100   86.1250 C.2   125  GLN125      0.2608
     79  OE1      -25.1580   27.2200   85.2720 O.2   125  GLN125     -0.2717
     80  NE2      -24.1240   28.5120   86.7950 N.am  125  GLN125     -0.0878
     81  N        -20.9310   18.5630   88.5840 N.3   166  ASP166     -0.1239
     82  CA       -20.6640   17.6150   87.5220 C.3   166  ASP166      0.1674
     83  C        -19.1670   17.5990   87.2260 C.2   166  ASP166      0.2266
     84  O        -18.5020   18.6380   87.2480 O.2   166  ASP166     -0.2867
     85  CB       -21.4950   17.9950   86.3050 C.3   166  ASP166      0.1410
     86  CG       -22.9440   18.3260   86.6880 C.2   166  ASP166      0.3668
     87  OD1      -23.5860   17.5100   87.3920 O.co2 166  ASP166     -0.2456
     88  OD2      -23.4350   19.4070   86.3270 O.co2 166  ASP166     -0.2456
     89  N        -23.2840   14.3960   84.5790 N.3   171  LYS171     -0.1231
     90  CA       -24.2030   15.0390   85.5100 C.3   171  LYS171      0.1693
     91  C        -24.4620   14.0900   86.6650 C.2   171  LYS171      0.2593
     92  O        -24.6120   12.8890   86.4580 O.2   171  LYS171     -0.2718
     93  CB       -25.5170   15.3900   84.8130 C.3   171  LYS171      0.0285
     94  CG       -25.3660   16.2400   83.5710 C.3   171  LYS171      0.0035
     95  CD       -25.2820   17.6980   83.9350 C.3   171  LYS171      0.0206
     96  CE       -25.2280   18.6030   82.7020 C.3   171  LYS171      0.1093
     97  NZ       -23.8420   18.8430   82.1760 N.3   171  LYS171     -0.1314
     98  N        -24.4770   14.6110   87.8960 N.am  172  SER172     -0.1938
     99  CA       -24.6670   13.6780   89.0040 C.3   172  SER172      0.2055
    100  C        -26.0780   13.0950   89.0010 C.2   172  SER172      0.2643
    101  O        -26.2580   11.9510   89.4190 O.2   172  SER172     -0.2714
    102  CB       -24.3010   14.3140   90.3590 C.3   172  SER172      0.2130
    103  OG       -25.2290   15.2530   90.8420 O.3   172  SER172     -0.2179
    104  N        -27.0680   13.8030   88.4560 N.am  173  SER173     -0.1949
    105  CA       -28.3830   13.1690   88.3140 C.3   173  SER173      0.1924
    106  C        -28.3310   11.9410   87.4010 C.2   173  SER173      0.2314
    107  O        -29.0700   10.9730   87.6210 O.2   173  SER173     -0.2863
    108  CB       -29.4050   14.1690   87.7940 C.3   173  SER173      0.2116
    109  OG       -29.6620   15.1760   88.7590 O.3   173  SER173     -0.2180
    110  N        -34.9370   14.1700   80.1030 N.3   208  ALA208     -0.1231
    111  CA       -35.2830   14.8110   81.3690 C.3   208  ALA208      0.1694
    112  C        -34.4730   16.0820   81.5820 C.2   208  ALA208      0.2591
    113  O        -35.0290   17.1150   81.9810 O.2   208  ALA208     -0.2718
    114  CB       -35.0560   13.8410   82.5260 C.3   208  ALA208      0.0304
    115  N        -33.1520   16.0170   81.3390 N.am  209  LEU209     -0.1980
    116  CA       -32.3000   17.1900   81.5390 C.3   209  LEU209      0.1596
    117  C        -32.8220   18.3880   80.7560 C.2   209  LEU209      0.2287
    118  O        -32.9440   19.4910   81.3060 O.2   209  LEU209     -0.2864
    119  CB       -30.8480   16.8760   81.1540 C.3   209  LEU209      0.0297
    120  CG       -29.7760   17.8500   81.6690 C.3   209  LEU209      0.0022
    121  CD1      -29.7250   17.8450   83.1940 C.3   209  LEU209      0.0001
    122  CD2      -28.3680   17.5670   81.0900 C.3   209  LEU209      0.0001
@<TRIPOS>BOND
     1   110   111    1
     2   117   118    2
     3   117   116    1
     4   122   120    1
     5   119   116    1
     6   119   120    1
     7   115   116    1
     8   115   112   am
     9   111   112    1
    10   111   114    1
    11   112   113    2
    12   120   121    1
    13    97    96    1
    14    96    95    1
    15    94    95    1
    16    94    93    1
    17    89    90    1
    18    75    74    2
    19    93    90    1
    20    74    73    1
    21    79    78    2
    22    45    43    1
    23    90    91    1
    24    42    41    2
    25    76    73    1
    26    76    77    1
    27    73    72    1
    28    78    77    1
    29    78    80   am
    30    85    86    1
    31    85    82    1
    32    88    86   ar
    33    92    91    2
    34    44    43    1
    35    43    40    1
    36    91    98   am
    37    86    87   ar
    38    40    41    1
    39    40    39    1
    40    35    34    2
    41    83    84    2
    42    83    82    1
    43   106   107    2
    44   106   105    1
    45    82    81    1
    46    38    36    1
    47   108   105    1
    48   108   109    1
    49    39    34   am
    50    98    99    1
    51    34    33    1
    52    57    56    2
    53   105   104    1
    54   104   100   am
    55    68    67    2
    56    36    33    1
    57    36    37    1
    58   100    99    1
    59   100   101    2
    60    99   102    1
    61    33    32    1
    62    56    55    1
    63    56    65   am
    64    67    66    1
    65    55    58    1
    66    55    54    1
    67    59    58    1
    68    59    60    1
    69    66    65    1
    70    66    69    1
    71    22    21    2
    72    60    61    1
    73    32    25   am
    74   102   103    1
    75    61    62    2
    76    26    25    2
    77    25    24    1
    78    62    64    1
    79    62    63    1
    80    20    21    1
    81    20    19    1
    82    21    23   am
    83    49    48    2
    84    70    69    1
    85    69    71    1
    86    48    47    1
    87    50    47    1
    88    50    51    1
    89    23    24    1
    90    19    15   am
    91    24    27    1
    92    53    51   ar
    93    12    11    2
    94    47    46    1
    95    51    52   ar
    96    16    15    2
    97    15    14    1
    98    10    11    1
    99    10     9    1
   100    11    13   am
   101    27    28    1
   102     9     3   am
   103    13    14    1
   104    14    17    1
   105    28    29    1
   106     7     5    1
   107    30    31    1
   108    30    29    1
   109     3     4    2
   110     3     2    1
   111    17    18    1
   112     5     2    1
   113     5     6    1
   114     2     1    1
   115     6     8    1
