@<TRIPOS>MOLECULE
tmp/5u35A00.pdb
 168 156 0 0 0
SMALL
GASTEIGER

@<TRIPOS>ATOM
      1  N         -6.9310    1.4720   -3.8570 N.3    20  PHE20      -0.1241
      2  CA        -5.5660    1.3340   -4.3580 C.3    20  PHE20       0.1605
      3  C         -4.5520    1.9760   -3.4230 C.2    20  PHE20       0.2264
      4  O         -3.5390    1.3700   -3.0690 O.2    20  PHE20      -0.2867
      5  CB        -5.4170    1.9760   -5.7410 C.3    20  PHE20       0.0534
      6  CG        -5.6820    1.0390   -6.8880 C.ar   20  PHE20      -0.0203
      7  CD1       -4.6870    0.2000   -7.3660 C.ar   20  PHE20      -0.0042
      8  CD2       -6.9150    1.0300   -7.5150 C.ar   20  PHE20      -0.0042
      9  CE1       -4.9310   -0.6550   -8.4320 C.ar   20  PHE20      -0.0003
     10  CE2       -7.1660    0.1800   -8.5810 C.ar   20  PHE20      -0.0003
     11  CZ        -6.1720   -0.6620   -9.0430 C.ar   20  PHE20      -0.0000
     12  N         -7.6700   -4.4560   -1.5160 N.3    25  PRO25      -0.2116
     13  CA        -8.2490   -5.0650   -2.7210 C.3    25  PRO25       0.1372
     14  C         -9.7070   -5.4930   -2.5490 C.2    25  PRO25       0.2244
     15  O        -10.4460   -5.5130   -3.5340 O.2    25  PRO25      -0.2868
     16  CB        -7.3490   -6.2810   -2.9690 C.3    25  PRO25       0.0268
     17  CG        -6.7670   -6.6010   -1.6290 C.3    25  PRO25       0.0207
     18  CD        -6.5800   -5.2740   -0.9550 C.3    25  PRO25       0.0892
     19  N        -12.1050   -3.1370   -3.9030 N.3    28  ILE28      -0.1231
     20  CA       -12.1820   -3.1890   -5.3620 C.3    28  ILE28       0.1692
     21  C        -13.0230   -4.3720   -5.8140 C.2    28  ILE28       0.2591
     22  O        -13.8640   -4.2430   -6.7020 O.2    28  ILE28      -0.2718
     23  CB       -10.7930   -3.2940   -6.0220 C.3    28  ILE28       0.0266
     24  CG1       -9.9930   -2.0150   -5.7860 C.3    28  ILE28       0.0019
     25  CG2      -10.9300   -3.5160   -7.5140 C.3    28  ILE28       0.0020
     26  CD1       -8.4980   -2.2160   -5.8690 C.3    28  ILE28       0.0001
     27  N        -12.8080   -5.5220   -5.1810 N.am   29  VAL29      -0.1980
     28  CA       -13.5320   -6.7340   -5.5530 C.3    29  VAL29       0.1595
     29  C        -15.0230   -6.5560   -5.3420 C.2    29  VAL29       0.2287
     30  O        -15.8330   -6.9960   -6.1590 O.2    29  VAL29      -0.2864
     31  CB       -13.0430   -7.9510   -4.7460 C.3    29  VAL29       0.0276
     32  CG1      -13.8920   -9.1840   -5.0520 C.3    29  VAL29       0.0022
     33  CG2      -11.5820   -8.2130   -5.0500 C.3    29  VAL29       0.0022
     34  N        -16.7920   -4.9860   -8.2680 N.3    32  LEU32      -0.1245
     35  CA       -16.7900   -5.7230   -9.5240 C.3    32  LEU32       0.1561
     36  C        -18.1270   -6.4090   -9.7660 C.2    32  LEU32       0.2260
     37  O        -18.6880   -7.0170   -8.8600 O.2    32  LEU32      -0.2867
     38  CB       -15.6730   -6.7610   -9.5230 C.3    32  LEU32       0.0270
     39  CG       -14.2480   -6.2260   -9.3370 C.3    32  LEU32       0.0019
     40  CD1      -13.2530   -7.3460   -9.5490 C.3    32  LEU32       0.0001
     41  CD2      -13.9840   -5.0810  -10.2950 C.3    32  LEU32       0.0001
     42  N        -11.9230   -9.1160  -17.2260 N.3    38  VAL38      -0.1245
     43  CA       -10.6220   -8.4990  -16.9820 C.3    38  VAL38       0.1561
     44  C         -9.5970   -8.9280  -18.0310 C.2    38  VAL38       0.2260
     45  O         -9.4150  -10.1160  -18.2920 O.2    38  VAL38      -0.2867
     46  CB       -10.0720   -8.8580  -15.5840 C.3    38  VAL38       0.0252
     47  CG1       -8.7400   -8.1650  -15.3480 C.3    38  VAL38       0.0019
     48  CG2      -11.0740   -8.4880  -14.4990 C.3    38  VAL38       0.0019
     49  N         -5.5470   -8.3550  -18.9490 N.3    40  VAL40      -0.1245
     50  CA        -4.2020   -7.8670  -18.6780 C.3    40  VAL40       0.1561
     51  C         -3.2000   -8.7780  -19.3900 C.2    40  VAL40       0.2260
     52  O         -3.1510   -9.9810  -19.1410 O.2    40  VAL40      -0.2867
     53  CB        -3.9050   -7.8000  -17.1620 C.3    40  VAL40       0.0252
     54  CG1       -4.3350   -9.0800  -16.4620 C.3    40  VAL40       0.0019
     55  CG2       -2.4400   -7.4920  -16.9160 C.3    40  VAL40       0.0019
     56  N         -9.7250  -12.8400  -17.5950 N.3    45  PHE45      -0.1241
     57  CA       -10.4770  -13.3790  -16.4730 C.3    45  PHE45       0.1605
     58  C        -11.9530  -13.0320  -16.5920 C.2    45  PHE45       0.2264
     59  O        -12.3080  -11.9370  -17.0200 O.2    45  PHE45      -0.2867
     60  CB        -9.9270  -12.8570  -15.1470 C.3    45  PHE45       0.0534
     61  CG        -8.4610  -13.1100  -14.9600 C.ar   45  PHE45      -0.0203
     62  CD1       -8.0110  -14.3260  -14.4700 C.ar   45  PHE45      -0.0042
     63  CD2       -7.5330  -12.1280  -15.2590 C.ar   45  PHE45      -0.0042
     64  CE1       -6.6580  -14.5630  -14.2920 C.ar   45  PHE45      -0.0003
     65  CE2       -6.1790  -12.3570  -15.0820 C.ar   45  PHE45      -0.0003
     66  CZ        -5.7430  -13.5760  -14.6010 C.ar   45  PHE45      -0.0000
     67  N        -11.5430  -12.7500  -10.6150 N.3    51  ALA51      -0.1245
     68  CA       -10.8350  -11.4790  -10.5250 C.3    51  ALA51       0.1562
     69  C        -10.2460  -11.3130   -9.1280 C.2    51  ALA51       0.2260
     70  O         -9.1330  -10.8130   -8.9710 O.2    51  ALA51      -0.2867
     71  CB       -11.7560  -10.3230  -10.8620 C.3    51  ALA51       0.0290
     72  N         -7.0670  -13.2810   -8.8380 N.3    54  ALA54      -0.1231
     73  CA        -5.9750  -12.5970   -9.5220 C.3    54  ALA54       0.1694
     74  C         -5.4550  -11.4100   -8.7110 C.2    54  ALA54       0.2591
     75  O         -4.2500  -11.1690   -8.6560 O.2    54  ALA54      -0.2718
     76  CB        -6.4210  -12.1410  -10.9070 C.3    54  ALA54       0.0304
     77  N         -6.3690  -10.6650   -8.0960 N.am   55  ALA55      -0.1980
     78  CA        -5.9990   -9.5130   -7.2850 C.3    55  ALA55       0.1597
     79  C         -5.1640   -9.9420   -6.0780 C.2    55  ALA55       0.2287
     80  O         -4.1670   -9.3040   -5.7510 O.2    55  ALA55      -0.2864
     81  CB        -7.2350   -8.7560   -6.8340 C.3    55  ALA55       0.0319
     82  N         -1.5930  -10.9900   -7.0860 N.3    58  LEU58      -0.1231
     83  CA        -0.7770   -9.8160   -7.3610 C.3    58  LEU58       0.1693
     84  C         -0.3290   -9.1380   -6.0680 C.2    58  LEU58       0.2591
     85  O          0.8400   -8.7870   -5.9160 O.2    58  LEU58      -0.2718
     86  CB        -1.5540   -8.8330   -8.2450 C.3    58  LEU58       0.0284
     87  CG        -0.8430   -7.5750   -8.7420 C.3    58  LEU58       0.0019
     88  CD1        0.4190   -7.9490   -9.4990 C.3    58  LEU58       0.0001
     89  CD2       -1.7760   -6.7620   -9.6230 C.3    58  LEU58       0.0001
     90  N         -1.2600   -8.9740   -5.1350 N.am   59  MET59      -0.1979
     91  CA        -0.9730   -8.2800   -3.8860 C.3    59  MET59       0.1605
     92  C          0.0630   -9.0220   -3.0370 C.2    59  MET59       0.2287
     93  O          0.7380   -8.4120   -2.2090 O.2    59  MET59      -0.2864
     94  CB        -2.2590   -8.0660   -3.0830 C.3    59  MET59       0.0413
     95  CG        -2.6030   -9.1890   -2.1170 C.3    59  MET59       0.0598
     96  SD        -3.9480   -8.7560   -0.9970 S.3    59  MET59      -0.1393
     97  CE        -3.3000   -7.2560   -0.2590 C.3    59  MET59       0.0692
     98  N          2.3360    0.4960   -3.3200 N.3    65  VAL65      -0.1245
     99  CA         1.4580    0.9990   -4.3670 C.3    65  VAL65       0.1561
    100  C          1.4550    2.5150   -4.3070 C.2    65  VAL65       0.2260
    101  O          1.3090    3.1050   -3.2340 O.2    65  VAL65      -0.2867
    102  CB         0.0160    0.4650   -4.2220 C.3    65  VAL65       0.0252
    103  CG1       -0.8900    1.0690   -5.2920 C.3    65  VAL65       0.0019
    104  CG2       -0.0060   -1.0500   -4.3090 C.3    65  VAL65       0.0019
    105  N          3.6020    0.0600   -9.0970 N.3    83  PHE83      -0.1241
    106  CA         3.7210   -1.0680   -8.1860 C.3    83  PHE83       0.1605
    107  C          5.1900   -1.3790   -7.9490 C.2    83  PHE83       0.2264
    108  O          5.9880   -1.3800   -8.8860 O.2    83  PHE83      -0.2867
    109  CB         3.0410   -2.3300   -8.7360 C.3    83  PHE83       0.0534
    110  CG         1.5280   -2.3250   -8.6440 C.ar   83  PHE83      -0.0203
    111  CD1        0.8480   -1.2650   -8.0780 C.ar   83  PHE83      -0.0042
    112  CD2        0.8020   -3.4160   -9.0920 C.ar   83  PHE83      -0.0042
    113  CE1       -0.5320   -1.2750   -7.9910 C.ar   83  PHE83      -0.0003
    114  CE2       -0.5800   -3.4350   -9.0090 C.ar   83  PHE83      -0.0003
    115  CZ        -1.2450   -2.3640   -8.4530 C.ar   83  PHE83      -0.0000
    116  N         -4.8360    1.0800  -14.8960 N.3    94  PHE94      -0.1241
    117  CA        -6.0570    0.3010  -14.6970 C.3    94  PHE94       0.1605
    118  C         -7.2250    1.1270  -15.2040 C.2    94  PHE94       0.2264
    119  O         -7.4080    2.2600  -14.7740 O.2    94  PHE94      -0.2867
    120  CB        -6.2810   -0.0370  -13.2170 C.3    94  PHE94       0.0534
    121  CG        -5.3310   -1.0620  -12.6540 C.ar   94  PHE94      -0.0203
    122  CD1       -4.0260   -0.7250  -12.3320 C.ar   94  PHE94      -0.0042
    123  CD2       -5.7620   -2.3580  -12.4040 C.ar   94  PHE94      -0.0042
    124  CE1       -3.1660   -1.6780  -11.8020 C.ar   94  PHE94      -0.0003
    125  CE2       -4.9160   -3.3040  -11.8710 C.ar   94  PHE94      -0.0003
    126  CZ        -3.6120   -2.9690  -11.5680 C.ar   94  PHE94      -0.0000
    127  N        -11.3500    1.0360  -15.3540 N.3    96  PHE96      -0.1241
    128  CA       -12.5540    0.3820  -14.8640 C.3    96  PHE96       0.1605
    129  C        -13.7560    0.9900  -15.5820 C.2    96  PHE96       0.2264
    130  O        -14.0080    2.1880  -15.4550 O.2    96  PHE96      -0.2867
    131  CB       -12.6950    0.5660  -13.3470 C.3    96  PHE96       0.0534
    132  CG       -11.5370    0.0250  -12.5550 C.ar   96  PHE96      -0.0203
    133  CD1      -10.4250    0.8170  -12.3030 C.ar   96  PHE96      -0.0042
    134  CD2      -11.5600   -1.2690  -12.0610 C.ar   96  PHE96      -0.0042
    135  CE1       -9.3590    0.3250  -11.5730 C.ar   96  PHE96      -0.0003
    136  CE2      -10.4870   -1.7650  -11.3240 C.ar   96  PHE96      -0.0003
    137  CZ        -9.3880   -0.9620  -11.0920 C.ar   96  PHE96      -0.0000
    138  N        -12.5520   -4.5360  -16.7970 N.3   106  VAL106     -0.1245
    139  CA       -11.3010   -3.9440  -16.3640 C.3   106  VAL106      0.1561
    140  C        -10.2430   -4.1620  -17.4340 C.2   106  VAL106      0.2260
    141  O         -9.9940   -5.2870  -17.8620 O.2   106  VAL106     -0.2867
    142  CB       -10.8090   -4.5360  -15.0160 C.3   106  VAL106      0.0252
    143  CG1       -9.5230   -3.8310  -14.5580 C.3   106  VAL106      0.0019
    144  CG2      -11.8920   -4.4290  -13.9440 C.3   106  VAL106      0.0019
    145  N         -6.2350   -3.4740  -18.2170 N.3   108  ILE108     -0.1245
    146  CA        -4.9710   -3.1350  -17.5720 C.3   108  ILE108      0.1561
    147  C         -3.8300   -3.0460  -18.5740 C.2   108  ILE108      0.2260
    148  O         -3.4920   -4.0270  -19.2330 O.2   108  ILE108     -0.2867
    149  CB        -4.6070   -4.1680  -16.4950 C.3   108  ILE108      0.0252
    150  CG1       -5.7770   -4.3600  -15.5290 C.3   108  ILE108      0.0019
    151  CG2       -3.3400   -3.7450  -15.7420 C.3   108  ILE108      0.0019
    152  CD1       -5.5860   -5.5110  -14.5720 C.3   108  ILE108      0.0001
    153  N          4.2070  -10.4060  -14.6980 N.3   118  MET118     -0.1245
    154  CA         2.7750  -10.4630  -14.4200 C.3   118  MET118      0.1570
    155  C          2.1610  -11.8160  -14.7690 C.2   118  MET118      0.2261
    156  O          1.2010  -12.2590  -14.1290 O.2   118  MET118     -0.2867
    157  CB         2.0470   -9.3550  -15.1750 C.3   118  MET118      0.0387
    158  CG         0.5510   -9.3340  -14.9420 C.3   118  MET118      0.0595
    159  SD         0.1470   -8.7460  -13.2900 S.3   118  MET118     -0.1393
    160  CE         0.9910   -7.1690  -13.2970 C.3   118  MET118      0.0692
    161  N          0.1050  -14.0160  -11.9650 N.3   122  LEU122     -0.1245
    162  CA        -1.3140  -14.2980  -12.1640 C.3   122  LEU122      0.1561
    163  C         -1.6070  -15.7810  -12.3810 C.2   122  LEU122      0.2260
    164  O         -2.6860  -16.2580  -12.0270 O.2   122  LEU122     -0.2867
    165  CB        -1.8530  -13.4770  -13.3330 C.3   122  LEU122      0.0270
    166  CG        -1.9960  -11.9880  -13.0160 C.3   122  LEU122      0.0019
    167  CD1       -2.6020  -11.2300  -14.1870 C.3   122  LEU122      0.0001
    168  CD2       -2.8290  -11.7920  -11.7530 C.3   122  LEU122      0.0001
@<TRIPOS>BOND
     1    51    52    2
     2    51    50    1
     3   148   147    2
     4    49    50    1
     5    50    53    1
     6   147   146    1
     7    45    44    2
     8   145   146    1
     9    44    43    1
    10   141   140    2
    11    56    57    1
    12   146   149    1
    13   140   139    1
    14    42    43    1
    15    53    55    1
    16    53    54    1
    17    59    58    2
    18    43    46    1
    19   138   139    1
    20    58    57    1
    21   149   151    1
    22   149   150    1
    23    57    60    1
    24   139   142    1
    25    46    47    1
    26    46    48    1
    27   129   130    2
    28   129   128    1
    29   150   152    1
    30   127   128    1
    31    63    65   ar
    32    63    61   ar
    33   118   119    2
    34   118   117    1
    35   157   158    1
    36   157   154    1
    37    60    61    1
    38    65    66   ar
    39   142   143    1
    40   142   144    1
    41    61    62   ar
    42   158   159    1
    43   116   117    1
    44   128   131    1
    45   155   154    1
    46   155   156    2
    47   153   154    1
    48   117   120    1
    49    66    64   ar
    50    62    64   ar
    51   167   166    1
    52   131   132    1
    53   165   166    1
    54   165   162    1
    55   160   159    1
    56   120   121    1
    57   166   168    1
    58   121   123   ar
    59   121   122   ar
    60   132   133   ar
    61   132   134   ar
    62   123   125   ar
    63   163   162    1
    64   163   164    2
    65   122   124   ar
    66   133   135   ar
    67   162   161    1
    68   134   136   ar
    69   125   126   ar
    70   124   126   ar
    71   135   137   ar
    72   136   137   ar
    73    76    73    1
    74    71    68    1
    75    67    68    1
    76    68    69    1
    77    41    39    1
    78    36    35    1
    79    36    37    2
    80    89    87    1
    81    40    39    1
    82    35    38    1
    83    35    34    1
    84    38    39    1
    85    73    72    1
    86    73    74    1
    87    88    87    1
    88    69    70    2
    89   105   106    1
    90   112   114   ar
    91   112   110   ar
    92    11    10   ar
    93    11     9   ar
    94   114   115   ar
    95   108   107    2
    96    87    86    1
    97   109   110    1
    98   109   106    1
    99    74    75    2
   100    74    77   am
   101   110   111   ar
   102    10     8   ar
   103   115   113   ar
   104     9     7   ar
   105    86    83    1
   106   106   107    1
   107    77    78    1
   108   111   113   ar
   109     8     6   ar
   110    25    23    1
   111     7     6   ar
   112    83    82    1
   113    83    84    1
   114    78    81    1
   115    78    79    1
   116     6     5    1
   117    22    21    2
   118    30    29    2
   119    79    80    2
   120    84    85    2
   121    84    90   am
   122    23    24    1
   123    23    20    1
   124    26    24    1
   125    21    20    1
   126    21    27   am
   127     5     2    1
   128    28    29    1
   129    28    27    1
   130    28    31    1
   131    20    19    1
   132   103   102    1
   133    90    91    1
   134    32    31    1
   135    33    31    1
   136    99   100    1
   137    99   102    1
   138    99    98    1
   139     2     1    1
   140     2     3    1
   141   104   102    1
   142   100   101    2
   143    91    94    1
   144    91    92    1
   145    15    14    2
   146     3     4    2
   147    94    95    1
   148    92    93    2
   149    16    13    1
   150    16    17    1
   151    13    14    1
   152    13    12    1
   153    95    96    1
   154    17    18    1
   155    12    18    1
   156    96    97    1
