@<TRIPOS>MOLECULE
tmp/5u35B00.pdb
 194 179 0 0 0
SMALL
GASTEIGER

@<TRIPOS>ATOM
      1  N         -8.5870   11.2340  -37.7160 N.3    19  ALA19      -0.1231
      2  CA        -9.0650   10.0620  -38.4440 C.3    19  ALA19       0.1694
      3  C        -10.5160    9.7340  -38.0980 C.2    19  ALA19       0.2592
      4  O        -11.3240    9.4440  -38.9850 O.2    19  ALA19      -0.2718
      5  CB        -8.1750    8.8680  -38.1580 C.3    19  ALA19       0.0304
      6  N        -10.8470    9.8020  -36.8140 N.am   20  PHE20      -0.1976
      7  CA       -12.2170    9.5560  -36.3800 C.3    20  PHE20       0.1639
      8  C        -13.1480   10.6380  -36.9130 C.2    20  PHE20       0.2290
      9  O        -14.2410   10.3410  -37.3970 O.2    20  PHE20      -0.2864
     10  CB       -12.3050    9.4680  -34.8580 C.3    20  PHE20       0.0560
     11  CG       -12.1830    8.0690  -34.3260 C.ar   20  PHE20      -0.0200
     12  CD1      -13.2950    7.2410  -34.2600 C.ar   20  PHE20      -0.0042
     13  CD2      -10.9650    7.5830  -33.8830 C.ar   20  PHE20      -0.0042
     14  CE1      -13.1910    5.9510  -33.7660 C.ar   20  PHE20      -0.0003
     15  CE2      -10.8540    6.2930  -33.3840 C.ar   20  PHE20      -0.0003
     16  CZ       -11.9650    5.4770  -33.3250 C.ar   20  PHE20      -0.0000
     17  N        -13.9010   10.1930  -40.5030 N.3    23  GLY23      -0.1225
     18  CA       -14.3770    8.8800  -40.8900 C.3    23  GLY23       0.1811
     19  C        -13.3680    8.2670  -41.8420 C.2    23  GLY23       0.2280
     20  O        -13.7030    7.8490  -42.9500 O.2    23  GLY23      -0.2866
     21  N        -10.8110    5.3490  -41.5060 N.3    25  PRO25      -0.2116
     22  CA       -10.2880    4.2040  -40.7500 C.3    25  PRO25       0.1372
     23  C         -8.8530    3.8190  -41.1050 C.2    25  PRO25       0.2244
     24  O         -8.1410    3.3000  -40.2480 O.2    25  PRO25      -0.2868
     25  CB       -11.2490    3.0690  -41.1240 C.3    25  PRO25       0.0268
     26  CG       -12.4900    3.7520  -41.5950 C.3    25  PRO25       0.0207
     27  CD       -12.0160    4.9940  -42.2760 C.3    25  PRO25       0.0892
     28  N         -6.0320    5.1160  -38.8510 N.3    28  ILE28      -0.1231
     29  CA        -5.9390    4.4540  -37.5530 C.3    28  ILE28       0.1692
     30  C         -5.2360    3.1020  -37.6620 C.2    28  ILE28       0.2591
     31  O         -4.4100    2.7570  -36.8170 O.2    28  ILE28      -0.2718
     32  CB        -7.3260    4.2700  -36.9180 C.3    28  ILE28       0.0266
     33  CG1       -7.9390    5.6360  -36.6070 C.3    28  ILE28       0.0019
     34  CG2       -7.2240    3.4430  -35.6440 C.3    28  ILE28       0.0020
     35  CD1       -9.4400    5.6390  -36.5510 C.3    28  ILE28       0.0001
     36  N         -5.5580    2.3460  -38.7080 N.am   29  VAL29      -0.1980
     37  CA        -4.9630    1.0270  -38.9090 C.3    29  VAL29       0.1595
     38  C         -3.4460    1.1230  -39.0790 C.2    29  VAL29       0.2287
     39  O         -2.6970    0.2690  -38.6000 O.2    29  VAL29      -0.2864
     40  CB        -5.5710    0.3250  -40.1340 C.3    29  VAL29       0.0276
     41  CG1       -4.8670   -1.0000  -40.4060 C.3    29  VAL29       0.0022
     42  CG2       -7.0560    0.1090  -39.9240 C.3    29  VAL29       0.0022
     43  N         -1.3810    1.0760  -35.8650 N.3    32  LEU32      -0.1245
     44  CA        -1.3690   -0.1300  -35.0440 C.3    32  LEU32       0.1561
     45  C         -0.0270   -0.8490  -35.1340 C.2    32  LEU32       0.2260
     46  O          0.5050   -1.0330  -36.2270 O.2    32  LEU32      -0.2867
     47  CB        -2.4900   -1.0770  -35.4720 C.3    32  LEU32       0.0270
     48  CG        -3.9290   -0.5570  -35.4010 C.3    32  LEU32       0.0019
     49  CD1       -4.9170   -1.6830  -35.6550 C.3    32  LEU32       0.0001
     50  CD2       -4.2050    0.1090  -34.0650 C.3    32  LEU32       0.0001
     51  N         -6.2690   -6.3240  -29.4130 N.3    38  VAL38      -0.1245
     52  CA        -7.5570   -5.6510  -29.4010 C.3    38  VAL38       0.1561
     53  C         -8.5660   -6.4390  -28.5780 C.2    38  VAL38       0.2260
     54  O         -8.7440   -7.6390  -28.7760 O.2    38  VAL38      -0.2867
     55  CB        -8.1170   -5.4500  -30.8220 C.3    38  VAL38       0.0252
     56  CG1       -9.4480   -4.7240  -30.7630 C.3    38  VAL38       0.0019
     57  CG2       -7.1140   -4.6870  -31.6890 C.3    38  VAL38       0.0019
     58  N        -12.5750   -6.3250  -27.5310 N.3    40  VAL40      -0.1245
     59  CA       -13.9060   -5.7500  -27.6630 C.3    40  VAL40       0.1561
     60  C        -14.9900   -6.7840  -27.3570 C.2    40  VAL40       0.2260
     61  O        -15.0870   -7.8120  -28.0260 O.2    40  VAL40      -0.2867
     62  CB       -14.1170   -5.1460  -29.0760 C.3    40  VAL40       0.0252
     63  CG1      -13.6440   -6.1050  -30.1650 C.3    40  VAL40       0.0019
     64  CG2      -15.5680   -4.7370  -29.2770 C.3    40  VAL40       0.0019
     65  N        -14.9840  -10.8320  -27.6460 N.3    43  GLN43      -0.1245
     66  CA       -13.9900  -11.0710  -28.6890 C.3    43  GLN43       0.1566
     67  C        -12.6310  -10.4620  -28.3540 C.2    43  GLN43       0.2260
     68  O        -12.5460   -9.3950  -27.7470 O.2    43  GLN43      -0.2867
     69  CB       -14.4880  -10.5220  -30.0310 C.3    43  GLN43       0.0367
     70  CG       -15.7800  -11.1530  -30.4540 C.3    43  GLN43       0.0905
     71  CD       -16.6110  -10.2400  -31.2850 C.2    43  GLN43       0.2608
     72  OE1      -16.1550   -9.1770  -31.6890 O.2    43  GLN43      -0.2717
     73  NE2      -17.8530  -10.6340  -31.5430 N.am   43  GLN43      -0.0878
     74  N         -8.6740   -9.9030  -30.3820 N.3    45  PHE45      -0.1241
     75  CA        -7.9430  -10.0310  -31.6340 C.3    45  PHE45       0.1605
     76  C         -6.4630   -9.7610  -31.4150 C.2    45  PHE45       0.2264
     77  O         -6.0880   -8.8820  -30.6400 O.2    45  PHE45      -0.2867
     78  CB        -8.5000   -9.0720  -32.6920 C.3    45  PHE45       0.0534
     79  CG        -9.9790   -9.2140  -32.9260 C.ar   45  PHE45      -0.0203
     80  CD1      -10.4720  -10.1790  -33.7900 C.ar   45  PHE45      -0.0042
     81  CD2      -10.8750   -8.3720  -32.2900 C.ar   45  PHE45      -0.0042
     82  CE1      -11.8320  -10.3080  -34.0080 C.ar   45  PHE45      -0.0003
     83  CE2      -12.2350   -8.4940  -32.5020 C.ar   45  PHE45      -0.0003
     84  CZ       -12.7150   -9.4640  -33.3630 C.ar   45  PHE45      -0.0000
     85  N         -6.7770   -7.2260  -36.7410 N.3    51  ALA51      -0.1245
     86  CA        -7.4020   -5.9630  -36.3700 C.3    51  ALA51       0.1562
     87  C         -7.9280   -5.2010  -37.5870 C.2    51  ALA51       0.2260
     88  O         -9.0240   -4.6460  -37.5440 O.2    51  ALA51      -0.2867
     89  CB        -6.4190   -5.0990  -35.5880 C.3    51  ALA51       0.0290
     90  N        -11.0660   -6.8680  -38.7890 N.3    54  ALA54      -0.1231
     91  CA       -12.1690   -6.5320  -37.8940 C.3    54  ALA54       0.1694
     92  C        -12.6580   -5.1010  -38.1000 C.2    54  ALA54       0.2591
     93  O        -13.8610   -4.8420  -38.0950 O.2    54  ALA54      -0.2718
     94  CB       -11.7570   -6.7420  -36.4430 C.3    54  ALA54       0.0304
     95  N        -11.7240   -4.1730  -38.2860 N.am   55  ALA55      -0.1980
     96  CA       -12.0830   -2.7710  -38.4950 C.3    55  ALA55       0.1597
     97  C        -12.8930   -2.5860  -39.7740 C.2    55  ALA55       0.2287
     98  O        -13.8940   -1.8640  -39.7840 O.2    55  ALA55      -0.2864
     99  CB       -10.8390   -1.9000  -38.5310 C.3    55  ALA55       0.0319
    100  N        -16.5160   -3.9440  -39.3370 N.3    58  LEU58      -0.1231
    101  CA       -17.3380   -3.0360  -38.5510 C.3    58  LEU58       0.1693
    102  C        -17.7440   -1.8100  -39.3500 C.2    58  LEU58       0.2591
    103  O        -18.9110   -1.4130  -39.3370 O.2    58  LEU58      -0.2718
    104  CB       -16.5980   -2.5950  -37.2840 C.3    58  LEU58       0.0284
    105  CG       -17.3830   -1.6570  -36.3610 C.3    58  LEU58       0.0019
    106  CD1      -18.7160   -2.2690  -35.9480 C.3    58  LEU58       0.0001
    107  CD2      -16.5560   -1.2650  -35.1410 C.3    58  LEU58       0.0001
    108  N        -16.7810   -1.2170  -40.0490 N.am   59  MET59      -0.1979
    109  CA       -17.0370    0.0160  -40.7850 C.3    59  MET59       0.1605
    110  C        -18.0390   -0.1570  -41.9250 C.2    59  MET59       0.2287
    111  O        -18.7030    0.8010  -42.3110 O.2    59  MET59      -0.2864
    112  CB       -15.7270    0.5950  -41.3170 C.3    59  MET59       0.0413
    113  CG       -14.8850    1.2560  -40.2330 C.3    59  MET59       0.0598
    114  SD       -15.8720    2.3510  -39.1830 S.3    59  MET59      -0.1393
    115  CE       -16.3960    3.5880  -40.3700 C.3    59  MET59       0.0692
    116  N        -20.7250    8.3950  -38.1700 N.3    65  VAL65      -0.1245
    117  CA       -19.8010    8.4480  -37.0420 C.3    65  VAL65       0.1561
    118  C        -19.7810    9.8450  -36.4280 C.2    65  VAL65       0.2260
    119  O        -19.6430   10.8360  -37.1480 O.2    65  VAL65      -0.2867
    120  CB       -18.3660    8.0730  -37.4660 C.3    65  VAL65       0.0252
    121  CG1      -17.4180    8.2070  -36.2860 C.3    65  VAL65       0.0019
    122  CG2      -18.3240    6.6610  -38.0310 C.3    65  VAL65       0.0019
    123  N        -21.7670    5.4680  -33.0850 N.3    83  PHE83      -0.1241
    124  CA       -21.9040    4.8410  -34.3910 C.3    83  PHE83       0.1605
    125  C        -23.3820    4.6420  -34.7040 C.2    83  PHE83       0.2264
    126  O        -24.1660    4.2740  -33.8250 O.2    83  PHE83      -0.2867
    127  CB       -21.1840    3.4900  -34.4370 C.3    83  PHE83       0.0534
    128  CG       -19.6820    3.5880  -34.5570 C.ar   83  PHE83      -0.0203
    129  CD1      -19.0540    4.8130  -34.6850 C.ar   83  PHE83      -0.0042
    130  CD2      -18.9060    2.4430  -34.5440 C.ar   83  PHE83      -0.0042
    131  CE1      -17.6690    4.8930  -34.7990 C.ar   83  PHE83      -0.0003
    132  CE2      -17.5250    2.5150  -34.6520 C.ar   83  PHE83      -0.0003
    133  CZ       -16.9070    3.7430  -34.7820 C.ar   83  PHE83      -0.0000
    134  N        -19.7260    4.1010  -27.9550 N.3    92  MET92      -0.1245
    135  CA       -18.5960    3.2390  -27.6600 C.3    92  MET92       0.1570
    136  C        -17.4250    4.0700  -27.1730 C.2    92  MET92       0.2261
    137  O        -17.3330    5.2630  -27.4670 O.2    92  MET92      -0.2867
    138  CB       -18.1800    2.4440  -28.8940 C.3    92  MET92       0.0387
    139  CG       -19.3230    1.7530  -29.6010 C.3    92  MET92       0.0595
    140  SD       -18.8620    1.3520  -31.2860 S.3    92  MET92      -0.1393
    141  CE       -17.6260    0.0900  -31.0140 C.3    92  MET92       0.0692
    142  N        -13.2250    3.9520  -27.2840 N.3    94  PHE94      -0.1241
    143  CA       -11.9960    3.3420  -27.7680 C.3    94  PHE94       0.1605
    144  C        -10.8400    3.8720  -26.9420 C.2    94  PHE94       0.2264
    145  O        -10.6900    5.0830  -26.8060 O.2    94  PHE94      -0.2867
    146  CB       -11.7580    3.6650  -29.2450 C.3    94  PHE94       0.0534
    147  CG       -12.6960    2.9700  -30.1860 C.ar   94  PHE94      -0.0203
    148  CD1      -13.9960    3.4190  -30.3490 C.ar   94  PHE94      -0.0042
    149  CD2      -12.2700    1.8810  -30.9260 C.ar   94  PHE94      -0.0042
    150  CE1      -14.8580    2.7810  -31.2220 C.ar   94  PHE94      -0.0003
    151  CE2      -13.1260    1.2450  -31.8010 C.ar   94  PHE94      -0.0003
    152  CZ       -14.4190    1.6940  -31.9490 C.ar   94  PHE94      -0.0000
    153  N         -6.7350    3.7620  -26.8880 N.3    96  PHE96      -0.1241
    154  CA        -5.5490    3.3840  -27.6370 C.3    96  PHE96       0.1605
    155  C         -4.3430    3.5700  -26.7380 C.2    96  PHE96       0.2264
    156  O         -4.0760    4.6860  -26.2950 O.2    96  PHE96      -0.2867
    157  CB        -5.3990    4.2330  -28.8980 C.3    96  PHE96       0.0534
    158  CG        -6.5600    4.1180  -29.8560 C.ar   96  PHE96      -0.0203
    159  CD1       -7.6650    4.9400  -29.7250 C.ar   96  PHE96      -0.0042
    160  CD2       -6.5330    3.1960  -30.8880 C.ar   96  PHE96      -0.0042
    161  CE1       -8.7350    4.8410  -30.6150 C.ar   96  PHE96      -0.0003
    162  CE2       -7.5950    3.0880  -31.7790 C.ar   96  PHE96      -0.0003
    163  CZ        -8.6940    3.9100  -31.6430 C.ar   96  PHE96      -0.0000
    164  N         -5.5800   -1.9660  -27.8170 N.3   106  VAL106     -0.1245
    165  CA        -6.8340   -1.2570  -28.0050 C.3   106  VAL106      0.1561
    166  C         -7.9050   -1.8680  -27.1130 C.2   106  VAL106      0.2260
    167  O         -8.1720   -3.0700  -27.1680 O.2   106  VAL106     -0.2867
    168  CB        -7.3120   -1.2900  -29.4760 C.3   106  VAL106      0.0252
    169  CG1       -8.5880   -0.4830  -29.6260 C.3   106  VAL106      0.0019
    170  CG2       -6.2370   -0.7640  -30.4140 C.3   106  VAL106      0.0019
    171  N        -11.8800   -1.5900  -26.2160 N.3   108  ILE108     -0.1245
    172  CA       -13.1240   -1.0280  -26.7070 C.3   108  ILE108      0.1561
    173  C        -14.2660   -1.3800  -25.7600 C.2   108  ILE108      0.2260
    174  O        -14.5310   -2.5510  -25.4860 O.2   108  ILE108     -0.2867
    175  CB       -13.4460   -1.5240  -28.1330 C.3   108  ILE108      0.0252
    176  CG1      -12.2440   -1.3000  -29.0570 C.3   108  ILE108      0.0019
    177  CG2      -14.6880   -0.8260  -28.6790 C.3   108  ILE108      0.0019
    178  CD1      -12.4010   -1.9300  -30.4200 C.3   108  ILE108      0.0001
    179  N        -22.9390   -6.6340  -32.1090 N.3   118  MET118     -0.1245
    180  CA       -21.5070   -6.7730  -32.3630 C.3   118  MET118      0.1570
    181  C        -21.1260   -8.2170  -32.6850 C.2   118  MET118      0.2261
    182  O        -20.1320   -8.4680  -33.3650 O.2   118  MET118     -0.2867
    183  CB       -20.7060   -6.2670  -31.1600 C.3   118  MET118      0.0387
    184  CG       -19.2010   -6.3000  -31.3410 C.3   118  MET118      0.0595
    185  SD       -18.6320   -4.9950  -32.4440 S.3   118  MET118     -0.1393
    186  CE       -19.2970   -3.5470  -31.6260 C.3   118  MET118      0.0692
    187  N        -21.6370   -8.6040  -36.5260 N.3   121  ILE121     -0.1245
    188  CA       -20.5470   -7.9390  -37.2350 C.3   121  ILE121      0.1561
    189  C        -19.2390   -8.7180  -37.1350 C.2   121  ILE121      0.2260
    190  O        -19.0060   -9.4380  -36.1660 O.2   121  ILE121     -0.2867
    191  CB       -20.3190   -6.5120  -36.7010 C.3   121  ILE121      0.0252
    192  CG1      -21.6000   -5.6940  -36.7960 C.3   121  ILE121      0.0019
    193  CG2      -19.1770   -5.8480  -37.4630 C.3   121  ILE121      0.0019
    194  CD1      -21.4100   -4.3730  -36.0380 C.3   121  ILE121      0.0001
@<TRIPOS>BOND
     1    20    19    2
     2   111   110    2
     3    27    26    1
     4    27    21    1
     5   110   109    1
     6    19    18    1
     7    26    25    1
     8    21    22    1
     9   112   109    1
    10   112   113    1
    11    25    22    1
    12    23    22    1
    13    23    24    2
    14    18    17    1
    15   109   108    1
    16    41    40    1
    17   115   114    1
    18   113   114    1
    19    40    42    1
    20    40    37    1
    21   108   102   am
    22    98    97    2
    23    97    96    1
    24   102   103    2
    25   102   101    1
    26   100   101    1
    27    38    37    1
    28    38    39    2
    29     4     3    2
    30    37    36    1
    31    28    29    1
    32    90    91    1
    33    36    30   am
    34   101   104    1
    35    99    96    1
    36    96    95    1
    37     2     5    1
    38     2     3    1
    39     2     1    1
    40    95    92   am
    41   116   117    1
    42    92    93    2
    43    92    91    1
    44     3     6   am
    45   122   120    1
    46    91    94    1
    47    30    29    1
    48    30    31    2
    49    87    88    2
    50    87    86    1
    51    29    32    1
    52   120   117    1
    53   120   121    1
    54   193   191    1
    55     9     8    2
    56   104   105    1
    57   188   189    1
    58   188   191    1
    59   188   187    1
    60   119   118    2
    61   189   190    2
    62   117   118    1
    63    32    33    1
    64    32    34    1
    65     8     7    1
    66     6     7    1
    67   192   191    1
    68   192   194    1
    69    85    86    1
    70    33    35    1
    71     7    10    1
    72    86    89    1
    73   105   106    1
    74   105   107    1
    75    46    45    2
    76    43    44    1
    77    49    48    1
    78    47    48    1
    79    47    44    1
    80    48    50    1
    81    45    44    1
    82    10    11    1
    83   131   133   ar
    84   131   129   ar
    85   133   132   ar
    86   125   124    1
    87   125   126    2
    88   129   128   ar
    89   132   130   ar
    90   128   130   ar
    91   128   127    1
    92   127   124    1
    93   124   123    1
    94    11    12   ar
    95    11    13   ar
    96    12    14   ar
    97    82    80   ar
    98    82    84   ar
    99    13    15   ar
   100    80    79   ar
   101    14    16   ar
   102    15    16   ar
   103   182   181    2
   104    84    83   ar
   105    79    78    1
   106    79    81   ar
   107    78    75    1
   108   181   180    1
   109    83    81   ar
   110   185   186    1
   111   185   184    1
   112   180   179    1
   113   180   183    1
   114   152   151   ar
   115   152   150   ar
   116   151   149   ar
   117   162   163   ar
   118   162   160   ar
   119    57    55    1
   120    72    71    2
   121   163   161   ar
   122    75    76    1
   123    75    74    1
   124    73    71   am
   125    76    77    2
   126   184   183    1
   127   140   141    1
   128   140   139    1
   129    71    70    1
   130   150   148   ar
   131   149   147   ar
   132   160   158   ar
   133    55    56    1
   134    55    52    1
   135   161   159   ar
   136    70    69    1
   137   178   176    1
   138   170   168    1
   139   148   147   ar
   140   147   146    1
   141    63    62    1
   142    69    66    1
   143   158   159   ar
   144   158   157    1
   145   169   168    1
   146   139   138    1
   147   168   165    1
   148    51    52    1
   149    52    53    1
   150    64    62    1
   151   146   143    1
   152    62    59    1
   153   176   175    1
   154   157   154    1
   155   138   135    1
   156    54    53    2
   157    66    67    1
   158    66    65    1
   159   177   175    1
   160    67    68    2
   161   175   172    1
   162    61    60    2
   163   165   164    1
   164   165   166    1
   165   134   135    1
   166   143   142    1
   167   143   144    1
   168    59    58    1
   169    59    60    1
   170   135   136    1
   171   154   153    1
   172   154   155    1
   173   137   136    2
   174   167   166    2
   175   144   145    2
   176   155   156    2
   177   172   171    1
   178   172   173    1
   179   173   174    2
