@<TRIPOS>MOLECULE
tmp/5u38A01.pdb
 108 104 0 0 0
SMALL
GASTEIGER

@<TRIPOS>ATOM
      1  N         -6.4500  -12.1560    1.6500 N.3    86  ALA86      -0.1231
      2  CA        -7.4470  -11.7380    0.6580 C.3    86  ALA86       0.1694
      3  C         -6.7650  -11.1420   -0.5930 C.2    86  ALA86       0.2592
      4  O         -5.6230  -10.6880   -0.5030 O.2    86  ALA86      -0.2718
      5  CB        -8.3890  -10.7260    1.2860 C.3    86  ALA86       0.0304
      6  N         -7.4240  -11.1280   -1.7510 N.am   87  ASP87      -0.1974
      7  CA        -8.7990  -11.5900   -1.9320 C.3    87  ASP87       0.1709
      8  C         -8.9240  -12.8390   -2.7750 C.2    87  ASP87       0.2293
      9  O         -9.9130  -13.5730   -2.6560 O.2    87  ASP87      -0.2864
     10  CB        -9.6190  -10.4750   -2.5540 C.3    87  ASP87       0.1436
     11  CG       -10.1480   -9.5530   -1.5150 C.2    87  ASP87       0.3671
     12  OD1      -11.2340   -9.8660   -0.9800 O.co2  87  ASP87      -0.2456
     13  OD2       -9.4520   -8.5540   -1.2100 O.co2  87  ASP87      -0.2456
     14  N        -10.2780   -3.3840   -6.5940 N.3   105  ALA105     -0.1231
     15  CA        -9.2000   -3.8300   -5.7080 C.3   105  ALA105      0.1694
     16  C         -9.7820   -4.3100   -4.3840 C.2   105  ALA105      0.2593
     17  O         -9.8750   -3.5630   -3.4080 O.2   105  ALA105     -0.2718
     18  CB        -8.1840   -2.7140   -5.4950 C.3   105  ALA105      0.0304
     19  N        -10.1430   -5.5900   -4.3430 N.am  106  GLY106     -0.1942
     20  CA       -10.7740   -6.1750   -3.1770 C.3   106  GLY106      0.2014
     21  C        -11.5750   -7.4000   -3.5660 C.2   106  GLY106      0.2639
     22  O        -11.1240   -8.1950   -4.3940 O.2   106  GLY106     -0.2714
     23  N        -12.7750   -7.5540   -3.0090 N.am  107  GLY107     -0.1939
     24  CA       -13.5530   -8.7560   -3.2710 C.3   107  GLY107      0.2014
     25  C        -14.0740   -8.8700   -4.6870 C.2   107  GLY107      0.2638
     26  O        -14.6290   -9.9160   -5.0420 O.2   107  GLY107     -0.2714
     27  N        -13.9330   -7.8200   -5.4890 N.am  108  LEU108     -0.1977
     28  CA       -14.3080   -7.9210   -6.8880 C.3   108  LEU108      0.1596
     29  C        -13.1940   -8.4940   -7.7490 C.2   108  LEU108      0.2287
     30  O        -13.3860   -8.6240   -8.9660 O.2   108  LEU108     -0.2864
     31  CB       -14.7450   -6.5480   -7.4030 C.3   108  LEU108      0.0297
     32  CG       -15.9260   -5.9850   -6.5990 C.3   108  LEU108      0.0022
     33  CD1      -16.3690   -4.6550   -7.1960 C.3   108  LEU108      0.0001
     34  CD2      -17.0900   -6.9810   -6.5600 C.3   108  LEU108      0.0001
     35  N        -11.4410  -15.0180    0.7100 N.3   133  PHE133     -0.1241
     36  CA       -11.9730  -14.0520    1.6630 C.3   133  PHE133      0.1605
     37  C        -13.4740  -13.9260    1.4820 C.2   133  PHE133      0.2264
     38  O        -13.9490  -13.6350    0.3810 O.2   133  PHE133     -0.2867
     39  CB       -11.3110  -12.6820    1.4970 C.3   133  PHE133      0.0534
     40  CG       -11.7130  -11.6990    2.5480 C.ar  133  PHE133     -0.0203
     41  CD1      -11.0230  -11.6310    3.7490 C.ar  133  PHE133     -0.0042
     42  CD2      -12.8040  -10.8640    2.3530 C.ar  133  PHE133     -0.0042
     43  CE1      -11.4040  -10.7370    4.7420 C.ar  133  PHE133     -0.0003
     44  CE2      -13.1900   -9.9680    3.3360 C.ar  133  PHE133     -0.0003
     45  CZ       -12.4920   -9.9040    4.5330 C.ar  133  PHE133     -0.0000
     46  N        -15.8050  -12.5560    4.2360 N.3   135  ALA135     -0.1245
     47  CA       -16.5020  -11.8290    5.2990 C.3   135  ALA135      0.1562
     48  C        -17.8840  -11.3990    4.8230 C.2   135  ALA135      0.2260
     49  O        -18.0380  -10.7650    3.7700 O.2   135  ALA135     -0.2867
     50  CB       -15.6860  -10.6150    5.7560 C.3   135  ALA135      0.0290
     51  N        -20.2940   -9.4020    5.7640 N.3   137  ASN137     -0.1225
     52  CA       -20.7930   -8.0360    5.6730 C.3   137  ASN137      0.1785
     53  C        -20.1700   -7.2400    4.5310 C.2   137  ASN137      0.2598
     54  O        -20.7250   -6.2020    4.1520 O.2   137  ASN137     -0.2718
     55  CB       -20.5960   -7.2850    6.9980 C.3   137  ASN137      0.1169
     56  CG       -19.1740   -7.3720    7.5340 C.2   137  ASN137      0.2627
     57  OD1      -18.2630   -7.8760    6.8720 O.2   137  ASN137     -0.2716
     58  ND2      -18.9780   -6.8640    8.7490 N.am  137  ASN137     -0.0877
     59  N        -19.0620   -7.6970    3.9450 N.am  138  SER138     -0.1938
     60  CA       -18.5150   -7.0060    2.7840 C.3   138  SER138      0.2055
     61  C        -18.6010   -7.8280    1.5110 C.2   138  SER138      0.2643
     62  O        -18.9480   -7.2850    0.4610 O.2   138  SER138     -0.2714
     63  CB       -17.0550   -6.5770    3.0220 C.3   138  SER138      0.2130
     64  OG       -16.1630   -7.6720    3.0570 O.3   138  SER138     -0.2179
     65  N        -18.2800   -9.1190    1.5620 N.am  139  ASN139     -0.1971
     66  CA       -18.4590   -9.9890    0.4000 C.3   139  ASN139      0.1688
     67  C        -19.8120  -10.7010    0.4940 C.2   139  ASN139      0.2292
     68  O        -19.9020  -11.9230    0.6090 O.2   139  ASN139     -0.2864
     69  CB       -17.3100  -10.9860    0.2920 C.3   139  ASN139      0.1181
     70  CG       -15.9790  -10.3290   -0.0510 C.2   139  ASN139      0.2629
     71  OD1      -15.6250   -9.2620    0.4690 O.2   139  ASN139     -0.2716
     72  ND2      -15.2330  -10.9660   -0.9360 N.am  139  ASN139     -0.0877
     73  N        -22.0960  -11.5620   -1.3970 N.3   141  TRP141     -0.1241
     74  CA       -22.4450  -12.5210   -2.4400 C.3   141  TRP141      0.1605
     75  C        -21.7880  -13.8850   -2.2520 C.2   141  TRP141      0.2264
     76  O        -22.1050  -14.8180   -2.9970 O.2   141  TRP141     -0.2867
     77  CB       -22.0170  -11.9590   -3.8030 C.3   141  TRP141      0.0550
     78  CG       -20.5730  -11.5460   -3.7550 C.ar  141  TRP141      0.0003
     79  CD1      -19.4830  -12.3640   -3.9070 C.ar  141  TRP141      0.0946
     80  CD2      -20.0600  -10.2460   -3.4600 C.ar  141  TRP141      0.0152
     81  NE1      -18.3320  -11.6450   -3.7440 N.ar  141  TRP141     -0.2442
     82  CE2      -18.6550  -10.3410   -3.4710 C.ar  141  TRP141      0.0810
     83  CE3      -20.6520   -9.0070   -3.1950 C.ar  141  TRP141      0.0012
     84  CZ2      -17.8310   -9.2420   -3.2430 C.ar  141  TRP141      0.0191
     85  CZ3      -19.8300   -7.9120   -2.9650 C.ar  141  TRP141      0.0001
     86  CH2      -18.4330   -8.0390   -2.9920 C.ar  141  TRP141      0.0015
     87  N         -7.8670   -6.0520   -1.0130 N.3   221  GLY221     -0.1210
     88  CA        -8.4730   -4.8320   -0.5200 C.3   221  GLY221      0.1956
     89  C         -7.8270   -4.4310    0.7860 C.2   221  GLY221      0.2612
     90  O         -6.6140   -4.2100    0.8410 O.2   221  GLY221     -0.2717
     91  N         -8.6240   -4.3610    1.8550 N.am  222  GLU222     -0.1965
     92  CA        -8.0890   -4.0430    3.1700 C.3   222  GLU222      0.1733
     93  C         -7.3960   -5.2270    3.8280 C.2   222  GLU222      0.2616
     94  O         -6.6490   -5.0230    4.7900 O.2   222  GLU222     -0.2715
     95  CB        -9.2130   -3.4940    4.0520 C.3   222  GLU222      0.0429
     96  CG        -9.6260   -2.0910    3.5960 C.3   222  GLU222      0.1163
     97  CD       -10.8880   -1.5580    4.2690 C.2   222  GLU222      0.3649
     98  OE1      -11.3780   -0.4920    3.8390 O.co2 222  GLU222     -0.2457
     99  OE2      -11.3870   -2.1940    5.2170 O.co2 222  GLU222     -0.2457
    100  N         -7.6100   -6.4410    3.3320 N.am  223  GLN223     -0.1977
    101  CA        -6.8280   -7.6120    3.7050 C.3   223  GLN223      0.1601
    102  C         -6.0810   -8.0810    2.4630 C.2   223  GLN223      0.2287
    103  O         -6.4920   -7.7830    1.3410 O.2   223  GLN223     -0.2864
    104  CB        -7.7140   -8.7290    4.2590 C.3   223  GLN223      0.0394
    105  CG        -8.4960   -8.3310    5.5060 C.3   223  GLN223      0.0908
    106  CD        -7.6260   -8.2700    6.7410 C.2   223  GLN223      0.2608
    107  OE1       -7.6480   -9.1810    7.5570 O.2   223  GLN223     -0.2717
    108  NE2       -6.8670   -7.1860    6.8930 N.am  223  GLN223     -0.0878
@<TRIPOS>BOND
     1    30    29    2
     2    29    28    1
     3    31    28    1
     4    31    32    1
     5    33    32    1
     6    28    27    1
     7    32    34    1
     8    14    15    1
     9    15    18    1
    10    15    16    1
    11    27    25   am
    12    26    25    2
    13    25    24    1
    14    22    21    2
    15    16    19   am
    16    16    17    2
    17    19    20    1
    18    79    78   ar
    19    79    81   ar
    20    77    78    1
    21    77    74    1
    22    78    80   ar
    23    81    82   ar
    24    21    20    1
    25    21    23   am
    26    82    80   ar
    27    82    84   ar
    28    80    83   ar
    29    24    23    1
    30    84    86   ar
    31    83    85   ar
    32    76    75    2
    33    86    85   ar
    34     8     9    2
    35     8     7    1
    36    10     7    1
    37    10    11    1
    38    74    75    1
    39    74    73    1
    40     7     6    1
    41     6     3   am
    42    11    13   ar
    43    11    12   ar
    44    87    88    1
    45    72    70   am
    46     3     4    2
    47     3     2    1
    48    88    89    1
    49    70    69    1
    50    70    71    2
    51    69    66    1
    52    38    37    2
    53    66    67    1
    54    66    65    1
    55    62    61    2
    56    67    68    2
    57     2     5    1
    58     2     1    1
    59    35    36    1
    60    89    90    2
    61    89    91   am
    62   103   102    2
    63    37    36    1
    64    39    36    1
    65    39    40    1
    66    61    65   am
    67    61    60    1
    68    91    92    1
    69    42    40   ar
    70    42    44   ar
    71   102   101    1
    72    40    41   ar
    73    60    63    1
    74    60    59    1
    75    63    64    1
    76    92    93    1
    77    92    95    1
    78   100   101    1
    79   100    93   am
    80    44    45   ar
    81    96    95    1
    82    96    97    1
    83   101   104    1
    84    41    43   ar
    85    49    48    2
    86    93    94    2
    87    98    97   ar
    88    59    53   am
    89    54    53    2
    90    46    47    1
    91   104   105    1
    92    97    99   ar
    93    53    52    1
    94    45    43   ar
    95    48    47    1
    96    47    50    1
    97   105   106    1
    98    52    51    1
    99    52    55    1
   100   106   108   am
   101   106   107    2
   102    57    56    2
   103    55    56    1
   104    56    58   am
