@<TRIPOS>MOLECULE
tmp/5u3bA00.pdb
 197 187 0 0 0
SMALL
GASTEIGER

@<TRIPOS>ATOM
      1  N         11.4200  -21.3110   19.6880 N.3    18  LEU18      -0.1231
      2  CA        11.4380  -21.6340   18.2550 C.3    18  LEU18       0.1693
      3  C         12.4340  -22.7930   17.9430 C.2    18  LEU18       0.2592
      4  O         12.1300  -23.7020   17.1580 O.2    18  LEU18      -0.2718
      5  CB        11.8470  -20.3780   17.4560 C.3    18  LEU18       0.0284
      6  CG        12.1860  -20.5700   15.9600 C.3    18  LEU18       0.0019
      7  CD1       10.9440  -20.9410   15.1680 C.3    18  LEU18       0.0001
      8  CD2       12.8290  -19.2880   15.3730 C.3    18  LEU18       0.0001
      9  N         13.6090  -22.7480   18.5660 N.am   19  HIS19      -0.1976
     10  CA        14.6480  -23.7210   18.2780 C.3    19  HIS19       0.1656
     11  C         14.6120  -24.9380   19.1720 C.2    19  HIS19       0.2291
     12  O         14.8180  -26.0430   18.6680 O.2    19  HIS19      -0.2864
     13  CB        16.0240  -23.0430   18.2760 C.3    19  HIS19       0.0771
     14  CG        16.1450  -22.0750   17.1370 C.ar   19  HIS19       0.0820
     15  ND1       16.2020  -22.5190   15.8180 N.ar   19  HIS19      -0.2267
     16  CD2       16.1330  -20.7210   17.1450 C.ar   19  HIS19       0.1154
     17  CE1       16.2470  -21.4250   15.0770 C.ar   19  HIS19       0.1986
     18  NE2       16.1970  -20.3200   15.8310 N.ar   19  HIS19      -0.2212
     19  N         21.8730  -19.1330   14.7960 N.3    62  MET62      -0.1230
     20  CA        20.5110  -18.9440   14.2560 C.3    62  MET62       0.1702
     21  C         19.8460  -17.7400   14.8900 C.2    62  MET62       0.2593
     22  O         19.0460  -17.0700   14.2400 O.2    62  MET62      -0.2718
     23  CB        19.6130  -20.1840   14.4860 C.3    62  MET62       0.0401
     24  CG        20.1250  -21.4820   13.8350 C.3    62  MET62       0.0596
     25  SD        20.5040  -21.3430   12.0720 S.3    62  MET62      -0.1393
     26  CE        18.8710  -21.0480   11.3960 C.3    62  MET62       0.0692
     27  N         20.1310  -17.5030   16.1780 N.am   63  SER63      -0.1952
     28  CA        19.5500  -16.4000   16.9420 C.3    63  SER63       0.1924
     29  C         20.6180  -15.7580   17.8280 C.2    63  SER63       0.2314
     30  O         21.7470  -16.2460   17.8750 O.2    63  SER63      -0.2863
     31  CB        18.3460  -16.8890   17.7480 C.3    63  SER63       0.2116
     32  OG        18.6460  -17.8460   18.7500 O.3    63  SER63      -0.2180
     33  N         17.5560  -16.6760   21.6390 N.3    75  THR75      -0.1218
     34  CA        16.5500  -15.9140   20.8780 C.3    75  THR75       0.1862
     35  C         15.9920  -14.7400   21.6730 C.2    75  THR75       0.2287
     36  O         14.7890  -14.6700   21.9350 O.2    75  THR75      -0.2866
     37  CB        15.4540  -16.8880   20.3510 C.3    75  THR75       0.1770
     38  OG1       16.0800  -18.1460   20.0950 O.3    75  THR75      -0.2211
     39  CG2       14.7340  -16.3590   19.0900 C.3    75  THR75       0.0375
     40  N         16.4220  -11.5130   20.5970 N.3    77  GLU77      -0.1231
     41  CA        16.2630  -10.4200   19.6370 C.3    77  GLU77       0.1699
     42  C         14.8530   -9.8720   19.4800 C.2    77  GLU77       0.2592
     43  O         14.7380   -8.6480   19.4080 O.2    77  GLU77      -0.2718
     44  CB        16.8590  -10.7380   18.2440 C.3    77  GLU77       0.0402
     45  CG        16.3110  -11.9880   17.5580 C.3    77  GLU77       0.1161
     46  CD        17.0260  -13.2950   17.8590 C.2    77  GLU77       0.3649
     47  OE1       17.6720  -13.4060   18.9250 O.co2  77  GLU77      -0.2457
     48  OE2       16.9180  -14.2240   17.0310 O.co2  77  GLU77      -0.2457
     49  N         13.7940  -10.7230   19.3900 N.am   78  HIS78      -0.1976
     50  CA        12.4400  -10.1770   19.1780 C.3    78  HIS78       0.1656
     51  C         11.8850   -9.4690   20.4240 C.2    78  HIS78       0.2291
     52  O         11.2450   -8.4320   20.2890 O.2    78  HIS78      -0.2864
     53  CB        11.4470  -11.2310   18.6260 C.3    78  HIS78       0.0771
     54  CG        11.9550  -11.9700   17.4140 C.ar   78  HIS78       0.0820
     55  ND1       11.3640  -13.1450   16.9880 N.ar   78  HIS78      -0.2267
     56  CD2       12.9570  -11.6610   16.5620 C.ar   78  HIS78       0.1154
     57  CE1       12.0640  -13.5420   15.9440 C.ar   78  HIS78       0.1986
     58  NE2       13.0460  -12.6950   15.6660 N.ar   78  HIS78      -0.2212
     59  N         18.3410  -13.1490   -1.4880 N.3   160  PHE160     -0.1241
     60  CA        18.0490  -14.5780   -1.5310 C.3   160  PHE160      0.1605
     61  C         17.7650  -14.9940   -2.9750 C.2   160  PHE160      0.2264
     62  O         16.9530  -14.3530   -3.6400 O.2   160  PHE160     -0.2867
     63  CB        16.8300  -14.9110   -0.6400 C.3   160  PHE160      0.0534
     64  CG        17.0850  -14.9180    0.8440 C.ar  160  PHE160     -0.0203
     65  CD1       16.9840  -13.7480    1.5890 C.ar  160  PHE160     -0.0042
     66  CD2       17.3790  -16.1040    1.5090 C.ar  160  PHE160     -0.0042
     67  CE1       17.2030  -13.7590    2.9690 C.ar  160  PHE160     -0.0003
     68  CE2       17.6030  -16.1130    2.8900 C.ar  160  PHE160     -0.0003
     69  CZ        17.5100  -14.9420    3.6110 C.ar  160  PHE160     -0.0000
     70  N          9.3200  -13.8000   11.6340 N.3   188  THR188     -0.1203
     71  CA        10.5000  -14.5410   11.2550 C.3   188  THR188      0.1994
     72  C         10.1010  -15.4840   10.1150 C.2   188  THR188      0.2618
     73  O          8.9070  -15.7170    9.8820 O.2   188  THR188     -0.2717
     74  CB        11.1180  -15.2580   12.4680 C.3   188  THR188      0.1784
     75  OG1       12.3770  -15.7650   12.0470 O.3   188  THR188     -0.2211
     76  CG2       10.2440  -16.4120   13.0170 C.3   188  THR188      0.0376
     77  N         11.0990  -15.9880    9.3890 N.am  189  PHE189     -0.1961
     78  CA        10.8630  -16.8330    8.2380 C.3   189  PHE189      0.1771
     79  C         11.8580  -17.9670    8.1460 C.2   189  PHE189      0.2620
     80  O         12.9920  -17.8470    8.6030 O.2   189  PHE189     -0.2715
     81  CB        10.8590  -15.9860    6.9420 C.3   189  PHE189      0.0574
     82  CG        12.1160  -15.1730    6.7100 C.ar  189  PHE189     -0.0200
     83  CD1       12.2320  -13.8780    7.2150 C.ar  189  PHE189     -0.0042
     84  CD2       13.1840  -15.7020    5.9940 C.ar  189  PHE189     -0.0042
     85  CE1       13.3930  -13.1380    7.0200 C.ar  189  PHE189     -0.0003
     86  CE2       14.3450  -14.9530    5.7910 C.ar  189  PHE189     -0.0003
     87  CZ        14.4440  -13.6780    6.3050 C.ar  189  PHE189     -0.0000
     88  N         11.4080  -19.0590    7.5540 N.am  190  GLY190     -0.1954
     89  CA        12.2220  -20.2450    7.3260 C.3   190  GLY190      0.1869
     90  C         11.8700  -20.9120    6.0140 C.2   190  GLY190      0.2309
     91  O         10.7480  -20.7750    5.5150 O.2   190  GLY190     -0.2863
     92  N         11.3360  -24.3760    3.9950 N.3   192  MET192     -0.1245
     93  CA        10.9950  -25.7740    4.2540 C.3   192  MET192      0.1570
     94  C         12.2000  -26.7220    4.1100 C.2   192  MET192      0.2261
     95  O         12.4390  -27.5100    5.0170 O.2   192  MET192     -0.2867
     96  CB         9.7910  -26.2380    3.4160 C.3   192  MET192      0.0387
     97  CG         9.0130  -27.3650    4.0780 C.3   192  MET192      0.0595
     98  SD         8.3990  -26.9350    5.7380 S.3   192  MET192     -0.1393
     99  CE         8.4050  -28.5470    6.5220 C.3   192  MET192      0.0692
    100  N         14.5930  -26.5140    7.2510 N.3   195  ILE195     -0.1245
    101  CA        13.9230  -27.0270    8.4550 C.3   195  ILE195      0.1561
    102  C         14.2730  -28.4940    8.7100 C.2   195  ILE195      0.2260
    103  O         14.4660  -28.8930    9.8640 O.2   195  ILE195     -0.2867
    104  CB        12.3880  -26.7410    8.3780 C.3   195  ILE195      0.0252
    105  CG1       12.0330  -25.4400    9.1160 C.3   195  ILE195      0.0019
    106  CG2       11.5120  -27.9050    8.8580 C.3   195  ILE195      0.0019
    107  CD1       11.8170  -24.2310    8.2130 C.3   195  ILE195      0.0001
    108  N         17.8150  -28.3970    9.8930 N.3   198  LEU198     -0.1231
    109  CA        17.8150  -27.7310   11.1920 C.3   198  LEU198      0.1693
    110  C         17.3420  -28.6450   12.3220 C.2   198  LEU198      0.2591
    111  O         17.9910  -28.6900   13.3710 O.2   198  LEU198     -0.2718
    112  CB        17.0350  -26.4030   11.1570 C.3   198  LEU198      0.0284
    113  CG        17.6640  -25.2790   10.3100 C.3   198  LEU198      0.0019
    114  CD1       16.6710  -24.1460   10.0740 C.3   198  LEU198      0.0001
    115  CD2       18.9560  -24.7510   10.9280 C.3   198  LEU198      0.0001
    116  N         16.2780  -29.4340   12.0790 N.am  199  ARG199     -0.1980
    117  CA        15.7370  -30.3530   13.0790 C.3   199  ARG199      0.1597
    118  C         16.6840  -31.5100   13.4350 C.2   199  ARG199      0.2287
    119  O         16.6750  -31.9590   14.5820 O.2   199  ARG199     -0.2864
    120  CB        14.3480  -30.8490   12.6860 C.3   199  ARG199      0.0334
    121  CG        13.3250  -29.7870   13.0320 C.3   199  ARG199      0.0492
    122  CD        11.9170  -30.1060   12.6170 C.3   199  ARG199      0.2205
    123  NE        11.0870  -28.9420   12.9160 N.pl3 199  ARG199     -0.0865
    124  CZ         9.9020  -28.6860   12.3770 C.cat 199  ARG199      0.5346
    125  NH1        9.2440  -27.5820   12.7060 N.pl3 199  ARG199      0.1354
    126  NH2        9.3670  -29.5280   11.4970 N.pl3 199  ARG199      0.1354
    127  N         15.0870  -25.2610   15.1880 N.3   204  ALA204     -0.1245
    128  CA        13.7500  -25.0560   14.5860 C.3   204  ALA204      0.1562
    129  C         12.6830  -26.0830   15.0480 C.2   204  ALA204      0.2260
    130  O         11.7150  -26.3160   14.3210 O.2   204  ALA204     -0.2867
    131  CB        13.8610  -25.0560   13.0650 C.3   204  ALA204      0.0290
    132  N          9.2510  -24.5310   15.4150 N.3   207  GLY207     -0.1210
    133  CA         8.8140  -23.7650   14.2510 C.3   207  GLY207      0.1956
    134  C          7.6100  -24.3610   13.5560 C.2   207  GLY207      0.2613
    135  O          7.4870  -25.5800   13.4810 O.2   207  GLY207     -0.2717
    136  N          6.6940  -23.4980   13.0610 N.am  208  SER208     -0.1938
    137  CA         5.4780  -23.9130   12.3280 C.3   208  SER208      0.2055
    138  C          4.8900  -22.6800   11.6390 C.2   208  SER208      0.2642
    139  O          5.3680  -21.5680   11.8800 O.2   208  SER208     -0.2714
    140  CB         4.4390  -24.5330   13.2690 C.3   208  SER208      0.2130
    141  OG         3.7190  -23.5550   14.0080 O.3   208  SER208     -0.2179
    142  N          3.8080  -22.8490   10.8610 N.am  209  VAL209     -0.1977
    143  CA         3.1100  -21.7110   10.2160 C.3   209  VAL209      0.1596
    144  C          2.4680  -20.7620   11.2790 C.2   209  VAL209      0.2287
    145  O          2.1670  -19.6050   10.9810 O.2   209  VAL209     -0.2864
    146  CB         2.1060  -22.1420    9.1100 C.3   209  VAL209      0.0276
    147  CG1        2.8390  -22.7520    7.9180 C.3   209  VAL209      0.0022
    148  CG2        1.0310  -23.0990    9.6480 C.3   209  VAL209      0.0022
    149  N          5.8560  -18.5010   12.2040 N.3   212  ALA212     -0.1245
    150  CA         6.8430  -18.1500   11.1790 C.3   212  ALA212      0.1562
    151  C          6.2340  -18.1540    9.7850 C.2   212  ALA212      0.2260
    152  O          5.2340  -18.8340    9.5310 O.2   212  ALA212     -0.2867
    153  CB         8.0220  -19.1380   11.2240 C.3   212  ALA212      0.0290
    154  N          6.5910  -19.7140    6.4720 N.3   214  VAL214     -0.1245
    155  CA         7.2520  -20.9400    6.0250 C.3   214  VAL214      0.1561
    156  C          7.2360  -20.8830    4.5070 C.2   214  VAL214      0.2260
    157  O          6.1760  -20.7700    3.8970 O.2   214  VAL214     -0.2867
    158  CB         6.6110  -22.2270    6.6210 C.3   214  VAL214      0.0252
    159  CG1        7.2410  -23.4930    6.0280 C.3   214  VAL214      0.0019
    160  CG2        6.7380  -22.2380    8.1390 C.3   214  VAL214      0.0019
    161  N         11.4630   -7.9590    8.7980 N.3   235  HIS235     -0.1226
    162  CA        11.8210   -8.7950    9.9580 C.3   235  HIS235      0.1752
    163  C         13.3200   -8.6640   10.2430 C.2   235  HIS235      0.2595
    164  O         13.7170   -8.6560   11.4110 O.2   235  HIS235     -0.2718
    165  CB        11.4460  -10.2770    9.8100 C.3   235  HIS235      0.0759
    166  CG        11.7010  -11.0320   11.0920 C.ar  235  HIS235      0.0818
    167  ND1       10.8780  -10.8620   12.2050 N.ar  235  HIS235     -0.2268
    168  CD2       12.7720  -11.7790   11.4560 C.ar  235  HIS235      0.1154
    169  CE1       11.4330  -11.5770   13.1760 C.ar  235  HIS235      0.1986
    170  NE2       12.5850  -12.1290   12.7810 N.ar  235  HIS235     -0.2212
    171  N         14.1470   -8.5590    9.1710 N.am  236  LYS236     -0.1980
    172  CA        15.5900   -8.3490    9.3060 C.3   236  LYS236      0.1596
    173  C         15.8370   -7.0190   10.0390 C.2   236  LYS236      0.2287
    174  O         16.7410   -6.9430   10.8520 O.2   236  LYS236     -0.2864
    175  CB        16.3090   -8.3700    7.9500 C.3   236  LYS236      0.0298
    176  CG        16.2970   -9.7410    7.2380 C.3   236  LYS236      0.0038
    177  CD        17.0810  -10.8710    7.9470 C.3   236  LYS236      0.0206
    178  CE        18.5780  -10.6350    7.9930 C.3   236  LYS236      0.1093
    179  NZ        19.3160  -11.7500    8.6790 N.3   236  LYS236     -0.1314
    180  N         15.0150   -7.6140   13.7540 N.3   239  ASP239     -0.1239
    181  CA        16.1710   -8.2930   14.3580 C.3   239  ASP239      0.1674
    182  C         17.3150   -7.3170   14.6610 C.2   239  ASP239      0.2266
    183  O         17.8470   -7.3450   15.7550 O.2   239  ASP239     -0.2867
    184  CB        16.7020   -9.3930   13.4300 C.3   239  ASP239      0.1410
    185  CG        15.8840  -10.6570   13.3310 C.2   239  ASP239      0.3668
    186  OD1       15.0350  -10.8930   14.2330 O.co2 239  ASP239     -0.2456
    187  OD2       16.1110  -11.4350   12.3640 O.co2 239  ASP239     -0.2456
    188  N         22.6790  -11.8360   12.9720 N.3   262  HIS262     -0.1241
    189  CA        23.0380  -11.6910   14.3910 C.3   262  HIS262      0.1621
    190  C         24.5350  -11.5760   14.6570 C.2   262  HIS262      0.2264
    191  O         24.9320  -10.7240   15.4500 O.2   262  HIS262     -0.2867
    192  CB        22.4280  -12.8180   15.2500 C.3   262  HIS262      0.0745
    193  CG        20.9810  -13.0440   14.9640 C.ar  262  HIS262      0.0817
    194  ND1       20.0290  -12.0580   15.2060 N.ar  262  HIS262     -0.2268
    195  CD2       20.3760  -14.1080   14.3910 C.ar  262  HIS262      0.1154
    196  CE1       18.8730  -12.5740   14.8110 C.ar  262  HIS262      0.1986
    197  NE2       19.0310  -13.8040   14.3150 N.ar  262  HIS262     -0.2212
@<TRIPOS>BOND
     1    62    61    2
     2    61    60    1
     3    60    59    1
     4    60    63    1
     5    63    64    1
     6    64    66   ar
     7    64    65   ar
     8    66    68   ar
     9    65    67   ar
    10    68    69   ar
    11    67    69   ar
    12    96    97    1
    13    96    93    1
    14   157   156    2
    15    92    93    1
    16    97    98    1
    17    94    93    1
    18    94    95    2
    19   156   155    1
    20    91    90    2
    21    98    99    1
    22    86    84   ar
    23    86    87   ar
    24    84    82   ar
    25    90    89    1
    26   155   154    1
    27   155   158    1
    28   159   158    1
    29    87    85   ar
    30   158   160    1
    31    82    81    1
    32    82    83   ar
    33    81    78    1
    34    85    83   ar
    35   176   177    1
    36   176   175    1
    37   100   101    1
    38    89    88    1
    39    88    79   am
    40   147   146    1
    41   177   178    1
    42   175   172    1
    43   178   179    1
    44    79    78    1
    45    79    80    2
    46   107   105    1
    47    78    77    1
    48   104   101    1
    49   104   106    1
    50   104   105    1
    51   101   102    1
    52   102   103    2
    53   161   162    1
    54   146   148    1
    55   146   143    1
    56   171   172    1
    57   171   163   am
    58   172   173    1
    59    77    72   am
    60   152   151    2
    61   151   150    1
    62   165   162    1
    63   165   166    1
    64    73    72    2
    65   108   109    1
    66   162   163    1
    67   173   174    2
    68   114   113    1
    69    72    71    1
    70   143   142    1
    71   143   144    1
    72   163   164    2
    73   113   115    1
    74   113   112    1
    75   142   138   am
    76   145   144    2
    77   166   168   ar
    78   166   167   ar
    79   112   109    1
    80   150   153    1
    81   150   149    1
    82   109   110    1
    83    71    70    1
    84    71    74    1
    85    26    25    1
    86   168   170   ar
    87   126   124    1
    88   138   139    2
    89   138   137    1
    90    75    74    1
    91    25    24    1
    92   116   110   am
    93   116   117    1
    94   167   169   ar
    95   110   111    2
    96   137   136    1
    97   137   140    1
    98   187   185   ar
    99   124   125    1
   100   124   123    2
   101    74    76    1
   102   122   123    1
   103   122   121    1
   104   120   121    1
   105   120   117    1
   106   170   169   ar
   107   188   189    1
   108   136   134   am
   109   131   128    1
   110   117   118    1
   111   140   141    1
   112   185   184    1
   113   185   186   ar
   114   184   181    1
   115   118   119    2
   116   135   134    2
   117   134   133    1
   118   180   181    1
   119    24    23    1
   120    22    21    2
   121   133   132    1
   122    20    23    1
   123    20    19    1
   124    20    21    1
   125   197   195   ar
   126   197   196   ar
   127   130   129    2
   128   181   182    1
   129   189   190    1
   130   189   192    1
   131   195   193   ar
   132   128   129    1
   133   128   127    1
   134   190   191    2
   135   182   183    2
   136   196   194   ar
   137    21    27   am
   138   193   194   ar
   139   193   192    1
   140    17    15   ar
   141    17    18   ar
   142     7     6    1
   143     8     6    1
   144    58    57   ar
   145    58    56   ar
   146    15    14   ar
   147    18    16   ar
   148    57    55   ar
   149     6     5    1
   150    27    28    1
   151    56    54   ar
   152    28    31    1
   153    28    29    1
   154    55    54   ar
   155    48    46   ar
   156    14    16   ar
   157    14    13    1
   158     4     3    2
   159    54    53    1
   160     5     2    1
   161    45    46    1
   162    45    44    1
   163    31    32    1
   164    29    30    2
   165    46    47   ar
   166     3     2    1
   167     3     9   am
   168    44    41    1
   169     2     1    1
   170    13    10    1
   171    10     9    1
   172    10    11    1
   173    53    50    1
   174    12    11    2
   175    39    37    1
   176    50    49    1
   177    50    51    1
   178    49    42   am
   179    43    42    2
   180    42    41    1
   181    41    40    1
   182    38    37    1
   183    52    51    2
   184    37    34    1
   185    34    33    1
   186    34    35    1
   187    35    36    2
