@<TRIPOS>MOLECULE
tmp/5u3cC02.pdb
 151 141 0 0 0
SMALL
GASTEIGER

@<TRIPOS>ATOM
      1  N          0.5670   11.8720   16.9660 N.3    15  SER15      -0.1202
      2  CA         0.9500   12.2580   18.3100 C.3    15  SER15       0.2020
      3  C          2.1860   11.5430   18.8350 C.2    15  SER15       0.2619
      4  O          2.2280   11.1400   19.9980 O.2    15  SER15      -0.2717
      5  CB        -0.2280   11.9940   19.2310 C.3    15  SER15       0.2103
      6  OG        -1.3760   12.6410   18.7480 O.3    15  SER15      -0.2182
      7  N          3.1940   11.3900   17.9890 N.am   16  LEU16      -0.1965
      8  CA         4.4320   10.7710   18.4260 C.3    16  LEU16       0.1728
      9  C          5.4420   11.7890   18.9340 C.2    16  LEU16       0.2617
     10  O          6.4140   11.4260   19.5970 O.2    16  LEU16      -0.2715
     11  CB         5.0450    9.9620   17.2930 C.3    16  LEU16       0.0311
     12  CG         4.2320    8.7520   16.8390 C.3    16  LEU16       0.0022
     13  CD1        4.9230    8.0960   15.6490 C.3    16  LEU16       0.0001
     14  CD2        4.1150    7.7820   18.0050 C.3    16  LEU16       0.0001
     15  N          5.2140   13.0700   18.6570 N.am   17  GLY17      -0.1940
     16  CA         6.1320   14.0970   19.1160 C.3    17  GLY17       0.2014
     17  C          7.1990   14.3890   18.0840 C.2    17  GLY17       0.2639
     18  O          8.3860   14.4350   18.4100 O.2    17  GLY17      -0.2714
     19  N          6.7710   14.5880   16.8360 N.am   18  LYS18      -0.1963
     20  CA         7.6980   14.9110   15.7610 C.3    18  LYS18       0.1728
     21  C          8.4270   16.2080   16.0370 C.2    18  LYS18       0.2617
     22  O          9.6360   16.2960   15.8170 O.2    18  LYS18      -0.2715
     23  CB         6.9740   15.0050   14.4140 C.3    18  LYS18       0.0311
     24  CG         6.5730   13.6690   13.8150 C.3    18  LYS18       0.0038
     25  CD         6.0410   13.8100   12.3930 C.3    18  LYS18       0.0206
     26  CE         4.5540   14.1490   12.3560 C.3    18  LYS18       0.1093
     27  NZ         4.0100   14.0670   10.9680 N.3    18  LYS18      -0.1314
     28  N          7.6980   17.2070   16.5440 N.am   19  GLY19      -0.1940
     29  CA         8.3010   18.4940   16.8560 C.3    19  GLY19       0.2014
     30  C          9.3130   18.3720   17.9800 C.2    19  GLY19       0.2638
     31  O         10.3640   19.0060   17.9430 O.2    19  GLY19      -0.2714
     32  N          8.9970   17.5440   18.9710 N.am   20  ILE20      -0.1977
     33  CA         9.8840   17.3240   20.0970 C.3    20  ILE20       0.1596
     34  C         11.1880   16.7100   19.6550 C.2    20  ILE20       0.2287
     35  O         12.2630   17.1640   20.0560 O.2    20  ILE20      -0.2864
     36  CB         9.2170   16.4220   21.1440 C.3    20  ILE20       0.0276
     37  CG1        8.0590   17.1710   21.7970 C.3    20  ILE20       0.0022
     38  CG2       10.2260   15.9540   22.1750 C.3    20  ILE20       0.0022
     39  CD1        7.1690   16.2910   22.6340 C.3    20  ILE20       0.0001
     40  N          8.2390   24.1960    9.9080 N.3    40  LYS40      -0.1245
     41  CA         7.1680   23.2100    9.9460 C.3    40  LYS40       0.1561
     42  C          6.1100   23.4670    8.8830 C.2    40  LYS40       0.2260
     43  O          5.6150   24.5920    8.7430 O.2    40  LYS40      -0.2867
     44  CB         6.4880   23.1790   11.3040 C.3    40  LYS40       0.0271
     45  CG         5.4020   22.1150   11.3800 C.3    40  LYS40       0.0035
     46  CD         4.7000   22.0910   12.7260 C.3    40  LYS40       0.0206
     47  CE         3.7260   20.9190   12.8010 C.3    40  LYS40       0.1093
     48  NZ         2.9140   20.9330   14.0460 N.3    40  LYS40      -0.1314
     49  N          4.2120   24.5940   18.0030 N.3    72  ASP72      -0.1239
     50  CA         5.4910   23.9140   17.9770 C.3    72  ASP72       0.1674
     51  C          6.6570   24.8450   17.7040 C.2    72  ASP72       0.2266
     52  O          7.7900   24.5130   18.0350 O.2    72  ASP72      -0.2867
     53  CB         5.4480   22.7920   16.9470 C.3    72  ASP72       0.1410
     54  CG         4.5640   21.6380   17.4250 C.2    72  ASP72       0.3668
     55  OD1        4.2990   21.5900   18.6030 O.co2  72  ASP72      -0.2456
     56  OD2        4.1360   20.8410   16.6220 O.co2  72  ASP72      -0.2456
     57  N          8.0900   25.7050   20.8470 N.3    75  HIS75      -0.1241
     58  CA         8.9940   24.6560   21.2730 C.3    75  HIS75       0.1621
     59  C         10.3280   24.7910   20.5800 C.2    75  HIS75       0.2264
     60  O         11.3680   24.5920   21.1990 O.2    75  HIS75      -0.2867
     61  CB         8.4100   23.2880   20.9790 C.3    75  HIS75       0.0745
     62  CG         7.2360   23.0090   21.8230 C.ar   75  HIS75       0.0817
     63  ND1        5.9810   23.4910   21.5300 N.ar   75  HIS75      -0.2268
     64  CD2        7.1170   22.3120   22.9720 C.ar   75  HIS75       0.1154
     65  CE1        5.1360   23.0990   22.4630 C.ar   75  HIS75       0.1986
     66  NE2        5.8020   22.3840   23.3510 N.ar   75  HIS75      -0.2212
     67  N          9.8530   19.8340    9.3030 N.3   140  GLU140     -0.1245
     68  CA         8.8630   18.9310    9.8490 C.3   140  GLU140      0.1567
     69  C          7.6380   18.8630    8.9800 C.2   140  GLU140      0.2260
     70  O          6.9870   19.8730    8.7200 O.2   140  GLU140     -0.2867
     71  CB         8.4310   19.3630   11.2400 C.3   140  GLU140      0.0388
     72  CG         7.4200   18.4150   11.8730 C.3   140  GLU140      0.1160
     73  CD         6.9090   18.9010   13.1970 C.2   140  GLU140      0.3649
     74  OE1        7.2500   20.0000   13.5680 O.co2 140  GLU140     -0.2457
     75  OE2        6.1630   18.1860   13.8290 O.co2 140  GLU140     -0.2457
     76  N          9.3980    5.1030   18.5840 N.3   211  ARG211     -0.1245
     77  CA         8.7150    5.6090   19.7560 C.3   211  ARG211      0.1563
     78  C          8.0130    4.5120   20.5060 C.2   211  ARG211      0.2260
     79  O          7.3210    3.6780   19.9220 O.2   211  ARG211     -0.2867
     80  CB         7.7090    6.6590   19.3750 C.3   211  ARG211      0.0307
     81  CG         8.3170    7.9350   18.8510 C.3   211  ARG211      0.0489
     82  CD         8.7760    8.7870   19.9620 C.3   211  ARG211      0.2205
     83  NE         7.6600    9.2330   20.7620 N.pl3 211  ARG211     -0.0865
     84  CZ         7.3650    8.7610   21.9850 C.cat 211  ARG211      0.5346
     85  NH1        8.1130    7.8420   22.5500 N.pl3 211  ARG211      0.1354
     86  NH2        6.3190    9.2150   22.6430 N.pl3 211  ARG211      0.1354
     87  N         13.5060    5.2270   21.0670 N.3   238  LEU238     -0.1231
     88  CA        13.1190    6.3710   21.8780 C.3   238  LEU238      0.1693
     89  C         11.9200    6.0890   22.7650 C.2   238  LEU238      0.2592
     90  O         10.7620    6.2660   22.3730 O.2   238  LEU238     -0.2718
     91  CB        12.8320    7.5810   21.0020 C.3   238  LEU238      0.0284
     92  CG        12.4720    8.8370   21.7940 C.3   238  LEU238      0.0019
     93  CD1       13.6300    9.1680   22.7170 C.3   238  LEU238      0.0001
     94  CD2       12.2130    9.9930   20.8430 C.3   238  LEU238      0.0001
     95  N         12.2380    5.6840   23.9830 N.am  239  LYS239     -0.1966
     96  CA        11.2750    5.3890   25.0200 C.3   239  LYS239      0.1728
     97  C         10.6920    6.6540   25.6190 C.2   239  LYS239      0.2616
     98  O         11.3300    7.7060   25.6040 O.2   239  LYS239     -0.2715
     99  CB        11.9570    4.5960   26.1070 C.3   239  LYS239      0.0311
    100  CG        13.0160    5.4070   26.8220 C.3   239  LYS239      0.0038
    101  CD        13.7580    4.5900   27.8560 C.3   239  LYS239      0.0206
    102  CE        14.7980    5.4470   28.5620 C.3   239  LYS239      0.1093
    103  NZ        15.5550    4.6760   29.5850 N.3   239  LYS239     -0.1314
    104  N          9.5010    6.5400   26.1830 N.am  240  ASP240     -0.1957
    105  CA         8.8760    7.6650   26.8450 C.3   240  ASP240      0.1840
    106  C          9.6260    8.1020   28.0860 C.2   240  ASP240      0.2621
    107  O         10.0960    7.2760   28.8690 O.2   240  ASP240     -0.2715
    108  CB         7.4380    7.3330   27.2000 C.3   240  ASP240      0.1450
    109  CG         6.5500    7.3390   25.9740 C.2   240  ASP240      0.3671
    110  OD1        6.9320    7.9670   25.0180 O.co2 240  ASP240     -0.2456
    111  OD2        5.5220    6.7040   25.9830 O.co2 240  ASP240     -0.2456
    112  N          9.7230    9.4160   28.2620 N.am  241  VAL241     -0.1977
    113  CA        10.3960   10.0090   29.4110 C.3   241  VAL241      0.1596
    114  C          9.5200   11.0640   30.0610 C.2   241  VAL241      0.2287
    115  O          8.5480   11.5310   29.4700 O.2   241  VAL241     -0.2864
    116  CB        11.7330   10.6590   29.0150 C.3   241  VAL241      0.0276
    117  CG1       12.6740    9.6270   28.4170 C.3   241  VAL241      0.0022
    118  CG2       11.4720   11.7860   28.0360 C.3   241  VAL241      0.0022
    119  N         11.0230   16.4890   28.3550 N.3   244  ILE244     -0.1245
    120  CA        11.5620   16.7660   27.0440 C.3   244  ILE244      0.1561
    121  C         13.0190   17.1570   27.1030 C.2   244  ILE244      0.2260
    122  O         13.7660   16.9560   26.1460 O.2   244  ILE244     -0.2867
    123  CB        10.8000   17.8830   26.3530 C.3   244  ILE244      0.0252
    124  CG1        9.3810   17.4290   26.0200 C.3   244  ILE244      0.0019
    125  CG2       11.5510   18.2580   25.0960 C.3   244  ILE244      0.0019
    126  CD1        8.4790   18.5570   25.5740 C.3   244  ILE244      0.0001
    127  N         15.7460   14.5470   26.2720 N.3   247  ILE247     -0.1245
    128  CA        15.8280   13.8940   24.9860 C.3   247  ILE247      0.1561
    129  C         17.1620   14.0880   24.2720 C.2   247  ILE247      0.2260
    130  O         17.6570   13.1190   23.7020 O.2   247  ILE247     -0.2867
    131  CB        14.6990   14.3420   24.0600 C.3   247  ILE247      0.0252
    132  CG1       13.3470   13.9820   24.6670 C.3   247  ILE247      0.0019
    133  CG2       14.8790   13.6520   22.7210 C.3   247  ILE247      0.0019
    134  CD1       13.1700   12.5140   24.9030 C.3   247  ILE247      0.0001
    135  N         -3.1370   22.0460   26.4360 N.3   303  ASP303     -0.1239
    136  CA        -2.4510   22.6290   25.2990 C.3   303  ASP303      0.1674
    137  C         -2.8300   24.0870   25.0640 C.2   303  ASP303      0.2266
    138  O         -2.0070   24.8720   24.5980 O.2   303  ASP303     -0.2867
    139  CB        -2.7290   21.8150   24.0440 C.3   303  ASP303      0.1410
    140  CG        -2.0410   20.4570   24.0780 C.2   303  ASP303      0.3668
    141  OD1       -1.1790   20.2660   24.9040 O.co2 303  ASP303     -0.2456
    142  OD2       -2.3870   19.6200   23.2790 O.co2 303  ASP303     -0.2456
    143  N         -0.5090   25.8690   27.0670 N.3   306  LYS306     -0.1245
    144  CA         0.7830   25.1950   27.0130 C.3   306  LYS306      0.1561
    145  C          1.9510   26.0770   27.3320 C.2   306  LYS306      0.2260
    146  O          2.7290   25.7790   28.2370 O.2   306  LYS306     -0.2867
    147  CB         1.0080   24.6140   25.6250 C.3   306  LYS306      0.0271
    148  CG         2.3470   23.9260   25.4460 C.3   306  LYS306      0.0035
    149  CD         2.4690   22.7280   26.3620 C.3   306  LYS306      0.0206
    150  CE         1.5140   21.6280   25.9430 C.3   306  LYS306      0.1093
    151  NZ         1.7100   20.3850   26.7330 N.3   306  LYS306     -0.1314
@<TRIPOS>BOND
     1    70    69    2
     2    43    42    2
     3    42    41    1
     4    69    68    1
     5    67    68    1
     6    68    71    1
     7    40    41    1
     8    41    44    1
     9    27    26    1
    10    71    72    1
    11    44    45    1
    12    45    46    1
    13    72    73    1
    14    26    25    1
    15    25    24    1
    16    46    47    1
    17    47    48    1
    18    73    74   ar
    19    73    75   ar
    20    24    23    1
    21    23    20    1
    22    13    12    1
    23    20    21    1
    24    20    19    1
    25    22    21    2
    26    21    28   am
    27    28    29    1
    28    56    54   ar
    29    19    17   am
    30    12    11    1
    31    12    14    1
    32    29    30    1
    33    53    54    1
    34    53    50    1
    35     1     2    1
    36    11     8    1
    37    54    55   ar
    38    51    50    1
    39    51    52    2
    40    31    30    2
    41    50    49    1
    42    30    32   am
    43     7     8    1
    44     7     3   am
    45    17    18    2
    46    17    16    1
    47     2     3    1
    48     2     5    1
    49     8     9    1
    50    76    77    1
    51    15     9   am
    52    15    16    1
    53     6     5    1
    54     3     4    2
    55    81    80    1
    56    81    82    1
    57     9    10    2
    58    32    33    1
    59    80    77    1
    60    34    35    2
    61    34    33    1
    62    77    78    1
    63    79    78    2
    64    82    83    1
    65    33    36    1
    66    59    60    2
    67    59    58    1
    68    83    84    2
    69    94    92    1
    70    57    58    1
    71    61    58    1
    72    61    62    1
    73    91    92    1
    74    91    88    1
    75    87    88    1
    76    36    37    1
    77    36    38    1
    78    63    62   ar
    79    63    65   ar
    80    92    93    1
    81    37    39    1
    82    62    64   ar
    83    88    89    1
    84    84    85    1
    85    84    86    1
    86    90    89    2
    87    65    66   ar
    88   133   131    1
    89    89    95   am
    90    64    66   ar
    91   142   140   ar
    92   130   129    2
    93    95    96    1
    94   139   140    1
    95   139   136    1
    96   131   132    1
    97   131   128    1
    98   140   141   ar
    99   129   128    1
   100   138   137    2
   101   132   134    1
   102   128   127    1
   103   110   109   ar
   104    96    97    1
   105    96    99    1
   106   137   136    1
   107   125   123    1
   108   136   135    1
   109   148   147    1
   110   148   149    1
   111   126   124    1
   112    98    97    2
   113    97   104   am
   114   147   144    1
   115   150   149    1
   116   150   151    1
   117   109   111   ar
   118   109   108    1
   119   124   123    1
   120    99   100    1
   121   122   121    2
   122   104   105    1
   123   123   120    1
   124   100   101    1
   125   105   108    1
   126   105   106    1
   127   144   143    1
   128   144   145    1
   129   120   121    1
   130   120   119    1
   131   145   146    2
   132   101   102    1
   133   118   116    1
   134   106   112   am
   135   106   107    2
   136   112   113    1
   137   117   116    1
   138   102   103    1
   139   116   113    1
   140   113   114    1
   141   115   114    2
