@<TRIPOS>MOLECULE
tmp/5u3cC00.pdb
 98 94 0 0 0
SMALL
GASTEIGER

@<TRIPOS>ATOM
      1  N          5.2240   -8.4730   24.7210 N.3   185  GLU185     -0.1231
      2  CA         6.3120   -7.9360   23.9120 C.3   185  GLU185      0.1699
      3  C          5.8590   -6.8400   22.9790 C.2   185  GLU185      0.2592
      4  O          4.6720   -6.6920   22.7050 O.2   185  GLU185     -0.2718
      5  CB         6.9560   -9.0280   23.0680 C.3   185  GLU185      0.0402
      6  CG         6.0410   -9.5940   21.9940 C.3   185  GLU185      0.1161
      7  CD         6.6900  -10.6680   21.1700 C.2   185  GLU185      0.3649
      8  OE1        7.7170  -11.1590   21.5730 O.co2 185  GLU185     -0.2457
      9  OE2        6.1670  -10.9930   20.1250 O.co2 185  GLU185     -0.2457
     10  N          6.8240   -6.0860   22.4730 N.am  186  VAL186     -0.1966
     11  CA         6.5380   -5.0450   21.5080 C.3   186  VAL186      0.1727
     12  C          6.4670   -5.6270   20.1100 C.2   186  VAL186      0.2616
     13  O          7.0320   -6.6870   19.8460 O.2   186  VAL186     -0.2715
     14  CB         7.6100   -3.9530   21.5280 C.3   186  VAL186      0.0290
     15  CG1        7.6980   -3.3000   22.8930 C.3   186  VAL186      0.0023
     16  CG2        8.9500   -4.5520   21.1280 C.3   186  VAL186      0.0023
     17  N          5.7860   -4.9310   19.2110 N.am  187  LYS187     -0.1963
     18  CA         5.6730   -5.4010   17.8320 C.3   187  LYS187      0.1728
     19  C          6.3430   -4.4510   16.8500 C.2   187  LYS187      0.2617
     20  O          6.3890   -3.2490   17.0940 O.2   187  LYS187     -0.2715
     21  CB         4.2140   -5.5810   17.4770 C.3   187  LYS187      0.0311
     22  CG         3.4780   -6.5740   18.3610 C.3   187  LYS187      0.0038
     23  CD         4.0210   -7.9810   18.1650 C.3   187  LYS187      0.0206
     24  CE         3.1410   -9.0180   18.8470 C.3   187  LYS187      0.1093
     25  NZ         3.6860  -10.4010   18.7000 N.3   187  LYS187     -0.1314
     26  N          6.8520   -4.9740   15.7250 N.am  188  THR188     -0.1937
     27  CA         7.5230   -4.0980   14.7620 C.3   188  THR188      0.2028
     28  C          6.7880   -4.0060   13.4340 C.2   188  THR188      0.2642
     29  O          7.0550   -3.1000   12.6460 O.2   188  THR188     -0.2714
     30  CB         8.9520   -4.5730   14.4490 C.3   188  THR188      0.1808
     31  OG1        8.9040   -5.8460   13.7850 O.3   188  THR188     -0.2208
     32  CG2        9.7610   -4.7020   15.7340 C.3   188  THR188      0.0379
     33  N          5.8790   -4.9480   13.1870 N.am  189  LYS189     -0.1977
     34  CA         5.1330   -4.9960   11.9350 C.3   189  LYS189      0.1596
     35  C          4.6360   -3.6410   11.4090 C.2   189  LYS189      0.2287
     36  O          4.8780   -3.3430   10.2380 O.2   189  LYS189     -0.2864
     37  CB         3.9780   -5.9960   12.0380 C.3   189  LYS189      0.0298
     38  CG         3.1360   -6.0670   10.7870 C.3   189  LYS189      0.0038
     39  CD         3.7190   -7.0840    9.8300 C.3   189  LYS189      0.0206
     40  CE         5.1070   -6.6580    9.3980 C.3   189  LYS189      0.1093
     41  NZ         5.7650   -7.6540    8.5180 N.3   189  LYS189     -0.1314
     42  N          7.3200   -1.6540    9.7850 N.3   192  GLN192     -0.1231
     43  CA         7.7190   -2.1890    8.5140 C.3   192  GLN192      0.1698
     44  C          6.8050   -1.6510    7.4340 C.2   192  GLN192      0.2592
     45  O          7.2700   -1.2330    6.3720 O.2   192  GLN192     -0.2718
     46  CB         7.6760   -3.7090    8.5510 C.3   192  GLN192      0.0381
     47  CG         8.7170   -4.3370    9.4620 C.3   192  GLN192      0.0905
     48  CD         8.5910   -5.8440    9.4960 C.2   192  GLN192      0.2608
     49  OE1        8.3590   -6.4530    8.4450 O.2   192  GLN192     -0.2717
     50  NE2        8.7210   -6.4620   10.6700 N.am  192  GLN192     -0.0878
     51  N          5.5090   -1.6190    7.7230 N.am  193  HIS193     -0.1976
     52  CA         4.5610   -1.1180    6.7540 C.3   193  HIS193      0.1656
     53  C          4.6780    0.3730    6.5340 C.2   193  HIS193      0.2291
     54  O          4.5380    0.8380    5.4030 O.2   193  HIS193     -0.2864
     55  CB         3.1460   -1.4250    7.1890 C.3   193  HIS193      0.0771
     56  CG         2.8120   -2.8660    7.1170 C.ar  193  HIS193      0.0820
     57  ND1        2.9450   -3.6040    5.9610 N.ar  193  HIS193     -0.2267
     58  CD2        2.3180   -3.7070    8.0480 C.ar  193  HIS193      0.1154
     59  CE1        2.5520   -4.8430    6.1890 C.ar  193  HIS193      0.1986
     60  NE2        2.1640   -4.9300    7.4460 N.ar  193  HIS193     -0.2212
     61  N          7.3740    0.9810    4.1420 N.3   196  LYS196     -0.1245
     62  CA         6.9340    0.6040    2.8110 C.3   196  LYS196      0.1561
     63  C          6.0750    1.6840    2.1870 C.2   196  LYS196      0.2260
     64  O          6.1560    1.9190    0.9800 O.2   196  LYS196     -0.2867
     65  CB         6.1560   -0.7010    2.8520 C.3   196  LYS196      0.0271
     66  CG         6.9890   -1.9380    3.1340 C.3   196  LYS196      0.0035
     67  CD         6.0990   -3.1680    3.1930 C.3   196  LYS196      0.0206
     68  CE         6.8870   -4.4380    3.4820 C.3   196  LYS196      0.1093
     69  NZ         5.9910   -5.6260    3.5280 N.3   196  LYS196     -0.1314
     70  N         15.3940   -6.2540   17.9370 N.3   220  GLU220     -0.1245
     71  CA        14.2230   -5.7950   17.2430 C.3   220  GLU220      0.1567
     72  C         14.6070   -4.6840   16.3120 C.2   220  GLU220      0.2260
     73  O         14.0860   -4.5810   15.2030 O.2   220  GLU220     -0.2867
     74  CB        13.1800   -5.3360   18.2440 C.3   220  GLU220      0.0388
     75  CG        12.7070   -6.4620   19.1420 C.3   220  GLU220      0.1160
     76  CD        12.1990   -7.6320   18.3570 C.2   220  GLU220      0.3649
     77  OE1       11.4130   -7.4330   17.4660 O.co2 220  GLU220     -0.2457
     78  OE2       12.6160   -8.7350   18.6310 O.co2 220  GLU220     -0.2457
     79  N         16.0010   -6.2780   13.3160 N.3   223  LYS223     -0.1245
     80  CA        14.9510   -6.7920   12.4560 C.3   223  LYS223      0.1561
     81  C         14.3840   -5.6880   11.5920 C.2   223  LYS223      0.2260
     82  O         14.1500   -5.8780   10.3980 O.2   223  LYS223     -0.2867
     83  CB        13.8650   -7.4100   13.3090 C.3   223  LYS223      0.0271
     84  CG        14.2830   -8.7030   13.9720 C.3   223  LYS223      0.0035
     85  CD        13.2200   -9.1900   14.9330 C.3   223  LYS223      0.0206
     86  CE        13.6690  -10.4400   15.6720 C.3   223  LYS223      0.1093
     87  NZ        12.6750  -10.8650   16.6980 N.3   223  LYS223     -0.1314
     88  N         14.4220   -5.1240    7.2840 N.3   227  PHE227     -0.1241
     89  CA        13.2810   -4.9130    6.4220 C.3   227  PHE227      0.1605
     90  C         13.1690   -3.5260    5.8270 C.2   227  PHE227      0.2264
     91  O         12.4500   -3.3340    4.8460 O.2   227  PHE227     -0.2867
     92  CB        12.0120   -5.2570    7.1690 C.3   227  PHE227      0.0534
     93  CG        11.8910   -6.7260    7.3950 C.ar  227  PHE227     -0.0203
     94  CD1       11.9170   -7.2560    8.6720 C.ar  227  PHE227     -0.0042
     95  CD2       11.7710   -7.5840    6.3200 C.ar  227  PHE227     -0.0042
     96  CE1       11.8160   -8.6160    8.8720 C.ar  227  PHE227     -0.0003
     97  CE2       11.6720   -8.9420    6.5140 C.ar  227  PHE227     -0.0003
     98  CZ        11.6920   -9.4610    7.7910 C.ar  227  PHE227     -0.0000
@<TRIPOS>BOND
     1    64    63    2
     2    63    62    1
     3    62    65    1
     4    62    61    1
     5    65    66    1
     6    66    67    1
     7    67    68    1
     8    68    69    1
     9    91    90    2
    10    54    53    2
    11    90    89    1
    12    57    59   ar
    13    57    56   ar
    14    59    60   ar
    15    95    97   ar
    16    95    93   ar
    17    45    44    2
    18    89    92    1
    19    89    88    1
    20    97    98   ar
    21    53    52    1
    22    52    55    1
    23    52    51    1
    24    56    55    1
    25    56    58   ar
    26    92    93    1
    27    93    94   ar
    28    44    51   am
    29    44    43    1
    30    60    58   ar
    31    98    96   ar
    32    49    48    2
    33    43    46    1
    34    43    42    1
    35    41    40    1
    36    46    47    1
    37    94    96   ar
    38    40    39    1
    39    47    48    1
    40    48    50   am
    41    39    38    1
    42    36    35    2
    43    82    81    2
    44    38    37    1
    45    35    34    1
    46    81    80    1
    47    34    37    1
    48    34    33    1
    49    80    83    1
    50    80    79    1
    51    29    28    2
    52    33    28   am
    53    83    84    1
    54    28    27    1
    55    31    30    1
    56    84    85    1
    57    30    27    1
    58    30    32    1
    59    27    26    1
    60    85    86    1
    61    73    72    2
    62    86    87    1
    63    26    19   am
    64    72    71    1
    65    19    20    2
    66    19    18    1
    67    71    70    1
    68    71    74    1
    69    77    76   ar
    70    21    18    1
    71    21    22    1
    72    18    17    1
    73    23    22    1
    74    23    24    1
    75    74    75    1
    76    76    78   ar
    77    76    75    1
    78    25    24    1
    79    17    12   am
    80    13    12    2
    81    12    11    1
    82     9     7   ar
    83    16    14    1
    84     7     8   ar
    85     7     6    1
    86    11    14    1
    87    11    10    1
    88    14    15    1
    89     6     5    1
    90    10     3   am
    91     4     3    2
    92     3     2    1
    93     5     2    1
    94     2     1    1
