@<TRIPOS>MOLECULE
tmp/5u3dA00.pdb
 92 87 0 0 0
SMALL
GASTEIGER

@<TRIPOS>ATOM
      1  N        -14.0620   25.0280   14.7370 N.3    37  GLN37      -0.1245
      2  CA       -13.5850   25.5730   15.9950 C.3    37  GLN37       0.1566
      3  C        -13.1000   24.4270   16.8680 C.2    37  GLN37       0.2260
      4  O        -13.7400   23.3750   16.9160 O.2    37  GLN37      -0.2867
      5  CB       -14.7180   26.3190   16.7060 C.3    37  GLN37       0.0367
      6  CG       -14.3460   26.9270   18.0280 C.3    37  GLN37       0.0905
      7  CD       -15.5720   27.3400   18.8030 C.2    37  GLN37       0.2608
      8  OE1      -16.3670   26.4920   19.2030 O.2    37  GLN37      -0.2717
      9  NE2      -15.7540   28.6440   18.9940 N.am   37  GLN37      -0.0878
     10  N        -11.5900   23.8470   20.9090 N.3    39  ARG39      -0.1231
     11  CA       -11.2120   24.4080   22.1980 C.3    39  ARG39       0.1694
     12  C        -11.4640   23.3890   23.3000 C.2    39  ARG39       0.2592
     13  O        -11.9840   22.3000   23.0390 O.2    39  ARG39      -0.2718
     14  CB       -11.9850   25.7080   22.4730 C.3    39  ARG39       0.0321
     15  CG       -13.5070   25.5550   22.4410 C.3    39  ARG39       0.0489
     16  CD       -14.2110   26.9080   22.5930 C.3    39  ARG39       0.2205
     17  NE       -13.7560   27.6140   23.7930 N.pl3  39  ARG39      -0.0865
     18  CZ       -14.3420   27.5070   24.9820 C.cat  39  ARG39       0.5346
     19  NH1      -15.4120   26.7260   25.1290 N.pl3  39  ARG39       0.1354
     20  NH2      -13.8650   28.1760   26.0240 N.pl3  39  ARG39       0.1354
     21  N        -11.0760   23.7610   24.5200 N.am   40  THR40      -0.1953
     22  CA       -11.2630   22.9700   25.7380 C.3    40  THR40       0.1897
     23  C        -10.9600   21.4730   25.5580 C.2    40  THR40       0.2313
     24  O        -11.6850   20.6180   26.0730 O.2    40  THR40      -0.2863
     25  CB       -12.6960   23.1620   26.3030 C.3    40  THR40       0.1794
     26  OG1      -13.6680   22.7820   25.3260 O.3    40  THR40      -0.2208
     27  CG2      -12.9320   24.6380   26.6630 C.3    40  THR40       0.0378
     28  N        -15.3530   21.4520   15.9910 N.3    45  ARG45      -0.1245
     29  CA       -16.7720   21.7380   15.8120 C.3    45  ARG45       0.1563
     30  C        -16.9910   22.4790   14.5020 C.2    45  ARG45       0.2260
     31  O        -16.3950   23.5400   14.2850 O.2    45  ARG45      -0.2867
     32  CB       -17.3200   22.5960   16.9680 C.3    45  ARG45       0.0307
     33  CG       -18.7840   22.9440   16.7740 C.3    45  ARG45       0.0489
     34  CD       -19.3370   23.9890   17.7360 C.3    45  ARG45       0.2205
     35  NE       -20.7930   24.0080   17.6110 N.pl3  45  ARG45      -0.0865
     36  CZ       -21.6110   24.8290   18.2570 C.cat  45  ARG45       0.5346
     37  NH1      -21.1260   25.7340   19.0910 N.pl3  45  ARG45       0.1354
     38  NH2      -22.9220   24.7390   18.0600 N.pl3  45  ARG45       0.1354
     39  N        -18.5180   25.0560   12.1160 N.3    47  LEU47      -0.1245
     40  CA       -19.2050   26.3440   12.2670 C.3    47  LEU47       0.1561
     41  C        -19.9230   26.7270   10.9880 C.2    47  LEU47       0.2260
     42  O        -21.1160   27.0410   10.9860 O.2    47  LEU47      -0.2867
     43  CB       -18.2210   27.4600   12.6250 C.3    47  LEU47       0.0270
     44  CG       -17.3770   27.2440   13.8770 C.3    47  LEU47       0.0019
     45  CD1      -16.2920   28.3360   13.9730 C.3    47  LEU47       0.0001
     46  CD2      -18.2810   27.2710   15.0930 C.3    47  LEU47       0.0001
     47  N        -24.0460   29.6260   16.9290 N.3    59  PRO59      -0.2116
     48  CA       -24.5500   30.9790   17.2010 C.3    59  PRO59       0.1372
     49  C        -24.4850   31.8930   15.9800 C.2    59  PRO59       0.2244
     50  O        -23.5530   31.8010   15.1810 O.2    59  PRO59      -0.2868
     51  CB       -23.6200   31.4800   18.3060 C.3    59  PRO59       0.0268
     52  CG       -23.1530   30.2390   18.9840 C.3    59  PRO59       0.0207
     53  CD       -23.0110   29.2200   17.8930 C.3    59  PRO59       0.0892
     54  N        -23.6710   34.8230   15.6230 N.3    61  ARG61      -0.1231
     55  CA       -22.5650   35.7810   15.5690 C.3    61  ARG61       0.1694
     56  C        -21.4460   35.2870   14.6500 C.2    61  ARG61       0.2592
     57  O        -20.5600   36.0560   14.2840 O.2    61  ARG61      -0.2718
     58  CB       -22.0150   36.0720   16.9750 C.3    61  ARG61       0.0321
     59  CG       -21.3430   34.8980   17.6790 C.3    61  ARG61       0.0489
     60  CD       -20.8930   35.3130   19.0890 C.3    61  ARG61       0.2205
     61  NE       -20.3700   34.1920   19.8600 N.pl3  61  ARG61      -0.0865
     62  CZ       -21.1260   33.3910   20.6000 C.cat  61  ARG61       0.5346
     63  NH1      -22.4430   33.6000   20.6850 N.pl3  61  ARG61       0.1354
     64  NH2      -20.5710   32.3900   21.2620 N.pl3  61  ARG61       0.1354
     65  N        -21.4930   34.0090   14.2650 N.am   62  PHE62      -0.1976
     66  CA       -20.5180   33.4760   13.3160 C.3    62  PHE62       0.1639
     67  C        -21.0070   33.6440   11.8870 C.2    62  PHE62       0.2290
     68  O        -22.1470   33.3050   11.5860 O.2    62  PHE62      -0.2864
     69  CB       -20.2430   31.9920   13.5920 C.3    62  PHE62       0.0560
     70  CG       -19.5090   31.7520   14.8680 C.ar   62  PHE62      -0.0200
     71  CD1      -18.1240   31.7600   14.8950 C.ar   62  PHE62      -0.0042
     72  CD2      -20.2050   31.5280   16.0460 C.ar   62  PHE62      -0.0042
     73  CE1      -17.4410   31.5420   16.0870 C.ar   62  PHE62      -0.0003
     74  CE2      -19.5330   31.3280   17.2390 C.ar   62  PHE62      -0.0003
     75  CZ       -18.1450   31.3340   17.2560 C.ar   62  PHE62      -0.0000
     76  N        -16.2360   32.4920   25.6050 N.3    81  GLU81      -0.1231
     77  CA       -16.2040   31.0730   25.2340 C.3    81  GLU81       0.1699
     78  C        -15.8340   30.8640   23.7580 C.2    81  GLU81       0.2592
     79  O        -15.8170   29.7270   23.2790 O.2    81  GLU81      -0.2718
     80  CB       -17.5520   30.4120   25.5310 C.3    81  GLU81       0.0402
     81  CG       -18.7150   30.9170   24.6900 C.3    81  GLU81       0.1161
     82  CD       -19.4710   32.0760   25.3410 C.2    81  GLU81       0.3649
     83  OE1      -18.8780   32.8300   26.1550 O.co2  81  GLU81      -0.2457
     84  OE2      -20.6710   32.2270   25.0390 O.co2  81  GLU81      -0.2457
     85  N        -15.5540   31.9560   23.0450 N.am   82  ASP82      -0.1974
     86  CA       -15.0850   31.8650   21.6550 C.3    82  ASP82       0.1709
     87  C        -13.5680   31.7250   21.5530 C.2    82  ASP82       0.2293
     88  O        -13.0300   31.5500   20.4500 O.2    82  ASP82      -0.2864
     89  CB       -15.5230   33.0940   20.8390 C.3    82  ASP82       0.1436
     90  CG       -17.0340   33.2300   20.7440 C.2    82  ASP82       0.3671
     91  OD1      -17.7350   32.2200   20.9770 O.co2  82  ASP82      -0.2456
     92  OD2      -17.5200   34.3510   20.4410 O.co2  82  ASP82      -0.2456
@<TRIPOS>BOND
     1    42    41    2
     2    41    40    1
     3    68    67    2
     4    67    66    1
     5    39    40    1
     6    40    43    1
     7    43    44    1
     8    66    69    1
     9    66    65    1
    10    69    70    1
    11    44    45    1
    12    44    46    1
    13    65    56   am
    14    57    56    2
    15    31    30    2
    16    30    29    1
    17    56    55    1
    18     1     2    1
    19    70    71   ar
    20    70    72   ar
    21    71    73   ar
    22    50    49    2
    23    55    54    1
    24    55    58    1
    25    29    28    1
    26    29    32    1
    27    49    48    1
    28     2     5    1
    29     2     3    1
    30    72    74   ar
    31    73    75   ar
    32     5     6    1
    33    33    32    1
    34    33    34    1
    35     3     4    2
    36    47    48    1
    37    47    53    1
    38    58    59    1
    39    48    51    1
    40    74    75   ar
    41    35    34    1
    42    35    36    2
    43    59    60    1
    44    53    52    1
    45     6     7    1
    46    38    36    1
    47    36    37    1
    48    51    52    1
    49     7     9   am
    50     7     8    2
    51    60    61    1
    52    61    62    2
    53    92    90   ar
    54    88    87    2
    55    62    63    1
    56    62    64    1
    57    90    89    1
    58    90    91   ar
    59    89    86    1
    60    10    11    1
    61    87    86    1
    62    86    85    1
    63    11    14    1
    64    11    12    1
    65    15    14    1
    66    15    16    1
    67    16    17    1
    68    13    12    2
    69    85    78   am
    70    79    78    2
    71    12    21   am
    72    78    77    1
    73    17    18    2
    74    21    22    1
    75    81    82    1
    76    81    80    1
    77    18    19    1
    78    18    20    1
    79    84    82   ar
    80    77    80    1
    81    77    76    1
    82    26    25    1
    83    82    83   ar
    84    23    22    1
    85    23    24    2
    86    22    25    1
    87    25    27    1
