@<TRIPOS>MOLECULE
tmp/5u3fA00.pdb
 190 180 0 0 0
SMALL
GASTEIGER

@<TRIPOS>ATOM
      1  N         -2.3620  -14.6320  -19.8370 N.3    43  PHE43      -0.1241
      2  CA        -2.7830  -14.1030  -21.1400 C.3    43  PHE43       0.1605
      3  C         -1.8430  -14.4850  -22.2870 C.2    43  PHE43       0.2264
      4  O         -0.7780  -15.0480  -22.0790 O.2    43  PHE43      -0.2867
      5  CB        -2.9380  -12.5730  -21.0610 C.3    43  PHE43       0.0534
      6  CG        -1.6260  -11.7870  -21.0290 C.ar   43  PHE43      -0.0203
      7  CD1       -0.8630  -11.6730  -19.8560 C.ar   43  PHE43      -0.0042
      8  CD2       -1.1960  -11.0880  -22.1700 C.ar   43  PHE43      -0.0042
      9  CE1        0.3250  -10.8920  -19.8500 C.ar   43  PHE43      -0.0003
     10  CE2       -0.0230  -10.3250  -22.1660 C.ar   43  PHE43      -0.0003
     11  CZ         0.7410  -10.2410  -20.9940 C.ar   43  PHE43      -0.0000
     12  N         -0.8660  -13.3100  -26.7500 N.3    45  GLY45      -0.1225
     13  CA        -0.9520  -12.3000  -27.7810 C.3    45  GLY45       0.1811
     14  C         -0.4580  -12.8740  -29.0910 C.2    45  GLY45       0.2280
     15  O          0.5390  -13.5950  -29.1300 O.2    45  GLY45      -0.2866
     16  N          0.7540  -20.6310  -29.3090 N.3    64  ASN64      -0.1240
     17  CA         0.0720  -19.7860  -28.3330 C.3    64  ASN64       0.1653
     18  C         -0.9150  -20.5820  -27.5060 C.2    64  ASN64       0.2266
     19  O         -1.0160  -20.3890  -26.2990 O.2    64  ASN64      -0.2867
     20  CB        -0.6490  -18.6390  -29.0070 C.3    64  ASN64       0.1155
     21  CG         0.3140  -17.6860  -29.7110 C.2    64  ASN64       0.2627
     22  OD1        0.5960  -17.8530  -30.8930 O.2    64  ASN64      -0.2716
     23  ND2        0.8110  -16.6790  -28.9790 N.am   64  ASN64      -0.0877
     24  N          1.0120  -22.5020  -25.0240 N.3    67  ARG67      -0.1245
     25  CA         1.6870  -21.6490  -24.0390 C.3    67  ARG67       0.1563
     26  C          0.6550  -21.0780  -23.0520 C.2    67  ARG67       0.2260
     27  O          0.9570  -20.9460  -21.8530 O.2    67  ARG67      -0.2867
     28  CB         2.4930  -20.5320  -24.7310 C.3    67  ARG67       0.0307
     29  CG         3.4430  -19.7920  -23.7670 C.3    67  ARG67       0.0489
     30  CD         4.3900  -18.8360  -24.5020 C.3    67  ARG67       0.2205
     31  NE         3.6730  -17.6780  -25.0430 N.pl3  67  ARG67      -0.0865
     32  CZ         4.2360  -16.7270  -25.8010 C.cat  67  ARG67       0.5346
     33  NH1        5.5330  -16.7850  -26.1140 N.pl3  67  ARG67       0.1354
     34  NH2        3.5070  -15.7170  -26.2570 N.pl3  67  ARG67       0.1354
     35  N         -4.3540   -7.4600  -33.8840 N.3   110  TYR110     -0.1241
     36  CA        -3.8360   -8.0800  -32.6560 C.3   110  TYR110      0.1605
     37  C         -4.9460   -8.7740  -31.8750 C.2   110  TYR110      0.2264
     38  O         -6.0100   -8.1990  -31.6250 O.2   110  TYR110     -0.2867
     39  CB        -3.1660   -7.0240  -31.7590 C.3   110  TYR110      0.0534
     40  CG        -2.5120   -7.5730  -30.4990 C.ar  110  TYR110     -0.0201
     41  CD1       -1.2950   -8.2390  -30.5570 C.ar  110  TYR110     -0.0009
     42  CD2       -3.1190   -7.4250  -29.2640 C.ar  110  TYR110     -0.0009
     43  CE1       -0.6880   -8.7410  -29.4050 C.ar  110  TYR110      0.0417
     44  CE2       -2.5140   -7.9230  -28.1010 C.ar  110  TYR110      0.0417
     45  CZ        -1.3090   -8.5760  -28.1860 C.ar  110  TYR110      0.1957
     46  OH        -0.7090   -9.0690  -27.0430 O.3   110  TYR110     -0.2866
     47  N         -5.9740  -10.7880  -28.3620 N.3   112  ARG112     -0.1245
     48  CA        -5.6080  -10.8760  -26.9360 C.3   112  ARG112      0.1563
     49  C         -6.5110  -11.9210  -26.2660 C.2   112  ARG112      0.2260
     50  O         -7.6570  -11.6270  -25.8690 O.2   112  ARG112     -0.2867
     51  CB        -5.7260   -9.4950  -26.2520 C.3   112  ARG112      0.0307
     52  CG        -5.6330   -9.5140  -24.6990 C.3   112  ARG112      0.0489
     53  CD        -4.3440  -10.1730  -24.2060 C.3   112  ARG112      0.2205
     54  NE        -3.1140   -9.5080  -24.6410 N.pl3 112  ARG112     -0.0865
     55  CZ        -2.5370   -8.4880  -24.0130 C.cat 112  ARG112      0.5346
     56  NH1       -3.1020   -7.9500  -22.9130 N.pl3 112  ARG112      0.1354
     57  NH2       -1.4060   -7.9710  -24.5040 N.pl3 112  ARG112      0.1354
     58  N         12.5070   -8.6540  -12.2260 N.3   152  ARG152     -0.1245
     59  CA        11.2090   -8.9160  -12.7850 C.3   152  ARG152      0.1563
     60  C         10.6410  -10.3110  -12.4520 C.2   152  ARG152      0.2260
     61  O          9.4250  -10.5080  -12.3330 O.2   152  ARG152     -0.2867
     62  CB        11.3430   -8.7390  -14.2840 C.3   152  ARG152      0.0307
     63  CG        10.1180   -8.9800  -15.0060 C.3   152  ARG152      0.0489
     64  CD        10.3170   -8.6170  -16.4560 C.3   152  ARG152      0.2205
     65  NE         9.0070   -8.6620  -17.0690 N.pl3 152  ARG152     -0.0865
     66  CZ         8.3600   -9.7820  -17.3670 C.cat 152  ARG152      0.5346
     67  NH1        8.9170  -10.9750  -17.1300 N.pl3 152  ARG152      0.1354
     68  NH2        7.1570   -9.6940  -17.9250 N.pl3 152  ARG152      0.1354
     69  N          3.2880  -16.4060  -19.0460 N.3   162  LYS162     -0.1245
     70  CA         2.7900  -15.0800  -19.4350 C.3   162  LYS162      0.1561
     71  C          1.7130  -14.6800  -18.4410 C.2   162  LYS162      0.2260
     72  O          0.4990  -14.9290  -18.6440 O.2   162  LYS162     -0.2867
     73  CB         2.2740  -15.1150  -20.8780 C.3   162  LYS162      0.0271
     74  CG         2.1660  -13.7680  -21.5530 C.3   162  LYS162      0.0035
     75  CD         2.3010  -13.8960  -23.1010 C.3   162  LYS162      0.0206
     76  CE         2.0710  -12.5670  -23.7220 C.3   162  LYS162      0.1093
     77  NZ         2.9910  -11.5290  -23.2290 N.3   162  LYS162     -0.1314
     78  N          4.3720   -8.3970  -15.2560 N.3   167  TYR167     -0.1241
     79  CA         4.3080   -7.1000  -15.8960 C.3   167  TYR167      0.1605
     80  C          4.0940   -6.0040  -14.8650 C.2   167  TYR167      0.2264
     81  O          4.6930   -4.9510  -14.9670 O.2   167  TYR167     -0.2867
     82  CB         3.2180   -7.0900  -16.9880 C.3   167  TYR167      0.0534
     83  CG         3.5560   -8.1120  -18.0470 C.ar  167  TYR167     -0.0201
     84  CD1        4.3060   -7.7490  -19.1860 C.ar  167  TYR167     -0.0009
     85  CD2        3.1800   -9.4570  -17.8950 C.ar  167  TYR167     -0.0009
     86  CE1        4.6600   -8.7010  -20.1340 C.ar  167  TYR167      0.0417
     87  CE2        3.5400  -10.4170  -18.8510 C.ar  167  TYR167      0.0417
     88  CZ         4.2760  -10.0280  -19.9600 C.ar  167  TYR167      0.1957
     89  OH         4.6360  -10.9660  -20.9190 O.3   167  TYR167     -0.2866
     90  N         15.7550  -10.7400  -20.7260 N.3   198  GLU198     -0.1231
     91  CA        14.9080  -10.3010  -21.8320 C.3   198  GLU198      0.1699
     92  C         14.5640   -8.8390  -21.6350 C.2   198  GLU198      0.2592
     93  O         14.9030   -8.2420  -20.6040 O.2   198  GLU198     -0.2718
     94  CB        13.6210  -11.1410  -21.8990 C.3   198  GLU198      0.0402
     95  CG        12.8320  -11.1920  -20.5670 C.3   198  GLU198      0.1161
     96  CD        11.5690  -12.0690  -20.6370 C.2   198  GLU198      0.3649
     97  OE1       11.1840  -12.5040  -21.7480 O.co2 198  GLU198     -0.2457
     98  OE2       10.9620  -12.3320  -19.5630 O.co2 198  GLU198     -0.2457
     99  N         13.8410   -8.2750  -22.5870 N.am  199  MET199     -0.1965
    100  CA        13.2610   -6.9580  -22.3780 C.3   199  MET199      0.1736
    101  C         11.8560   -7.0660  -21.7840 C.2   199  MET199      0.2617
    102  O         11.3500   -8.1650  -21.5760 O.2   199  MET199     -0.2715
    103  CB        13.2600   -6.1910  -23.6990 C.3   199  MET199      0.0427
    104  CG        14.7000   -6.0920  -24.2250 C.3   199  MET199      0.0599
    105  SD        14.8420   -5.0650  -25.6750 S.3   199  MET199     -0.1393
    106  CE        16.5260   -5.4210  -26.1240 C.3   199  MET199      0.0692
    107  N         11.2270   -5.9310  -21.5100 N.am  200  GLY200     -0.1940
    108  CA         9.9010   -5.9490  -20.9090 C.3   200  GLY200      0.2014
    109  C          8.8400   -6.7290  -21.6690 C.2   200  GLY200      0.2639
    110  O          7.9610   -7.3420  -21.0600 O.2   200  GLY200     -0.2714
    111  N          8.9060   -6.7000  -22.9990 N.am  201  GLY201     -0.1939
    112  CA         7.9060   -7.3700  -23.8250 C.3   201  GLY201      0.2014
    113  C          8.5010   -8.0360  -25.0530 C.2   201  GLY201      0.2639
    114  O          7.7940   -8.3210  -26.0380 O.2   201  GLY201     -0.2714
    115  N          9.8080   -8.3080  -24.9950 N.am  202  MET202     -0.1963
    116  CA        10.5250   -8.9020  -26.1180 C.3   202  MET202      0.1736
    117  C         11.7080   -9.7450  -25.6540 C.2   202  MET202      0.2616
    118  O         12.2590   -9.5020  -24.5780 O.2   202  MET202     -0.2715
    119  CB        11.0310   -7.8130  -27.0790 C.3   202  MET202      0.0427
    120  CG         9.9360   -6.9700  -27.7100 C.3   202  MET202      0.0599
    121  SD        10.5280   -5.6910  -28.8690 S.3   202  MET202     -0.1393
    122  CE        10.4170   -6.5710  -30.4190 C.3   202  MET202      0.0692
    123  N         12.0950  -10.7420  -26.4530 N.am  203  ASN203     -0.1972
    124  CA        13.3650  -11.4340  -26.2250 C.3   203  ASN203      0.1688
    125  C         14.4990  -10.6930  -26.9150 C.2   203  ASN203      0.2292
    126  O         14.2460   -9.7660  -27.6920 O.2   203  ASN203     -0.2864
    127  CB        13.2810  -12.8840  -26.6950 C.3   203  ASN203      0.1181
    128  CG        12.2930  -13.6910  -25.8650 C.2   203  ASN203      0.2629
    129  OD1       11.1960  -14.0760  -26.3300 O.2   203  ASN203     -0.2716
    130  ND2       12.6560  -13.9250  -24.6310 N.am  203  ASN203     -0.0877
    131  N         10.6150  -15.4060  -20.7110 N.3   226  LEU226     -0.1245
    132  CA         9.5450  -15.9850  -21.5280 C.3   226  LEU226      0.1561
    133  C         10.1010  -16.6920  -22.7670 C.2   226  LEU226      0.2260
    134  O         10.9320  -16.1420  -23.4870 O.2   226  LEU226     -0.2867
    135  CB         8.5370  -14.9030  -21.9560 C.3   226  LEU226      0.0270
    136  CG         7.2000  -15.4690  -22.4920 C.3   226  LEU226      0.0019
    137  CD1        6.3610  -16.1030  -21.3770 C.3   226  LEU226      0.0001
    138  CD2        6.3980  -14.4050  -23.2100 C.3   226  LEU226      0.0001
    139  N          9.5970  -16.9110  -25.9380 N.3   228  GLY228     -0.1210
    140  CA         8.8580  -16.2040  -26.9720 C.3   228  GLY228      0.1956
    141  C          8.7300  -17.0640  -28.2100 C.2   228  GLY228      0.2612
    142  O          9.6280  -17.8390  -28.5570 O.2   228  GLY228     -0.2717
    143  N          7.5920  -16.9350  -28.8720 N.am  229  ILE229     -0.1965
    144  CA         7.3590  -17.7000  -30.1000 C.3   229  ILE229      0.1727
    145  C          8.1490  -17.0750  -31.2610 C.2   229  ILE229      0.2617
    146  O          8.6230  -17.7980  -32.1460 O.2   229  ILE229     -0.2715
    147  CB         5.8420  -17.7840  -30.3870 C.3   229  ILE229      0.0290
    148  CG1        5.1940  -18.6380  -29.2700 C.3   229  ILE229      0.0022
    149  CG2        5.5590  -18.3260  -31.8140 C.3   229  ILE229      0.0023
    150  CD1        3.7080  -18.5300  -29.1240 C.3   229  ILE229      0.0001
    151  N          8.3700  -15.7570  -31.2310 N.am  230  THR230     -0.1937
    152  CA         9.1870  -15.1060  -32.2700 C.3   230  THR230      0.2028
    153  C         10.6380  -15.5710  -32.1110 C.2   230  THR230      0.2642
    154  O         11.2860  -15.9760  -33.0790 O.2   230  THR230     -0.2714
    155  CB         9.1020  -13.5510  -32.1890 C.3   230  THR230      0.1808
    156  OG1        7.7340  -13.1660  -32.0170 O.3   230  THR230     -0.2208
    157  CG2        9.6170  -12.8880  -33.5060 C.3   230  THR230      0.0379
    158  N         11.1200  -15.5600  -30.8600 N.am  231  ARG231     -0.1977
    159  CA        12.4410  -16.1060  -30.5260 C.3   231  ARG231      0.1597
    160  C         12.6260  -17.5290  -31.0400 C.2   231  ARG231      0.2287
    161  O         13.5970  -17.8200  -31.7400 O.2   231  ARG231     -0.2864
    162  CB        12.6330  -16.0640  -29.0080 C.3   231  ARG231      0.0334
    163  CG        13.8780  -16.7920  -28.4590 C.3   231  ARG231      0.0492
    164  CD        13.7160  -16.9880  -26.9550 C.3   231  ARG231      0.2205
    165  NE        14.9500  -17.5340  -26.3850 N.pl3 231  ARG231     -0.0865
    166  CZ        15.2710  -18.8270  -26.4150 C.cat 231  ARG231      0.5346
    167  NH1       14.4340  -19.6890  -26.9440 N.pl3 231  ARG231      0.1354
    168  NH2       16.4230  -19.2630  -25.9140 N.pl3 231  ARG231      0.1354
    169  N         12.9620   -9.0970  -30.2240 N.3   270  CYS270     -0.1221
    170  CA        11.9260   -9.7280  -31.0280 C.3   270  CYS270      0.1808
    171  C         10.6700  -10.0590  -30.2290 C.2   270  CYS270      0.2602
    172  O         10.7140  -10.3210  -29.0280 O.2   270  CYS270     -0.2717
    173  CB        12.4670  -10.9920  -31.6890 C.3   270  CYS270      0.0970
    174  SG        12.9340  -12.3200  -30.5440 S.3   270  CYS270     -0.0800
    175  N          9.5400  -10.0360  -30.9300 N.am  271  GLY271     -0.1942
    176  CA         8.2550  -10.2540  -30.3040 C.3   271  GLY271      0.2014
    177  C          7.1570  -10.1170  -31.3160 C.2   271  GLY271      0.2640
    178  O          7.3750   -9.6640  -32.4430 O.2   271  GLY271     -0.2714
    179  N          5.9630  -10.4920  -30.8960 N.am  272  THR272     -0.1936
    180  CA         4.8170  -10.5400  -31.7870 C.3   272  THR272      0.2028
    181  C          4.4860   -9.1940  -32.4440 C.2   272  THR272      0.2642
    182  O          4.3010   -9.1240  -33.6650 O.2   272  THR272     -0.2714
    183  CB         3.5920  -11.0550  -31.0110 C.3   272  THR272      0.1808
    184  OG1        3.8150  -12.4280  -30.6570 O.3   272  THR272     -0.2208
    185  CG2        2.3510  -10.9600  -31.8680 C.3   272  THR272      0.0379
    186  N          4.4300   -8.1280  -31.6520 N.am  273  ALA273     -0.1977
    187  CA         3.9880   -6.8160  -32.1620 C.3   273  ALA273      0.1597
    188  C          4.9010   -6.2160  -33.2330 C.2   273  ALA273      0.2287
    189  O          4.4270   -5.8550  -34.3290 O.2   273  ALA273     -0.2864
    190  CB         3.8440   -5.8320  -31.0000 C.3   273  ALA273      0.0319
@<TRIPOS>BOND
     1   189   188    2
     2    35    36    1
     3   182   181    2
     4   157   155    1
     5   188   187    1
     6   154   153    2
     7    36    37    1
     8    36    39    1
     9   181   180    1
    10   181   186   am
    11   178   177    2
    12   152   155    1
    13   152   153    1
    14   152   151    1
    15   155   156    1
    16   187   186    1
    17   187   190    1
    18   146   145    2
    19   153   158   am
    20    37    38    2
    21   185   183    1
    22   149   147    1
    23   180   183    1
    24   180   179    1
    25    39    40    1
    26   161   160    2
    27   173   170    1
    28   173   174    1
    29   177   179   am
    30   177   176    1
    31   145   151   am
    32   145   144    1
    33   160   159    1
    34   170   171    1
    35   170   169    1
    36   183   184    1
    37   175   176    1
    38   175   171   am
    39    22    21    2
    40   158   159    1
    41    41    40   ar
    42    41    43   ar
    43   159   162    1
    44    40    42   ar
    45   122   121    1
    46   147   144    1
    47   147   148    1
    48   171   172    2
    49   144   143    1
    50    21    20    1
    51    21    23   am
    52    43    45   ar
    53    16    17    1
    54   148   150    1
    55    42    44   ar
    56    15    14    2
    57    14    13    1
    58   162   163    1
    59    20    17    1
    60   143   141   am
    61   121   120    1
    62   142   141    2
    63   163   164    1
    64    47    48    1
    65    17    18    1
    66   141   140    1
    67    45    44   ar
    68    45    46    1
    69    13    12    1
    70   120   119    1
    71   126   125    2
    72    18    19    2
    73   119   116    1
    74   140   139    1
    75   164   165    1
    76   167   166    1
    77    48    49    1
    78    48    51    1
    79   125   124    1
    80   127   124    1
    81   127   128    1
    82   123   124    1
    83   123   117   am
    84   166   165    2
    85   166   168    1
    86   129   128    2
    87    49    50    2
    88    34    32    1
    89    51    52    1
    90   106   105    1
    91   116   117    1
    92   116   115    1
    93    33    32    1
    94   114   113    2
    95   128   130   am
    96    32    31    2
    97   105   104    1
    98   117   118    2
    99   113   115   am
   100   113   112    1
   101    31    30    1
   102    24    25    1
   103    28    25    1
   104    28    29    1
   105    52    53    1
   106    54    53    1
   107    54    55    2
   108    57    55    1
   109    30    29    1
   110   104   103    1
   111    25    26    1
   112    55    56    1
   113   112   111    1
   114    76    77    1
   115    76    75    1
   116   103   100    1
   117   134   133    2
   118   138   136    1
   119    75    74    1
   120    26    27    2
   121   111   109   am
   122   133   132    1
   123    99   100    1
   124    99    92   am
   125   136   135    1
   126   136   137    1
   127   100   101    1
   128     3     4    2
   129     3     2    1
   130     8    10   ar
   131     8     6   ar
   132    10    11   ar
   133   135   132    1
   134    94    91    1
   135    94    95    1
   136    91    92    1
   137    91    90    1
   138   101   102    2
   139   101   107   am
   140    97    96   ar
   141   109   110    2
   142   109   108    1
   143    92    93    2
   144    74    73    1
   145   132   131    1
   146   107   108    1
   147     2     5    1
   148     2     1    1
   149     5     6    1
   150     6     7   ar
   151    11     9   ar
   152    89    88    1
   153    73    70    1
   154    96    95    1
   155    96    98   ar
   156    86    88   ar
   157    86    84   ar
   158    88    87   ar
   159     7     9   ar
   160    70    69    1
   161    70    71    1
   162    84    83   ar
   163    87    85   ar
   164    72    71    2
   165    83    85   ar
   166    83    82    1
   167    68    66    1
   168    66    67    1
   169    66    65    2
   170    65    64    1
   171    82    79    1
   172    64    63    1
   173    79    78    1
   174    79    80    1
   175    63    62    1
   176    81    80    2
   177    62    59    1
   178    59    60    1
   179    59    58    1
   180    60    61    2
