@<TRIPOS>MOLECULE
tmp/5u3iA01.pdb
 88 82 0 0 0
SMALL
GASTEIGER

@<TRIPOS>ATOM
      1  N         30.9730   -7.5720  -21.3600 N.3     1  VAL1       -0.1231
      2  CA        32.3470   -7.9470  -21.6290 C.3     1  VAL1        0.1692
      3  C         33.3220   -7.0940  -20.8610 C.2     1  VAL1        0.2591
      4  O         33.6210   -5.9850  -21.2190 O.2     1  VAL1       -0.2718
      5  CB        32.6640   -7.9190  -23.1200 C.3     1  VAL1        0.0266
      6  CG1       34.1460   -8.1130  -23.3320 C.3     1  VAL1        0.0020
      7  CG2       31.8870   -9.0090  -23.8080 C.3     1  VAL1        0.0020
      8  N         33.8250   -7.6590  -19.7840 N.am    2  LEU2       -0.1980
      9  CA        34.7390   -6.9460  -18.9310 C.3     2  LEU2        0.1596
     10  C         36.1480   -6.8690  -19.4500 C.2     2  LEU2        0.2287
     11  O         36.7320   -7.8520  -19.8340 O.2     2  LEU2       -0.2864
     12  CB        34.7330   -7.5890  -17.5540 C.3     2  LEU2        0.0297
     13  CG        33.4280   -7.5040  -16.7790 C.3     2  LEU2        0.0022
     14  CD1       33.5460   -8.3090  -15.5120 C.3     2  LEU2        0.0001
     15  CD2       33.0750   -6.0740  -16.4390 C.3     2  LEU2        0.0001
     16  N         35.3610  -14.2680  -11.9100 N.3    73  VAL73      -0.1231
     17  CA        34.8020  -13.3130  -12.8680 C.3    73  VAL73       0.1692
     18  C         34.8660  -13.8620  -14.2910 C.2    73  VAL73       0.2592
     19  O         33.9260  -13.7000  -15.0840 O.2    73  VAL73      -0.2718
     20  CB        35.5290  -11.9620  -12.7510 C.3    73  VAL73       0.0266
     21  CG1       35.3360  -11.3840  -11.3520 C.3    73  VAL73       0.0020
     22  CG2       37.0100  -12.1410  -13.0580 C.3    73  VAL73       0.0020
     23  N         35.9690  -14.5190  -14.6380 N.am   74  ASP74      -0.1974
     24  CA        36.1440  -15.0260  -15.9950 C.3    74  ASP74       0.1709
     25  C         35.4230  -16.3390  -16.2360 C.2    74  ASP74       0.2293
     26  O         35.4890  -16.8660  -17.3510 O.2    74  ASP74      -0.2864
     27  CB        37.6300  -15.1990  -16.3080 C.3    74  ASP74       0.1436
     28  CG        37.8680  -15.6300  -17.7330 C.2    74  ASP74       0.3671
     29  OD1       36.8700  -15.7710  -18.4690 O.co2  74  ASP74      -0.2456
     30  OD2       39.0460  -15.8150  -18.1140 O.co2  74  ASP74      -0.2456
     31  N         32.0170  -16.9450  -14.7150 N.3    76  MET76      -0.1231
     32  CA        30.8090  -16.7650  -13.9210 C.3    76  MET76       0.1687
     33  C         29.7050  -17.7560  -14.2930 C.2    76  MET76       0.2434
     34  O         29.0210  -18.2430  -13.3810 O.2    76  MET76      -0.2733
     35  CB        30.3020  -15.3230  -14.0290 C.3    76  MET76       0.0400
     36  CG        31.2310  -14.2490  -13.4740 C.3    76  MET76       0.0596
     37  SD        30.3610  -12.6640  -13.3980 S.3    76  MET76      -0.1393
     38  CE        31.5720  -11.5390  -14.0920 C.3    76  MET76       0.0692
     39  N         29.4890  -18.0960  -15.5660 N.am   77  PRO77      -0.2729
     40  CA        28.4600  -19.1020  -15.8880 C.3    77  PRO77       0.1401
     41  C         28.5750  -20.3670  -15.0440 C.2    77  PRO77       0.2269
     42  O         27.5980  -20.8040  -14.4260 O.2    77  PRO77      -0.2865
     43  CB        28.7210  -19.4010  -17.3710 C.3    77  PRO77       0.0296
     44  CG        29.3580  -18.1450  -17.9010 C.3    77  PRO77       0.0237
     45  CD        30.1370  -17.5410  -16.7670 C.3    77  PRO77       0.0939
     46  N         18.5180   -4.7640  -12.7650 N.3    99  LYS99      -0.1245
     47  CA        19.0300   -3.4160  -12.9760 C.3    99  LYS99       0.1561
     48  C         18.7530   -2.5550  -11.7500 C.2    99  LYS99       0.2260
     49  O         19.5140   -1.6250  -11.4630 O.2    99  LYS99      -0.2867
     50  CB        18.3960   -2.7810  -14.2040 C.3    99  LYS99       0.0271
     51  CG        18.7830   -3.4550  -15.5200 C.3    99  LYS99       0.0035
     52  CD        17.9290   -2.8780  -16.6510 C.3    99  LYS99       0.0206
     53  CE        18.7830   -2.3760  -17.7980 C.3    99  LYS99       0.1093
     54  NZ        19.6440   -3.4540  -18.3500 N.3    99  LYS99      -0.1314
     55  N         29.2390   -2.4000  -15.2930 N.3   127  LYS127     -0.1245
     56  CA        29.4000   -3.5060  -16.2370 C.3   127  LYS127      0.1561
     57  C         29.4130   -4.8420  -15.5140 C.2   127  LYS127      0.2260
     58  O         28.7130   -5.7820  -15.9070 O.2   127  LYS127     -0.2867
     59  CB        30.6930   -3.3340  -17.0340 C.3   127  LYS127      0.0271
     60  CG        30.7390   -2.0700  -17.8810 C.3   127  LYS127      0.0035
     61  CD        31.9950   -2.0370  -18.7240 C.3   127  LYS127      0.0206
     62  CE        32.1520   -3.3300  -19.4990 C.3   127  LYS127      0.1093
     63  NZ        33.4610   -3.3520  -20.1880 N.3   127  LYS127     -0.1314
     64  N         26.0640   -5.7390  -14.3890 N.3   130  ALA130     -0.1231
     65  CA        25.3590   -6.1660  -15.5970 C.3   130  ALA130      0.1694
     66  C         25.7980   -7.5620  -16.0470 C.2   130  ALA130      0.2592
     67  O         24.9560   -8.4000  -16.3960 O.2   130  ALA130     -0.2718
     68  CB        25.5660   -5.1330  -16.7090 C.3   130  ALA130      0.0304
     69  N         27.1050   -7.8500  -16.0220 N.am  131  SER131     -0.1952
     70  CA        27.5580   -9.2110  -16.3120 C.3   131  SER131      0.1924
     71  C         26.9240  -10.2230  -15.3590 C.2   131  SER131      0.2314
     72  O         26.3220  -11.2120  -15.7960 O.2   131  SER131     -0.2863
     73  CB        29.0840   -9.2950  -16.2410 C.3   131  SER131      0.2116
     74  OG        29.6930   -8.5950  -17.3170 O.3   131  SER131     -0.2180
     75  N         23.1760  -10.8360  -16.2230 N.3   134  THR134     -0.1203
     76  CA        22.7760  -11.6610  -17.3680 C.3   134  THR134      0.1994
     77  C         23.0090  -13.1360  -17.0910 C.2   134  THR134      0.2617
     78  O         22.1850  -13.9830  -17.4590 O.2   134  THR134     -0.2717
     79  CB        23.5300  -11.2490  -18.6300 C.3   134  THR134      0.1784
     80  OG1       24.8570  -11.7900  -18.5970 O.3   134  THR134     -0.2211
     81  CG2       23.6190   -9.7720  -18.6990 C.3   134  THR134      0.0376
     82  N         24.1190  -13.4580  -16.4210 N.am  135  VAL135     -0.1979
     83  CA        24.3900  -14.8440  -16.0500 C.3   135  VAL135      0.1595
     84  C         23.2720  -15.3700  -15.1740 C.2   135  VAL135      0.2287
     85  O         22.7530  -16.4740  -15.3960 O.2   135  VAL135     -0.2864
     86  CB        25.7600  -14.9580  -15.3640 C.3   135  VAL135      0.0276
     87  CG1       25.9850  -16.3830  -14.8530 C.3   135  VAL135      0.0022
     88  CG2       26.8460  -14.5640  -16.3400 C.3   135  VAL135      0.0022
@<TRIPOS>BOND
     1     7     5    1
     2     6     5    1
     3     5     2    1
     4     2     1    1
     5     2     3    1
     6     4     3    2
     7     3     8   am
     8    63    62    1
     9    11    10    2
    10     8     9    1
    11    62    61    1
    12    10     9    1
    13     9    12    1
    14    61    60    1
    15    81    79    1
    16    79    80    1
    17    79    76    1
    18    29    28   ar
    19    54    53    1
    20    30    28   ar
    21    44    43    1
    22    44    45    1
    23    60    59    1
    24    53    52    1
    25    28    27    1
    26    12    13    1
    27    78    77    2
    28    43    40    1
    29    76    77    1
    30    76    75    1
    31    26    25    2
    32    74    73    1
    33    77    82   am
    34    59    56    1
    35    13    15    1
    36    13    14    1
    37    45    39    1
    38    68    65    1
    39    52    51    1
    40    82    83    1
    41    67    66    2
    42    88    86    1
    43    70    73    1
    44    70    69    1
    45    70    71    1
    46    27    24    1
    47    56    57    1
    48    56    55    1
    49    25    24    1
    50    83    86    1
    51    83    84    1
    52    66    69   am
    53    66    65    1
    54    24    23    1
    55    58    57    2
    56    40    39    1
    57    40    41    1
    58    72    71    2
    59    65    64    1
    60    39    33   am
    61    51    50    1
    62    85    84    2
    63    86    87    1
    64    19    18    2
    65    41    42    2
    66    31    32    1
    67    23    18   am
    68    33    32    1
    69    33    34    2
    70    18    17    1
    71    50    47    1
    72    38    37    1
    73    35    32    1
    74    35    36    1
    75    36    37    1
    76    22    20    1
    77    47    46    1
    78    47    48    1
    79    17    20    1
    80    17    16    1
    81    20    21    1
    82    48    49    2
