@<TRIPOS>MOLECULE
tmp/5u3tB06.pdb
 94 90 0 0 0
SMALL
GASTEIGER

@<TRIPOS>ATOM
      1  N         -0.7900   42.4610   96.4440 N.3    52  VAL52      -0.1231
      2  CA        -0.8070   41.1000   96.9760 C.3    52  VAL52       0.1692
      3  C         -1.9070   40.9380   98.0210 C.2    52  VAL52       0.2592
      4  O         -1.8590   41.5860   99.0670 O.2    52  VAL52      -0.2718
      5  CB         0.5360   40.7350   97.6250 C.3    52  VAL52       0.0266
      6  CG1        0.4800   39.3150   98.1850 C.3    52  VAL52       0.0020
      7  CG2        1.6700   40.8640   96.6200 C.3    52  VAL52       0.0020
      8  N         -2.8790   40.0690   97.7380 N.am   53  TRP53      -0.1962
      9  CA        -4.0000   39.7950   98.6490 C.3    53  TRP53       0.1771
     10  C         -3.8670   38.3750   99.2690 C.2    53  TRP53       0.2619
     11  O         -3.5170   37.4250   98.5580 O.2    53  TRP53      -0.2715
     12  CB        -5.3420   39.9390   97.8970 C.3    53  TRP53       0.0590
     13  CG        -5.5360   41.2540   97.1260 C.ar   53  TRP53       0.0006
     14  CD1       -5.0340   41.5700   95.8830 C.ar   53  TRP53       0.0946
     15  CD2       -6.3120   42.4000   97.5420 C.ar   53  TRP53       0.0152
     16  NE1       -5.4390   42.8350   95.5190 N.ar   53  TRP53      -0.2442
     17  CE2       -6.2230   43.3620   96.5150 C.ar   53  TRP53       0.0810
     18  CE3       -7.0640   42.6990   98.6880 C.ar   53  TRP53       0.0012
     19  CZ2       -6.8680   44.6050   96.5980 C.ar   53  TRP53       0.0191
     20  CZ3       -7.6990   43.9420   98.7730 C.ar   53  TRP53       0.0001
     21  CH2       -7.5920   44.8780   97.7420 C.ar   53  TRP53       0.0015
     22  N         -4.1290   38.2350  100.5810 N.am   54  LYS54      -0.1963
     23  CA        -4.0510   36.9200  101.2680 C.3    54  LYS54       0.1728
     24  C         -4.9270   35.8660  100.5680 C.2    54  LYS54       0.2616
     25  O         -4.5080   34.7080  100.3750 O.2    54  LYS54      -0.2715
     26  CB        -4.4690   37.0190  102.7580 C.3    54  LYS54       0.0311
     27  CG        -3.7720   38.1090  103.5520 C.3    54  LYS54       0.0038
     28  CD        -4.2750   38.1810  104.9910 C.3    54  LYS54       0.0206
     29  CE        -3.9990   39.5500  105.6310 C.3    54  LYS54       0.1093
     30  NZ        -4.4010   39.6110  107.0740 N.3    54  LYS54      -0.1314
     31  N         -6.1380   36.2890  100.1970 N.am   55  GLN55      -0.1977
     32  CA        -7.0770   35.4660   99.4540 C.3    55  GLN55       0.1601
     33  C         -7.0150   35.8220   97.9580 C.2    55  GLN55       0.2287
     34  O         -7.3170   36.9490   97.5700 O.2    55  GLN55      -0.2864
     35  CB        -8.4980   35.6550   99.9890 C.3    55  GLN55       0.0394
     36  CG        -9.5800   35.0140   99.1260 C.3    55  GLN55       0.0908
     37  CD        -9.4120   33.5170   98.9820 C.2    55  GLN55       0.2608
     38  OE1       -9.2890   32.8080   99.9860 O.2    55  GLN55      -0.2717
     39  NE2       -9.3870   33.0210   97.7240 N.am   55  GLN55      -0.0878
     40  N        -12.3590   33.8140   95.0000 N.3    60  LEU60      -0.1245
     41  CA       -13.6430   34.4540   95.2170 C.3    60  LEU60       0.1561
     42  C        -14.5990   34.0950   94.0790 C.2    60  LEU60       0.2260
     43  O        -14.1740   33.6380   93.0060 O.2    60  LEU60      -0.2867
     44  CB       -13.5040   35.9760   95.2930 C.3    60  LEU60       0.0270
     45  CG       -12.3860   36.5720   96.1370 C.3    60  LEU60       0.0019
     46  CD1      -12.2930   38.0880   95.9770 C.3    60  LEU60       0.0001
     47  CD2      -12.6500   36.2520   97.5280 C.3    60  LEU60       0.0001
     48  N        -14.6050   40.8400   99.3290 N.3    73  ARG73      -0.1245
     49  CA       -13.3350   41.1930   99.9940 C.3    73  ARG73       0.1563
     50  C        -13.5340   41.4590  101.5060 C.2    73  ARG73       0.2260
     51  O        -12.7030   41.0610  102.3250 O.2    73  ARG73      -0.2867
     52  CB       -12.6990   42.4290   99.3480 C.3    73  ARG73       0.0307
     53  CG       -12.0230   42.1400   97.9820 C.3    73  ARG73       0.0489
     54  CD       -10.6880   41.5160   98.2080 C.3    73  ARG73       0.2205
     55  NE        -9.9050   41.2000   96.9900 N.pl3  73  ARG73      -0.0865
     56  CZ        -9.1710   40.0900   96.8860 C.cat  73  ARG73       0.5346
     57  NH1       -9.1310   39.2210   97.8930 N.pl3  73  ARG73       0.1354
     58  NH2       -8.4650   39.8300   95.8030 N.pl3  73  ARG73       0.1354
     59  N        -11.7870   39.0900  104.5990 N.3    76  THR76      -0.1218
     60  CA       -10.9950   39.6220  105.6870 C.3    76  THR76       0.1862
     61  C        -11.6760   39.2940  107.0220 C.2    76  THR76       0.2287
     62  O        -10.9900   39.0150  107.9970 O.2    76  THR76      -0.2866
     63  CB       -10.7780   41.1420  105.5150 C.3    76  THR76       0.1770
     64  OG1      -10.1430   41.3510  104.2460 O.3    76  THR76      -0.2211
     65  CG2       -9.8730   41.7060  106.5830 C.3    76  THR76       0.0375
     66  N        -10.8150   35.6730  107.8440 N.3    79  GLU79      -0.1245
     67  CA        -9.4070   35.6320  108.2430 C.3    79  GLU79       0.1567
     68  C         -9.1980   36.1930  109.6640 C.2    79  GLU79       0.2260
     69  O         -8.3410   35.7070  110.4070 O.2    79  GLU79      -0.2867
     70  CB        -8.5420   36.4100  107.2600 C.3    79  GLU79       0.0388
     71  CG        -8.4230   35.7470  105.8840 C.3    79  GLU79       0.1160
     72  CD        -7.8540   36.6840  104.8490 C.2    79  GLU79       0.3649
     73  OE1       -7.6420   37.8730  105.1780 O.co2  79  GLU79      -0.2457
     74  OE2       -7.6330   36.2310  103.7070 O.co2  79  GLU79      -0.2457
     75  N         -6.1790   48.1700  103.4220 N.3   129  VAL129     -0.1231
     76  CA        -6.4650   46.8250  102.9340 C.3   129  VAL129      0.1692
     77  C         -5.1910   46.1510  102.3840 C.2   129  VAL129      0.2592
     78  O         -4.1260   46.7890  102.2530 O.2   129  VAL129     -0.2718
     79  CB        -7.5720   46.8180  101.8180 C.3   129  VAL129      0.0266
     80  CG1       -8.8150   47.4520  102.3260 C.3   129  VAL129      0.0020
     81  CG2       -7.0970   47.5200  100.4980 C.3   129  VAL129      0.0020
     82  N         -5.3070   44.8530  102.0980 N.am  130  ALA130     -0.1966
     83  CA        -4.1910   44.0720  101.5500 C.3   130  ALA130      0.1728
     84  C         -2.9270   44.2290  102.3980 C.2   130  ALA130      0.2616
     85  O         -1.8870   44.6490  101.9000 O.2   130  ALA130     -0.2715
     86  CB        -3.9230   44.4880  100.1260 C.3   130  ALA130      0.0334
     87  N         -3.0450   43.9190  103.6890 N.am  131  ASN131     -0.1972
     88  CA        -1.9340   44.0010  104.6150 C.3   131  ASN131      0.1688
     89  C         -1.2720   45.3750  104.6200 C.2   131  ASN131      0.2292
     90  O         -0.0470   45.4550  104.7090 O.2   131  ASN131     -0.2864
     91  CB        -0.8860   42.9270  104.2710 C.3   131  ASN131      0.1181
     92  CG         0.0660   42.6460  105.4160 C.2   131  ASN131      0.2629
     93  OD1       -0.2350   42.9170  106.5820 O.2   131  ASN131     -0.2716
     94  ND2        1.2360   42.1110  105.0840 N.am  131  ASN131     -0.0877
@<TRIPOS>BOND
     1    43    42    2
     2    42    41    1
     3    40    41    1
     4    41    44    1
     5    44    45    1
     6    16    14   ar
     7    16    17   ar
     8    58    56    1
     9    14    13   ar
    10    46    45    1
    11    45    47    1
    12     1     2    1
    13    17    19   ar
    14    17    15   ar
    15    19    21   ar
    16     7     5    1
    17    56    55    2
    18    56    57    1
    19     2     5    1
    20     2     3    1
    21    55    54    1
    22    13    15   ar
    23    13    12    1
    24    15    18   ar
    25    34    33    2
    26     5     6    1
    27    39    37   am
    28     8     3   am
    29     8     9    1
    30    21    20   ar
    31    12     9    1
    32    33    32    1
    33    53    54    1
    34    53    52    1
    35     3     4    2
    36    11    10    2
    37     9    10    1
    38    18    20   ar
    39    37    36    1
    40    37    38    2
    41    36    35    1
    42    10    22   am
    43    48    49    1
    44    52    49    1
    45    32    35    1
    46    32    31    1
    47    49    50    1
    48    86    83    1
    49    31    24   am
    50    25    24    2
    51    81    79    1
    52    24    23    1
    53    22    23    1
    54    23    26    1
    55    50    51    2
    56    83    82    1
    57    83    84    1
    58    79    80    1
    59    79    76    1
    60    85    84    2
    61    82    77   am
    62    78    77    2
    63    77    76    1
    64    84    87   am
    65    26    27    1
    66    76    75    1
    67    27    28    1
    68    87    88    1
    69    74    72   ar
    70    64    63    1
    71    91    88    1
    72    91    92    1
    73    59    60    1
    74    88    89    1
    75    89    90    2
    76    72    73   ar
    77    72    71    1
    78    28    29    1
    79    94    92   am
    80    92    93    2
    81    63    60    1
    82    63    65    1
    83    29    30    1
    84    60    61    1
    85    71    70    1
    86    61    62    2
    87    70    67    1
    88    66    67    1
    89    67    68    1
    90    68    69    2
