@<TRIPOS>MOLECULE
tmp/5u3tA03.pdb
 91 87 0 0 0
SMALL
GASTEIGER

@<TRIPOS>ATOM
      1  N        -20.9630    8.7350  135.0420 N.3    81  GLN81      -0.1245
      2  CA       -21.0160   10.0620  134.4310 C.3    81  GLN81       0.1566
      3  C        -19.7210   10.8050  134.5980 C.2    81  GLN81       0.2260
      4  O        -19.2510   11.4870  133.6610 O.2    81  GLN81      -0.2867
      5  CB       -22.0950   10.9350  135.0530 C.3    81  GLN81       0.0367
      6  CG       -23.4170   10.8810  134.4900 C.3    81  GLN81       0.0905
      7  CD       -24.1980   12.1410  134.8530 C.2    81  GLN81       0.2608
      8  OE1      -24.7150   12.8010  133.9910 O.2    81  GLN81      -0.2717
      9  NE2      -24.3130   12.4420  136.1420 N.am   81  GLN81      -0.0878
     10  N        -30.8680    6.9440  127.6970 N.3   247  MET247     -0.1230
     11  CA       -30.6850    8.1860  128.4260 C.3   247  MET247      0.1702
     12  C        -31.9320    9.0590  128.3730 C.2   247  MET247      0.2592
     13  O        -32.2110    9.7840  129.3350 O.2   247  MET247     -0.2718
     14  CB       -29.4570    8.9340  127.8930 C.3   247  MET247      0.0401
     15  CG       -28.1310    8.2690  128.2310 C.3   247  MET247      0.0596
     16  SD       -27.8440    8.0760  130.0280 S.3   247  MET247     -0.1393
     17  CE       -27.8960    9.7860  130.4810 C.3   247  MET247      0.0692
     18  N        -32.6840    9.0070  127.2770 N.am  248  GLN248     -0.1979
     19  CA       -33.9180    9.7780  127.1830 C.3   248  GLN248      0.1601
     20  C        -34.8880    9.2230  128.2360 C.2   248  GLN248      0.2287
     21  O        -35.6120    9.9800  128.8990 O.2   248  GLN248     -0.2864
     22  CB       -34.5800    9.7270  125.8040 C.3   248  GLN248      0.0394
     23  CG       -35.9110   10.4870  125.7630 C.3   248  GLN248      0.0908
     24  CD       -35.7850   11.9870  126.1170 C.2   248  GLN248      0.2608
     25  OE1      -35.2790   12.7920  125.3160 O.2   248  GLN248     -0.2717
     26  NE2      -36.2600   12.3590  127.3220 N.am  248  GLN248     -0.0878
     27  N        -33.8290   10.4620  131.7380 N.3   251  LYS251     -0.1245
     28  CA       -34.2900   11.8510  131.8690 C.3   251  LYS251      0.1561
     29  C        -35.8070   11.9290  132.1320 C.2   251  LYS251      0.2260
     30  O        -36.2610   12.7360  132.9430 O.2   251  LYS251     -0.2867
     31  CB       -33.8910   12.6530  130.6210 C.3   251  LYS251      0.0271
     32  CG       -34.2480   14.1260  130.6990 C.3   251  LYS251      0.0035
     33  CD       -33.8320   14.9340  129.4610 C.3   251  LYS251      0.0206
     34  CE       -34.3220   16.3580  129.5860 C.3   251  LYS251      0.1093
     35  NZ       -33.7020   17.2310  128.5660 N.3   251  LYS251     -0.1314
     36  N        -28.1130   15.0470  135.7550 N.3   259  LEU259     -0.1231
     37  CA       -27.4360   14.7750  134.4950 C.3   259  LEU259      0.1693
     38  C        -26.4680   15.9210  134.2220 C.2   259  LEU259      0.2592
     39  O        -26.8460   17.0750  134.2780 O.2   259  LEU259     -0.2718
     40  CB       -28.4650   14.6050  133.3670 C.3   259  LEU259      0.0284
     41  CG       -29.6180   13.5880  133.6130 C.3   259  LEU259      0.0019
     42  CD1      -30.8050   13.6570  132.6440 C.3   259  LEU259      0.0001
     43  CD2      -29.0870   12.1570  133.5990 C.3   259  LEU259      0.0001
     44  N        -25.2090   15.5750  134.0030 N.am  260  HIS260     -0.1976
     45  CA       -24.1410   16.5400  133.8250 C.3   260  HIS260      0.1656
     46  C        -24.4370   17.4350  132.6100 C.2   260  HIS260      0.2291
     47  O        -24.8570   16.9470  131.5610 O.2   260  HIS260     -0.2864
     48  CB       -22.8010   15.8090  133.6630 C.3   260  HIS260      0.0771
     49  CG       -21.6110   16.7250  133.6730 C.ar  260  HIS260      0.0820
     50  ND1      -21.3360   17.5980  132.6440 N.ar  260  HIS260     -0.2267
     51  CD2      -20.6250   16.9000  134.5870 C.ar  260  HIS260      0.1154
     52  CE1      -20.2380   18.2750  132.9280 C.ar  260  HIS260      0.1986
     53  NE2      -19.7800   17.8630  134.0950 N.ar  260  HIS260     -0.2212
     54  N        -23.0130   16.5610  129.0990 N.3   263  LEU263     -0.1231
     55  CA       -23.6690   15.4380  128.4450 C.3   263  LEU263      0.1693
     56  C        -25.0620   15.8790  127.9570 C.2   263  LEU263      0.2591
     57  O        -25.4810   15.4420  126.8990 O.2   263  LEU263     -0.2718
     58  CB       -23.7360   14.2130  129.3890 C.3   263  LEU263      0.0284
     59  CG       -22.3780   13.8120  130.0110 C.3   263  LEU263      0.0019
     60  CD1      -22.4580   12.6100  130.9560 C.3   263  LEU263      0.0001
     61  CD2      -21.3990   13.5130  128.9600 C.3   263  LEU263      0.0001
     62  N        -25.7570   16.7410  128.7110 N.am  264  GLN264     -0.1979
     63  CA       -27.0270   17.3310  128.2290 C.3   264  GLN264      0.1601
     64  C        -26.8500   17.9970  126.8440 C.2   264  GLN264      0.2287
     65  O        -27.6880   17.8260  125.9390 O.2   264  GLN264     -0.2864
     66  CB       -27.5850   18.4150  129.2030 C.3   264  GLN264      0.0394
     67  CG       -27.9660   18.0390  130.6580 C.3   264  GLN264      0.0908
     68  CD       -28.3080   19.2700  131.5510 C.2   264  GLN264      0.2608
     69  OE1      -28.5690   20.3790  131.0530 O.2   264  GLN264     -0.2717
     70  NE2      -28.3080   19.0620  132.8730 N.am  264  GLN264     -0.0878
     71  N        -26.5780   15.2900  124.1350 N.3   267  TYR267     -0.1227
     72  CA       -27.8470   14.6540  123.7470 C.3   267  TYR267      0.1736
     73  C        -28.8980   15.6440  123.2240 C.2   267  TYR267      0.2595
     74  O        -29.8900   15.2220  122.6180 O.2   267  TYR267     -0.2718
     75  CB       -28.4670   13.8820  124.9370 C.3   267  TYR267      0.0548
     76  CG       -27.5860   12.7810  125.4740 C.ar  267  TYR267     -0.0200
     77  CD1      -27.2380   11.6890  124.7040 C.ar  267  TYR267     -0.0009
     78  CD2      -27.0740   12.8540  126.7600 C.ar  267  TYR267     -0.0009
     79  CE1      -26.3910   10.7260  125.1670 C.ar  267  TYR267      0.0417
     80  CE2      -26.2350   11.8700  127.2440 C.ar  267  TYR267      0.0417
     81  CZ       -25.9080   10.8060  126.4430 C.ar  267  TYR267      0.1957
     82  OH       -25.1130    9.8170  126.8790 O.3   267  TYR267     -0.2866
     83  N        -28.6750   16.9370  123.4760 N.am  268  LYS268     -0.1980
     84  CA       -29.6040   18.0250  123.1280 C.3   268  LYS268      0.1596
     85  C        -30.4110   17.7520  121.8600 C.2   268  LYS268      0.2287
     86  O        -31.6340   17.8810  121.8410 O.2   268  LYS268     -0.2864
     87  CB       -28.8190   19.3300  122.9590 C.3   268  LYS268      0.0298
     88  CG       -29.6610   20.5890  122.9750 C.3   268  LYS268      0.0038
     89  CD       -28.8820   21.8060  122.4700 C.3   268  LYS268      0.0206
     90  CE       -28.4560   22.6990  123.6170 C.3   268  LYS268      0.1093
     91  NZ       -27.7080   23.9060  123.1520 N.3   268  LYS268     -0.1314
@<TRIPOS>BOND
     1    86    85    2
     2    85    84    1
     3    89    88    1
     4    89    90    1
     5    74    73    2
     6    87    88    1
     7    87    84    1
     8    84    83    1
     9    91    90    1
    10    73    83   am
    11    73    72    1
    12    72    71    1
    13    72    75    1
    14    77    79   ar
    15    77    76   ar
    16    75    76    1
    17    79    81   ar
    18    25    24    2
    19    76    78   ar
    20    23    22    1
    21    23    24    1
    22    22    19    1
    23    65    64    2
    24    24    26   am
    25    81    82    1
    26    81    80   ar
    27    78    80   ar
    28    64    63    1
    29    57    56    2
    30    19    18    1
    31    19    20    1
    32    18    12   am
    33    10    11    1
    34    14    15    1
    35    14    11    1
    36    56    55    1
    37    56    62   am
    38    63    62    1
    39    63    66    1
    40    15    16    1
    41    20    21    2
    42    12    11    1
    43    12    13    2
    44    55    54    1
    45    55    58    1
    46    35    34    1
    47    61    59    1
    48    66    67    1
    49    58    59    1
    50    33    34    1
    51    33    32    1
    52    59    60    1
    53    16    17    1
    54    31    32    1
    55    31    28    1
    56    67    68    1
    57    69    68    2
    58    68    70   am
    59    47    46    2
    60    27    28    1
    61    28    29    1
    62    29    30    2
    63    46    45    1
    64    50    52   ar
    65    50    49   ar
    66    42    41    1
    67    52    53   ar
    68    40    41    1
    69    40    37    1
    70    43    41    1
    71     4     3    2
    72    48    49    1
    73    48    45    1
    74    49    51   ar
    75    45    44    1
    76     8     7    2
    77    44    38   am
    78    53    51   ar
    79    38    39    2
    80    38    37    1
    81     2     3    1
    82     2     1    1
    83     2     5    1
    84     6     7    1
    85     6     5    1
    86    37    36    1
    87     7     9   am
