@<TRIPOS>MOLECULE
tmp/5u3vA03.pdb
 89 86 0 0 0
SMALL
GASTEIGER

@<TRIPOS>ATOM
      1  N         34.7380    8.2650  225.2230 N.3   151  PRO151     -0.2102
      2  CA        34.8550    8.2330  223.7490 C.3   151  PRO151      0.1504
      3  C         33.5910    7.8440  223.0130 C.2   151  PRO151      0.2575
      4  O         33.3670    8.3170  221.8930 O.2   151  PRO151     -0.2718
      5  CB        35.9610    7.2060  223.5320 C.3   151  PRO151      0.0282
      6  CG        36.8010    7.3020  224.7780 C.3   151  PRO151      0.0208
      7  CD        35.8340    7.5350  225.8900 C.3   151  PRO151      0.0893
      8  N         32.7690    6.9710  223.5940 N.am  152  LYS152     -0.1980
      9  CA        31.4990    6.5910  222.9860 C.3   152  LYS152      0.1596
     10  C         30.5160    7.7410  222.9710 C.2   152  LYS152      0.2287
     11  O         29.7260    7.8570  222.0300 O.2   152  LYS152     -0.2864
     12  CB        30.8840    5.4260  223.7330 C.3   152  LYS152      0.0298
     13  CG        31.6060    4.0790  223.5040 C.3   152  LYS152      0.0038
     14  CD        33.0550    4.0660  223.9410 C.3   152  LYS152      0.0206
     15  CE        33.6430    2.6290  223.8390 C.3   152  LYS152      0.1093
     16  NZ        35.0320    2.5390  224.3380 N.3   152  LYS152     -0.1314
     17  N         31.2760   10.9270  222.7320 N.3   154  GLU154     -0.1231
     18  CA        31.7040   11.8520  221.7000 C.3   154  GLU154      0.1699
     19  C         31.2160   11.3860  220.3380 C.2   154  GLU154      0.2592
     20  O         30.6040   12.1520  219.5810 O.2   154  GLU154     -0.2718
     21  CB        33.2290   11.9840  221.7350 C.3   154  GLU154      0.0402
     22  CG        33.7640   12.4990  223.0690 C.3   154  GLU154      0.1161
     23  CD        35.2740   12.6470  223.0990 C.2   154  GLU154      0.3649
     24  OE1       35.9650   11.6640  223.4360 O.co2 154  GLU154     -0.2457
     25  OE2       35.7700   13.7500  222.7880 O.co2 154  GLU154     -0.2457
     26  N         31.4220   10.1090  220.0270 N.am  155  PHE155     -0.1976
     27  CA        30.9690    9.6150  218.7300 C.3   155  PHE155      0.1639
     28  C         29.4630    9.7310  218.6270 C.2   155  PHE155      0.2290
     29  O         28.9170   10.0780  217.5740 O.2   155  PHE155     -0.2864
     30  CB        31.3920    8.1590  218.5420 C.3   155  PHE155      0.0560
     31  CG        30.8030    7.5270  217.3240 C.ar  155  PHE155     -0.0200
     32  CD1       31.4840    7.5700  216.1390 C.ar  155  PHE155     -0.0042
     33  CD2       29.5630    6.9140  217.3560 C.ar  155  PHE155     -0.0042
     34  CE1       30.9540    7.0210  215.0180 C.ar  155  PHE155     -0.0003
     35  CE2       29.0270    6.3560  216.2160 C.ar  155  PHE155     -0.0003
     36  CZ        29.7460    6.4000  215.0560 C.ar  155  PHE155     -0.0000
     37  N         27.9670   13.3440  217.8620 N.3   158  LYS158     -0.1245
     38  CA        28.1700   13.6010  216.4350 C.3   158  LYS158      0.1561
     39  C         27.2540   12.7310  215.5670 C.2   158  LYS158      0.2260
     40  O         26.6360   13.2100  214.6070 O.2   158  LYS158     -0.2867
     41  CB        29.6360   13.3570  216.0860 C.3   158  LYS158      0.0271
     42  CG        30.5670   14.5030  216.4580 C.3   158  LYS158      0.0035
     43  CD        31.9890   14.2400  216.0020 C.3   158  LYS158      0.0206
     44  CE        32.5940   13.0790  216.7640 C.3   158  LYS158      0.1093
     45  NZ        34.0530   12.9170  216.4990 N.3   158  LYS158     -0.1314
     46  N         37.6870    2.4260  214.0100 N.3   229  GLN229     -0.1231
     47  CA        38.7180    2.9830  214.8700 C.3   229  GLN229      0.1698
     48  C         38.2290    3.0650  216.3150 C.2   229  GLN229      0.2592
     49  O         38.9950    2.8320  217.2480 O.2   229  GLN229     -0.2718
     50  CB        39.1370    4.3680  214.3710 C.3   229  GLN229      0.0381
     51  CG        40.2730    5.0030  215.1630 C.3   229  GLN229      0.0905
     52  CD        41.5250    4.1310  215.2190 C.2   229  GLN229      0.2608
     53  OE1       42.1890    4.0360  216.2580 O.2   229  GLN229     -0.2717
     54  NE2       41.8500    3.4890  214.0980 N.am  229  GLN229     -0.0878
     55  N         36.9500    3.3560  216.5200 N.am  230  LEU230     -0.1980
     56  CA        36.4420    3.3920  217.8940 C.3   230  LEU230      0.1596
     57  C         36.5680    2.0150  218.5500 C.2   230  LEU230      0.2287
     58  O         36.9720    1.9070  219.7160 O.2   230  LEU230     -0.2864
     59  CB        34.9920    3.8810  217.9040 C.3   230  LEU230      0.0297
     60  CG        34.2570    4.0250  219.2430 C.3   230  LEU230      0.0022
     61  CD1       34.9400    5.0990  220.0220 C.3   230  LEU230      0.0001
     62  CD2       32.8070    4.3770  219.0160 C.3   230  LEU230      0.0001
     63  N         40.2750    1.0690  219.4290 N.3   233  GLU233     -0.1231
     64  CA        40.6900    1.6860  220.6710 C.3   233  GLU233      0.1699
     65  C         39.9730    1.0560  221.8570 C.2   233  GLU233      0.2592
     66  O         40.5670    0.8930  222.9310 O.2   233  GLU233     -0.2718
     67  CB        40.4520    3.1820  220.5710 C.3   233  GLU233      0.0402
     68  CG        41.4830    3.8590  219.5900 C.3   233  GLU233      0.1161
     69  CD        40.9800    5.1280  218.8740 C.2   233  GLU233      0.3649
     70  OE1       39.7710    5.2390  218.5830 O.co2 233  GLU233     -0.2457
     71  OE2       41.8120    6.0190  218.5860 O.co2 233  GLU233     -0.2457
     72  N         38.7170    0.6610  221.6740 N.am  234  HIS234     -0.1976
     73  CA        37.9910    0.0100  222.7540 C.3   234  HIS234      0.1656
     74  C         38.6310   -1.3260  223.1180 C.2   234  HIS234      0.2291
     75  O         38.7990   -1.6490  224.3020 O.2   234  HIS234     -0.2864
     76  CB        36.5230   -0.1750  222.3430 C.3   234  HIS234      0.0771
     77  CG        35.7130   -0.9560  223.3280 C.ar  234  HIS234      0.0820
     78  ND1       35.1200   -0.3680  224.4230 N.ar  234  HIS234     -0.2267
     79  CD2       35.3810   -2.2680  223.3830 C.ar  234  HIS234      0.1154
     80  CE1       34.4660   -1.2840  225.1120 C.ar  234  HIS234      0.1986
     81  NE2       34.6070   -2.4420  224.5050 N.ar  234  HIS234     -0.2212
     82  N         41.6980   -0.7920  225.1240 N.3   237  MET237     -0.1245
     83  CA        41.4270   -0.4410  226.5160 C.3   237  MET237      0.1570
     84  C         40.9910   -1.6630  227.3110 C.2   237  MET237      0.2261
     85  O         41.3630   -1.8110  228.4820 O.2   237  MET237     -0.2867
     86  CB        40.3660    0.6630  226.6020 C.3   237  MET237      0.0387
     87  CG        40.9170    2.0420  226.3180 C.3   237  MET237      0.0595
     88  SD        39.7630    3.4100  226.5440 S.3   237  MET237     -0.1393
     89  CE        38.6550    3.1750  225.1680 C.3   237  MET237      0.0692
@<TRIPOS>BOND
     1    46    47    1
     2    54    52   am
     3    50    47    1
     4    50    51    1
     5    40    39    2
     6    47    48    1
     7    34    36   ar
     8    34    32   ar
     9    36    35   ar
    10    51    52    1
    11    52    53    2
    12    39    38    1
    13    43    42    1
    14    43    44    1
    15    41    38    1
    16    41    42    1
    17    32    31   ar
    18    35    33   ar
    19    48    55   am
    20    48    49    2
    21    38    37    1
    22    45    44    1
    23    55    56    1
    24    31    33   ar
    25    31    30    1
    26    29    28    2
    27    56    59    1
    28    56    57    1
    29    59    60    1
    30    30    27    1
    31    57    58    2
    32    70    69   ar
    33    71    69   ar
    34    28    27    1
    35    27    26    1
    36    69    68    1
    37    62    60    1
    38    60    61    1
    39    63    64    1
    40    20    19    2
    41    68    67    1
    42    26    19   am
    43    19    18    1
    44    67    64    1
    45    64    65    1
    46    72    65   am
    47    72    73    1
    48    18    21    1
    49    18    17    1
    50    21    22    1
    51    65    66    2
    52     4     3    2
    53    11    10    2
    54    76    73    1
    55    76    77    1
    56    73    74    1
    57    25    23   ar
    58    10     9    1
    59     9     8    1
    60     9    12    1
    61     3     8   am
    62     3     2    1
    63    22    23    1
    64    23    24   ar
    65    74    75    2
    66    77    79   ar
    67    77    78   ar
    68    79    81   ar
    69    13    12    1
    70    13    14    1
    71     5     2    1
    72     5     6    1
    73     2     1    1
    74    15    14    1
    75    15    16    1
    76    78    80   ar
    77    81    80   ar
    78     6     7    1
    79    82    83    1
    80    89    88    1
    81     1     7    1
    82    87    88    1
    83    87    86    1
    84    83    86    1
    85    83    84    1
    86    84    85    2
