@<TRIPOS>MOLECULE
tmp/5u3yB03.pdb
 99 92 0 0 0
SMALL
GASTEIGER

@<TRIPOS>ATOM
      1  N         -0.5060   39.7030  121.1600 N.3    14  TYR14      -0.1241
      2  CA        -1.0490   40.6520  120.1950 C.3    14  TYR14       0.1605
      3  C         -0.0310   40.9680  119.1070 C.2    14  TYR14       0.2264
      4  O         -0.3690   40.9920  117.9170 O.2    14  TYR14      -0.2867
      5  CB        -1.4800   41.9210  120.9310 C.3    14  TYR14       0.0534
      6  CG        -1.9860   43.0530  120.0630 C.ar   14  TYR14      -0.0201
      7  CD1       -1.1070   43.9370  119.4540 C.ar   14  TYR14      -0.0009
      8  CD2       -3.3460   43.2600  119.8860 C.ar   14  TYR14      -0.0009
      9  CE1       -1.5690   44.9820  118.6740 C.ar   14  TYR14       0.0417
     10  CE2       -3.8170   44.2980  119.1110 C.ar   14  TYR14       0.0417
     11  CZ        -2.9250   45.1580  118.5080 C.ar   14  TYR14       0.1957
     12  OH        -3.3930   46.1960  117.7350 O.3    14  TYR14      -0.2866
     13  N         -0.8540   39.4200  115.0760 N.3    18  PHE18      -0.1241
     14  CA        -1.5100   40.3890  114.2050 C.3    18  PHE18       0.1605
     15  C         -0.4760   41.0100  113.2770 C.2    18  PHE18       0.2264
     16  O          0.5060   41.6000  113.7390 O.2    18  PHE18      -0.2867
     17  CB        -2.2320   41.4590  115.0210 C.3    18  PHE18       0.0534
     18  CG        -3.4070   40.9300  115.7880 C.ar   18  PHE18      -0.0203
     19  CD1       -4.4980   40.4010  115.1220 C.ar   18  PHE18      -0.0042
     20  CD2       -3.4190   40.9550  117.1720 C.ar   18  PHE18      -0.0042
     21  CE1       -5.5810   39.9080  115.8200 C.ar   18  PHE18      -0.0003
     22  CE2       -4.5000   40.4640  117.8760 C.ar   18  PHE18      -0.0003
     23  CZ        -5.5820   39.9400  117.1980 C.ar   18  PHE18      -0.0000
     24  N         -0.7770   43.5670  110.9980 N.3    20  MET20      -0.1230
     25  CA        -0.8220   45.0220  110.9590 C.3    20  MET20       0.1702
     26  C         -1.1330   45.5470  112.3560 C.2    20  MET20       0.2593
     27  O         -2.2160   45.2940  112.8940 O.2    20  MET20      -0.2718
     28  CB        -1.8710   45.4950  109.9520 C.3    20  MET20       0.0401
     29  CG        -2.0750   47.0070  109.8780 C.3    20  MET20       0.0596
     30  SD        -0.6470   47.9280  109.2740 S.3    20  MET20      -0.1393
     31  CE        -0.4510   47.2510  107.6260 C.3    20  MET20       0.0692
     32  N         -0.1780   46.2600  112.9440 N.am   21  THR21      -0.1953
     33  CA        -0.3870   46.9550  114.2030 C.3    21  THR21       0.1897
     34  C         -0.8340   48.3860  113.9320 C.2    21  THR21       0.2313
     35  O         -0.6390   48.9270  112.8410 O.2    21  THR21      -0.2863
     36  CB         0.8910   46.9670  115.0400 C.3    21  THR21       0.1794
     37  OG1        1.8870   47.7580  114.3790 O.3    21  THR21      -0.2208
     38  CG2        1.4200   45.5540  115.2420 C.3    21  THR21       0.0378
     39  N        -10.7540   39.5710  104.2770 N.3    68  THR68      -0.1218
     40  CA       -10.0740   40.2000  105.4020 C.3    68  THR68       0.1862
     41  C        -10.6740   39.7500  106.7290 C.2    68  THR68       0.2287
     42  O         -9.9390   39.4950  107.6890 O.2    68  THR68      -0.2866
     43  CB       -10.1270   41.7200  105.2730 C.3    68  THR68       0.1770
     44  OG1       -9.4880   42.1160  104.0490 O.3    68  THR68      -0.2211
     45  CG2       -9.4210   42.3900  106.4490 C.3    68  THR68       0.0375
     46  N         -8.7850   37.8410  109.6150 N.3    72  THR72      -0.1218
     47  CA        -8.7130   38.4090  110.9550 C.3    72  THR72       0.1862
     48  C         -9.2810   37.4490  111.9910 C.2    72  THR72       0.2287
     49  O         -8.8060   37.4260  113.1310 O.2    72  THR72      -0.2866
     50  CB        -9.4440   39.7490  111.0160 C.3    72  THR72       0.1770
     51  OG1       -9.0010   40.5910  109.9450 O.3    72  THR72      -0.2211
     52  CG2       -9.1490   40.4450  112.3400 C.3    72  THR72       0.0375
     53  N         -6.3690   35.1870  112.7950 N.3    75  GLU75      -0.1245
     54  CA        -5.4290   35.8320  113.7030 C.3    75  GLU75       0.1567
     55  C         -6.0040   35.9220  115.1110 C.2    75  GLU75       0.2260
     56  O         -5.3050   35.6430  116.0920 O.2    75  GLU75      -0.2867
     57  CB        -5.0670   37.2220  113.1850 C.3    75  GLU75       0.0388
     58  CG        -4.2740   37.2180  111.8850 C.3    75  GLU75       0.1160
     59  CD        -3.9690   38.6190  111.3880 C.2    75  GLU75       0.3649
     60  OE1       -4.8330   39.5080  111.5490 O.co2  75  GLU75      -0.2457
     61  OE2       -2.8650   38.8350  110.8460 O.co2  75  GLU75      -0.2457
     62  N        -13.1170   42.7450  115.5160 N.3   106  ILE106     -0.1245
     63  CA       -12.6970   43.1680  114.1830 C.3   106  ILE106      0.1561
     64  C        -13.0180   44.6410  113.9640 C.2   106  ILE106      0.2260
     65  O        -12.1790   45.4120  113.4840 O.2   106  ILE106     -0.2867
     66  CB       -13.3550   42.2770  113.1130 C.3   106  ILE106      0.0252
     67  CG1      -12.6820   40.9040  113.1000 C.3   106  ILE106      0.0019
     68  CG2      -13.2640   42.9190  111.7240 C.3   106  ILE106      0.0019
     69  CD1      -13.4390   39.8600  112.3300 C.3   106  ILE106      0.0001
     70  N        -10.6110   46.7430  115.9760 N.3   109  MET109     -0.1230
     71  CA        -9.2960   46.8150  115.3470 C.3   109  MET109      0.1702
     72  C         -9.3570   47.5450  114.0140 C.2   109  MET109      0.2592
     73  O         -8.3730   48.1710  113.6050 O.2   109  MET109     -0.2718
     74  CB        -8.7330   45.4100  115.1500 C.3   109  MET109      0.0401
     75  CG        -8.3860   44.7010  116.4440 C.3   109  MET109      0.0596
     76  SD        -7.6570   43.0830  116.1600 S.3   109  MET109     -0.1393
     77  CE        -9.0750   42.1920  115.5350 C.3   109  MET109      0.0692
     78  N        -10.4980   47.4710  113.3270 N.am  110  LEU110     -0.1980
     79  CA       -10.6750   48.2000  112.0760 C.3   110  LEU110      0.1596
     80  C        -10.2840   49.6650  112.2140 C.2   110  LEU110      0.2287
     81  O         -9.7540   50.2600  111.2690 O.2   110  LEU110     -0.2864
     82  CB       -12.1310   48.0750  111.6200 C.3   110  LEU110      0.0297
     83  CG       -12.5940   48.9550  110.4600 C.3   110  LEU110      0.0022
     84  CD1      -11.7350   48.7220  109.2280 C.3   110  LEU110      0.0001
     85  CD2      -14.0560   48.6730  110.1600 C.3   110  LEU110      0.0001
     86  N         -7.8800   50.9910  113.6020 N.3   112  SER112     -0.1202
     87  CA        -6.4420   51.2180  113.5070 C.3   112  SER112      0.2020
     88  C         -6.0070   51.5450  112.0830 C.2   112  SER112      0.2618
     89  O         -5.0430   52.2920  111.8880 O.2   112  SER112     -0.2717
     90  CB        -5.6970   49.9870  114.0200 C.3   112  SER112      0.2103
     91  OG        -6.0980   49.6700  115.3440 O.3   112  SER112     -0.2182
     92  N         -6.7000   51.0010  111.0820 N.am  113  ILE113     -0.1979
     93  CA        -6.3250   51.1810  109.6830 C.3   113  ILE113      0.1595
     94  C         -7.2160   52.2020  108.9790 C.2   113  ILE113      0.2287
     95  O         -7.1960   52.2910  107.7450 O.2   113  ILE113     -0.2864
     96  CB        -6.3510   49.8400  108.9360 C.3   113  ILE113      0.0276
     97  CG1       -7.7480   49.2110  109.0040 C.3   113  ILE113      0.0022
     98  CG2       -5.3170   48.8910  109.5210 C.3   113  ILE113      0.0022
     99  CD1       -7.9850   48.1250  107.9740 C.3   113  ILE113      0.0001
@<TRIPOS>BOND
     1    44    43    1
     2    39    40    1
     3    43    40    1
     4    43    45    1
     5    40    41    1
     6    41    42    2
     7    31    30    1
     8    95    94    2
     9    99    97    1
    10    96    97    1
    11    96    98    1
    12    96    93    1
    13    94    93    1
    14    84    83    1
    15    30    29    1
    16    46    47    1
    17    93    92    1
    18    29    28    1
    19    51    50    1
    20    28    25    1
    21    85    83    1
    22    83    82    1
    23    61    59   ar
    24    47    50    1
    25    47    48    1
    26    25    24    1
    27    25    26    1
    28    50    52    1
    29    92    88   am
    30    81    80    2
    31    59    60   ar
    32    59    58    1
    33    82    79    1
    34    68    66    1
    35    58    57    1
    36    89    88    2
    37    48    49    2
    38    79    80    1
    39    79    78    1
    40    88    87    1
    41    69    67    1
    42    26    27    2
    43    26    32   am
    44    53    54    1
    45    35    34    2
    46    32    33    1
    47    67    66    1
    48    66    63    1
    49    57    54    1
    50    15    16    2
    51    15    14    1
    52    78    72   am
    53    65    64    2
    54    87    86    1
    55    87    90    1
    56    73    72    2
    57    54    55    1
    58    34    33    1
    59    64    63    1
    60    72    71    1
    61    90    91    1
    62    63    62    1
    63    33    36    1
    64    14    17    1
    65    14    13    1
    66    37    36    1
    67    17    18    1
    68    36    38    1
    69    55    56    2
    70    19    18   ar
    71    19    21   ar
    72    74    71    1
    73    74    75    1
    74    71    70    1
    75    77    76    1
    76    18    20   ar
    77    21    23   ar
    78    76    75    1
    79    20    22   ar
    80    23    22   ar
    81    12    11    1
    82     4     3    2
    83    11     9   ar
    84    11    10   ar
    85     9     7   ar
    86     3     2    1
    87    10     8   ar
    88     7     6   ar
    89     8     6   ar
    90     6     5    1
    91     2     5    1
    92     2     1    1
