@<TRIPOS>MOLECULE
tmp/5u3zA01.pdb
 122 119 0 0 0
SMALL
GASTEIGER

@<TRIPOS>ATOM
      1  N         -8.9770    5.2580  140.5040 N.3    58  LYS58      -0.1231
      2  CA        -8.6030    6.4890  139.8170 C.3    58  LYS58       0.1693
      3  C         -9.5690    7.6050  140.1850 C.2    58  LYS58       0.2591
      4  O         -9.1980    8.7800  140.2250 O.2    58  LYS58      -0.2718
      5  CB        -8.5890    6.2750  138.3040 C.3    58  LYS58       0.0285
      6  CG        -7.5940    5.2290  137.8480 C.3    58  LYS58       0.0035
      7  CD        -7.5620    5.1080  136.3270 C.3    58  LYS58       0.0206
      8  CE        -6.4930    4.1220  135.8770 C.3    58  LYS58       0.1093
      9  NZ        -5.1340    4.5150  136.3620 N.3    58  LYS58      -0.1314
     10  N        -10.8130    7.2150  140.4500 N.am   59  GLN59      -0.1979
     11  CA       -11.8410    8.1440  140.8940 C.3    59  GLN59       0.1601
     12  C        -12.2270    7.8590  142.3570 C.2    59  GLN59       0.2287
     13  O        -12.7410    6.7900  142.6850 O.2    59  GLN59      -0.2864
     14  CB       -13.0620    8.0520  139.9700 C.3    59  GLN59       0.0394
     15  CG       -14.1400    9.0940  140.2430 C.3    59  GLN59       0.0908
     16  CD       -13.5750   10.5010  140.3850 C.2    59  GLN59       0.2608
     17  OE1      -13.2270   11.1520  139.3880 O.2    59  GLN59      -0.2717
     18  NE2      -13.4670   10.9760  141.6380 N.am   59  GLN59      -0.0878
     19  N        -16.0700   11.3060  145.3960 N.3    63  GLY63      -0.1210
     20  CA       -16.3360   12.0190  144.1590 C.3    63  GLY63       0.1956
     21  C        -17.5270   11.5000  143.3790 C.2    63  GLY63       0.2612
     22  O        -18.1500   12.2470  142.6300 O.2    63  GLY63      -0.2717
     23  N        -17.8430   10.2200  143.5350 N.am   64  LEU64      -0.1966
     24  CA       -19.0400    9.6680  142.9140 C.3    64  LEU64       0.1713
     25  C        -20.2870   10.3990  143.3920 C.2    64  LEU64       0.2458
     26  O        -20.3020   10.9460  144.4980 O.2    64  LEU64      -0.2730
     27  CB       -19.1860    8.1780  143.2260 C.3    64  LEU64       0.0310
     28  CG       -18.0300    7.2710  142.8110 C.3    64  LEU64       0.0022
     29  CD1      -18.3900    5.8040  143.0430 C.3    64  LEU64       0.0001
     30  CD2      -17.6610    7.4830  141.3560 C.3    64  LEU64       0.0001
     31  N        -21.3540   10.3800  142.5730 N.am   65  PRO65      -0.2727
     32  CA       -22.6310   10.9590  142.9980 C.3    65  PRO65       0.1402
     33  C        -23.0800   10.3130  144.2990 C.2    65  PRO65       0.2269
     34  O        -22.5700    9.2390  144.6240 O.2    65  PRO65      -0.2865
     35  CB       -23.5860   10.6190  141.8450 C.3    65  PRO65       0.0296
     36  CG       -22.7260   10.2470  140.7060 C.3    65  PRO65       0.0237
     37  CD       -21.4710    9.6860  141.2800 C.3    65  PRO65       0.0939
     38  N        -22.2250    3.6050  138.3650 N.3    76  TYR76      -0.1241
     39  CA       -21.3840    4.7910  138.5140 C.3    76  TYR76       0.1605
     40  C        -19.9000    4.5070  138.3000 C.2    76  TYR76       0.2264
     41  O        -19.1800    5.2690  137.6090 O.2    76  TYR76      -0.2867
     42  CB       -21.6400    5.3830  139.9320 C.3    76  TYR76       0.0534
     43  CG       -22.9790    6.0930  140.1020 C.ar   76  TYR76      -0.0201
     44  CD1      -23.7360    6.5180  139.0050 C.ar   76  TYR76      -0.0009
     45  CD2      -23.4750    6.3560  141.3680 C.ar   76  TYR76      -0.0009
     46  CE1      -24.9620    7.1950  139.1780 C.ar   76  TYR76       0.0417
     47  CE2      -24.6890    7.0030  141.5510 C.ar   76  TYR76       0.0417
     48  CZ       -25.4250    7.4230  140.4600 C.ar   76  TYR76       0.1957
     49  OH       -26.6190    8.0780  140.6310 O.3    76  TYR76      -0.2866
     50  N        -19.4780    4.1850  134.5980 N.3    79  GLN79      -0.1231
     51  CA       -19.4190    5.5180  133.9700 C.3    79  GLN79       0.1698
     52  C        -18.0710    6.1910  134.1750 C.2    79  GLN79       0.2592
     53  O        -17.5480    6.8490  133.2490 O.2    79  GLN79      -0.2718
     54  CB       -20.5130    6.4600  134.4930 C.3    79  GLN79       0.0381
     55  CG       -21.8900    6.0570  134.1900 C.3    79  GLN79       0.0905
     56  CD       -22.8600    7.1250  134.6300 C.2    79  GLN79       0.2608
     57  OE1      -22.6510    8.2860  134.3350 O.2    79  GLN79      -0.2717
     58  NE2      -23.8990    6.7420  135.3740 N.am   79  GLN79      -0.0878
     59  N        -17.5130    6.0680  135.3770 N.am   80  CYS80      -0.1970
     60  CA       -16.1540    6.5510  135.6590 C.3    80  CYS80       0.1712
     61  C        -15.1510    6.0880  134.6420 C.2    80  CYS80       0.2296
     62  O        -14.3530    6.8670  134.1190 O.2    80  CYS80      -0.2864
     63  CB       -15.6360    6.0760  136.9990 C.3    80  CYS80       0.0983
     64  SG       -16.3820    6.8960  138.3530 S.3    80  CYS80      -0.0798
     65  N        -15.8490    7.3840  130.9900 N.3    83  VAL83      -0.1231
     66  CA       -15.4160    8.7630  130.7920 C.3    83  VAL83       0.1692
     67  C        -13.8910    8.8990  130.7470 C.2    83  VAL83       0.2591
     68  O        -13.3320    9.6480  129.9210 O.2    83  VAL83      -0.2718
     69  CB       -15.9750    9.6780  131.8910 C.3    83  VAL83       0.0266
     70  CG1      -15.3140   11.0480  131.7960 C.3    83  VAL83       0.0020
     71  CG2      -17.4890    9.7950  131.7620 C.3    83  VAL83       0.0020
     72  N        -13.2060    8.1880  131.6260 N.am   84  GLU84      -0.1979
     73  CA       -11.7520    8.1900  131.6140 C.3    84  GLU84       0.1602
     74  C        -11.2270    7.6460  130.2730 C.2    84  GLU84       0.2287
     75  O        -10.2230    8.1470  129.7510 O.2    84  GLU84      -0.2864
     76  CB       -11.1940    7.3430  132.7550 C.3    84  GLU84       0.0415
     77  CG        -9.6590    7.3110  132.8230 C.3    84  GLU84       0.1163
     78  CD        -9.0150    8.6980  132.8660 C.2    84  GLU84       0.3649
     79  OE1       -9.5740    9.6090  133.5190 O.co2  84  GLU84      -0.2457
     80  OE2       -7.9440    8.8750  132.2410 O.co2  84  GLU84      -0.2457
     81  N        -11.4980   10.1840  127.5710 N.3    87  ARG87      -0.1245
     82  CA       -10.3530   11.1060  127.6530 C.3    87  ARG87       0.1563
     83  C         -9.0970   10.5120  126.9870 C.2    87  ARG87       0.2260
     84  O         -8.3730   11.1980  126.2360 O.2    87  ARG87      -0.2867
     85  CB       -10.0590   11.4700  129.1200 C.3    87  ARG87       0.0307
     86  CG       -11.1410   12.3020  129.7530 C.3    87  ARG87       0.0489
     87  CD       -10.8730   12.5780  131.2240 C.3    87  ARG87       0.2205
     88  NE        -9.5540   13.1360  131.4620 N.pl3  87  ARG87      -0.0865
     89  CZ        -9.0490   13.3290  132.6740 C.cat  87  ARG87       0.5346
     90  NH1       -9.7640   13.0070  133.7460 N.pl3  87  ARG87       0.1354
     91  NH2       -7.8340   13.8420  132.8190 N.pl3  87  ARG87       0.1354
     92  N        -27.8740    9.0700  138.2290 N.3   257  SER257     -0.1202
     93  CA       -27.2800   10.2070  137.5350 C.3   257  SER257      0.2020
     94  C        -26.4620    9.7470  136.3460 C.2   257  SER257      0.2619
     95  O        -25.8330    8.6810  136.3840 O.2   257  SER257     -0.2717
     96  CB       -26.4040   11.0190  138.4850 C.3   257  SER257      0.2103
     97  OG       -27.2030   11.5370  139.5240 O.3   257  SER257     -0.2182
     98  N        -26.4600   10.5530  135.2910 N.am  258  LEU258     -0.1965
     99  CA       -25.5970   10.2620  134.1360 C.3   258  LEU258      0.1728
    100  C        -24.5990   11.4180  133.9660 C.2   258  LEU258      0.2616
    101  O        -24.9630   12.6080  134.0370 O.2   258  LEU258     -0.2715
    102  CB       -26.4380   10.0620  132.8730 C.3   258  LEU258      0.0311
    103  CG       -25.6100    9.6030  131.6590 C.3   258  LEU258      0.0022
    104  CD1      -25.0230    8.2150  131.8770 C.3   258  LEU258      0.0001
    105  CD2      -26.4130    9.6620  130.3400 C.3   258  LEU258      0.0001
    106  N        -23.3410   11.0610  133.8000 N.am  259  HIS259     -0.1960
    107  CA       -22.2780   12.0250  133.6750 C.3   259  HIS259      0.1772
    108  C        -22.5390   12.9910  132.4990 C.2   259  HIS259      0.2462
    109  O        -22.9550   12.5580  131.4140 O.2   259  HIS259     -0.2730
    110  CB       -20.9530   11.2870  133.5100 C.3   259  HIS259      0.0785
    111  CG       -19.7610   12.1800  133.5180 C.ar  259  HIS259      0.0821
    112  ND1      -19.4660   13.0380  132.4760 N.ar  259  HIS259     -0.2267
    113  CD2      -18.7770   12.3420  134.4230 C.ar  259  HIS259      0.1154
    114  CE1      -18.3540   13.6890  132.7500 C.ar  259  HIS259      0.1986
    115  NE2      -17.9080   13.2800  133.9250 N.ar  259  HIS259     -0.2212
    116  N        -22.3190   14.2890  132.7230 N.am  260  PRO260     -0.2727
    117  CA       -22.6090   15.3050  131.7040 C.3   260  PRO260      0.1402
    118  C        -22.0170   14.9910  130.3150 C.2   260  PRO260      0.2269
    119  O        -22.6840   15.2350  129.3120 O.2   260  PRO260     -0.2865
    120  CB       -21.9800   16.5640  132.2950 C.3   260  PRO260      0.0296
    121  CG       -22.0080   16.3540  133.7400 C.3   260  PRO260      0.0237
    122  CD       -21.7580   14.9000  133.9410 C.3   260  PRO260      0.0939
@<TRIPOS>BOND
     1    84    83    2
     2    83    82    1
     3    81    82    1
     4    82    85    1
     5    85    86    1
     6   119   118    2
     7    75    74    2
     8    86    87    1
     9    68    67    2
    10    74    73    1
    11   118   117    1
    12   105   103    1
    13    67    66    1
    14    67    72   am
    15    66    65    1
    16    66    69    1
    17    87    88    1
    18   109   108    2
    19    88    89    2
    20    73    72    1
    21    73    76    1
    22   103   104    1
    23   103   102    1
    24   117   120    1
    25   117   116    1
    26    71    69    1
    27    70    69    1
    28    80    78   ar
    29   120   121    1
    30   112   114   ar
    31   112   111   ar
    32   108   116   am
    33   108   107    1
    34    89    91    1
    35    89    90    1
    36   116   122    1
    37   114   115   ar
    38    76    77    1
    39    77    78    1
    40    78    79   ar
    41   102    99    1
    42    53    52    2
    43   110   111    1
    44   110   107    1
    45   111   113   ar
    46   107   106    1
    47   121   122    1
    48   106   100   am
    49   115   113   ar
    50   100   101    2
    51   100    99    1
    52    51    52    1
    53    51    54    1
    54    51    50    1
    55    62    61    2
    56    99    98    1
    57    52    59   am
    58    55    54    1
    59    55    56    1
    60    57    56    2
    61    56    58   am
    62    61    60    1
    63    98    94   am
    64    59    60    1
    65    60    63    1
    66     8     7    1
    67     8     9    1
    68     7     6    1
    69    94    95    2
    70    94    93    1
    71    63    64    1
    72    93    92    1
    73    93    96    1
    74    41    40    2
    75     6     5    1
    76    40    39    1
    77     5     2    1
    78    38    39    1
    79    96    97    1
    80    39    42    1
    81    44    46   ar
    82    44    43   ar
    83    46    48   ar
    84    17    16    2
    85     2     3    1
    86     2     1    1
    87    42    43    1
    88    14    15    1
    89    14    11    1
    90    43    45   ar
    91     3     4    2
    92     3    10   am
    93    15    16    1
    94    16    18   am
    95    10    11    1
    96    48    49    1
    97    48    47   ar
    98    36    37    1
    99    36    35    1
   100    11    12    1
   101    37    31    1
   102    30    28    1
   103    45    47   ar
   104    35    32    1
   105    12    13    2
   106    31    32    1
   107    31    25   am
   108    22    21    2
   109    28    29    1
   110    28    27    1
   111    24    27    1
   112    24    25    1
   113    24    23    1
   114    32    33    1
   115    21    23   am
   116    21    20    1
   117    25    26    2
   118    20    19    1
   119    33    34    2
