@<TRIPOS>MOLECULE
tmp/5u3zA00.pdb
 91 88 0 0 0
SMALL
GASTEIGER

@<TRIPOS>ATOM
      1  N        -21.3620   -8.2950  147.7250 N.3    45  ILE45      -0.1245
      2  CA       -21.4710   -7.0040  148.3910 C.3    45  ILE45       0.1561
      3  C        -20.3150   -6.7880  149.3330 C.2    45  ILE45       0.2260
      4  O        -19.7080   -5.7160  149.3110 O.2    45  ILE45      -0.2867
      5  CB       -22.8030   -6.8860  149.1420 C.3    45  ILE45       0.0252
      6  CG1      -23.9220   -6.7490  148.1110 C.3    45  ILE45       0.0019
      7  CG2      -22.8220   -5.6650  150.0190 C.3    45  ILE45       0.0019
      8  CD1      -25.3020   -7.0090  148.6730 C.3    45  ILE45       0.0001
      9  N        -17.1090   -6.0840  147.4790 N.3    48  LEU48      -0.1231
     10  CA       -17.2070   -4.7660  146.8570 C.3    48  LEU48       0.1693
     11  C        -16.9170   -3.6900  147.9120 C.2    48  LEU48       0.2592
     12  O        -16.1550   -2.7640  147.6870 O.2    48  LEU48      -0.2718
     13  CB       -18.5890   -4.5560  146.2410 C.3    48  LEU48       0.0284
     14  CG       -18.8580   -3.1870  145.6430 C.3    48  LEU48       0.0019
     15  CD1      -17.9670   -2.9910  144.4060 C.3    48  LEU48       0.0001
     16  CD2      -20.3470   -3.0260  145.2900 C.3    48  LEU48       0.0001
     17  N        -17.5270   -3.8350  149.0880 N.am   49  TRP49      -0.1976
     18  CA       -17.2710   -2.8850  150.1740 C.3    49  TRP49       0.1640
     19  C        -15.7950   -2.8640  150.5740 C.2    49  TRP49       0.2290
     20  O        -15.1680   -1.8090  150.6410 O.2    49  TRP49      -0.2864
     21  CB       -18.1310   -3.2340  151.3750 C.3    49  TRP49       0.0576
     22  CG       -18.0000   -2.2400  152.5350 C.ar   49  TRP49       0.0006
     23  CD1      -18.5800   -1.0010  152.6150 C.ar   49  TRP49       0.0946
     24  CD2      -17.2580   -2.4080  153.7150 C.ar   49  TRP49       0.0152
     25  NE1      -18.2550   -0.4020  153.7980 N.ar   49  TRP49      -0.2442
     26  CE2      -17.4390   -1.2440  154.4990 C.ar   49  TRP49       0.0810
     27  CE3      -16.4680   -3.4400  154.2260 C.ar   49  TRP49       0.0012
     28  CZ2      -16.8580   -1.0830  155.7280 C.ar   49  TRP49       0.0191
     29  CZ3      -15.8810   -3.2650  155.4360 C.ar   49  TRP49       0.0001
     30  CH2      -16.0720   -2.0990  156.1820 C.ar   49  TRP49       0.0015
     31  N        -13.8130   -0.9840  148.0090 N.3    52  GLU52      -0.1245
     32  CA       -13.9780    0.4570  148.1360 C.3    52  GLU52       0.1567
     33  C        -13.2440    0.9860  149.3610 C.2    52  GLU52       0.2260
     34  O        -12.8550    2.1410  149.3910 O.2    52  GLU52      -0.2867
     35  CB       -15.4650    0.8260  148.2180 C.3    52  GLU52       0.0388
     36  CG       -16.2620    0.5400  146.9170 C.3    52  GLU52       0.1160
     37  CD       -15.9300    1.4990  145.7750 C.2    52  GLU52       0.3649
     38  OE1      -15.1220    2.4160  146.0060 O.co2  52  GLU52      -0.2457
     39  OE2      -16.4500    1.3380  144.6440 O.co2  52  GLU52      -0.2457
     40  N        -14.1040    7.6580  145.8640 N.3    61  VAL61      -0.1245
     41  CA       -15.5000    7.3140  146.1420 C.3    61  VAL61       0.1561
     42  C        -16.2910    8.5490  146.5360 C.2    61  VAL61       0.2260
     43  O        -17.4600    8.6840  146.1660 O.2    61  VAL61      -0.2867
     44  CB       -15.6090    6.2270  147.2740 C.3    61  VAL61       0.0252
     45  CG1      -16.1240    6.8100  148.5900 C.3    61  VAL61       0.0019
     46  CG2      -16.4980    5.0800  146.8490 C.3    61  VAL61       0.0019
     47  N        -17.8430   10.2200  143.5350 N.3    64  LEU64      -0.1231
     48  CA       -19.0400    9.6680  142.9140 C.3    64  LEU64       0.1678
     49  C        -20.2870   10.3990  143.3920 C.2    64  LEU64       0.2434
     50  O        -20.3020   10.9460  144.4980 O.2    64  LEU64      -0.2733
     51  CB       -19.1860    8.1780  143.2260 C.3    64  LEU64       0.0284
     52  CG       -18.0300    7.2710  142.8110 C.3    64  LEU64       0.0019
     53  CD1      -18.3900    5.8040  143.0430 C.3    64  LEU64       0.0001
     54  CD2      -17.6610    7.4830  141.3560 C.3    64  LEU64       0.0001
     55  N        -21.3540   10.3800  142.5730 N.am   65  PRO65      -0.2729
     56  CA       -22.6310   10.9590  142.9980 C.3    65  PRO65       0.1401
     57  C        -23.0800   10.3130  144.2990 C.2    65  PRO65       0.2269
     58  O        -22.5700    9.2390  144.6240 O.2    65  PRO65      -0.2865
     59  CB       -23.5860   10.6190  141.8450 C.3    65  PRO65       0.0296
     60  CG       -22.7260   10.2470  140.7060 C.3    65  PRO65       0.0237
     61  CD       -21.4710    9.6860  141.2800 C.3    65  PRO65       0.0939
     62  N        -24.6160    8.0990  147.1260 N.3    67  TYR67      -0.1241
     63  CA       -24.9000    6.6880  147.0410 C.3    67  TYR67       0.1605
     64  C        -26.3970    6.4110  146.9370 C.2    67  TYR67       0.2264
     65  O        -27.1950    7.0850  147.5740 O.2    67  TYR67      -0.2867
     66  CB       -24.3100    5.9760  148.2670 C.3    67  TYR67       0.0534
     67  CG       -24.5820    4.4860  148.3080 C.ar   67  TYR67      -0.0201
     68  CD1      -23.7230    3.5930  147.6830 C.ar   67  TYR67      -0.0009
     69  CD2      -25.6810    3.9700  149.0090 C.ar   67  TYR67      -0.0009
     70  CE1      -23.9460    2.2300  147.6990 C.ar   67  TYR67       0.0417
     71  CE2      -25.9170    2.5760  149.0410 C.ar   67  TYR67       0.0417
     72  CZ       -25.0340    1.7280  148.3810 C.ar   67  TYR67       0.1957
     73  OH       -25.2070    0.3560  148.3380 O.3    67  TYR67      -0.2866
     74  N        -26.4660   -0.8140  145.4700 N.3    70  ILE70      -0.1245
     75  CA       -25.3200   -1.5280  144.8930 C.3    70  ILE70       0.1561
     76  C        -25.2550   -1.5230  143.3420 C.2    70  ILE70       0.2260
     77  O        -24.1920   -1.3060  142.7720 O.2    70  ILE70      -0.2867
     78  CB       -25.2960   -2.9790  145.3640 C.3    70  ILE70       0.0252
     79  CG1      -25.2010   -3.0140  146.8990 C.3    70  ILE70       0.0019
     80  CG2      -24.1240   -3.7280  144.7990 C.3    70  ILE70       0.0019
     81  CD1      -24.0100   -2.2670  147.4840 C.3    70  ILE70       0.0001
     82  N        -24.3730    1.8830  142.1710 N.3    73  HIS73      -0.1241
     83  CA       -22.9850    2.1570  142.5000 C.3    73  HIS73       0.1621
     84  C        -22.0610    1.5450  141.4740 C.2    73  HIS73       0.2264
     85  O        -21.0820    2.1920  141.0220 O.2    73  HIS73      -0.2867
     86  CB       -22.6300    1.6080  143.8790 C.3    73  HIS73       0.0745
     87  CG       -21.2170    1.8750  144.2570 C.ar   73  HIS73       0.0817
     88  ND1      -20.7890    3.1050  144.7050 N.ar   73  HIS73      -0.2268
     89  CD2      -20.1070    1.1010  144.1570 C.ar   73  HIS73       0.1154
     90  CE1      -19.4820    3.0680  144.9040 C.ar   73  HIS73       0.1986
     91  NE2      -19.0490    1.8530  144.6000 N.ar   73  HIS73      -0.2212
@<TRIPOS>BOND
     1    60    61    1
     2    60    59    1
     3    85    84    2
     4    61    55    1
     5    54    52    1
     6    84    83    1
     7    59    56    1
     8    82    83    1
     9    83    86    1
    10    55    56    1
    11    55    49   am
    12    77    76    2
    13    52    53    1
    14    52    51    1
    15    48    51    1
    16    48    49    1
    17    48    47    1
    18    56    57    1
    19    76    75    1
    20    49    50    2
    21    86    87    1
    22    89    87   ar
    23    89    91   ar
    24    87    88   ar
    25    57    58    2
    26    15    14    1
    27    91    90   ar
    28    39    37   ar
    29    88    90   ar
    30    80    78    1
    31    75    78    1
    32    75    74    1
    33    16    14    1
    34    78    79    1
    35    14    13    1
    36    37    38   ar
    37    37    36    1
    38    40    41    1
    39    41    42    1
    40    41    44    1
    41    43    42    2
    42    13    10    1
    43    46    44    1
    44    10     9    1
    45    10    11    1
    46    79    81    1
    47    36    35    1
    48    64    63    1
    49    64    65    2
    50    63    62    1
    51    63    66    1
    52    44    45    1
    53    68    70   ar
    54    68    67   ar
    55    12    11    2
    56    70    72   ar
    57     1     2    1
    58    11    17   am
    59    31    32    1
    60     6     8    1
    61     6     5    1
    62    32    35    1
    63    32    33    1
    64    66    67    1
    65    67    69   ar
    66    73    72    1
    67    72    71   ar
    68     2     5    1
    69     2     3    1
    70    69    71   ar
    71    17    18    1
    72     5     7    1
    73     4     3    2
    74    33    34    2
    75    18    19    1
    76    18    21    1
    77    19    20    2
    78    21    22    1
    79    22    23   ar
    80    22    24   ar
    81    23    25   ar
    82    24    27   ar
    83    24    26   ar
    84    25    26   ar
    85    27    29   ar
    86    26    28   ar
    87    29    30   ar
    88    28    30   ar
