@<TRIPOS>MOLECULE
tmp/5u40A02.pdb
 103 100 0 0 0
SMALL
GASTEIGER

@<TRIPOS>ATOM
      1  N         22.4380   -5.9640  236.2630 N.3    50  LEU50      -0.1245
      2  CA        22.7490   -7.2270  236.9240 C.3    50  LEU50       0.1561
      3  C         24.0050   -7.1030  237.7870 C.2    50  LEU50       0.2260
      4  O         25.0130   -7.7580  237.5230 O.2    50  LEU50      -0.2867
      5  CB        22.9290   -8.3410  235.8870 C.3    50  LEU50       0.0270
      6  CG        23.9020   -8.0540  234.7380 C.3    50  LEU50       0.0019
      7  CD1       24.7350   -9.2870  234.4150 C.3    50  LEU50       0.0001
      8  CD2       23.1520   -7.5830  233.5000 C.3    50  LEU50       0.0001
      9  N         25.2250  -10.1580  239.2920 N.3    53  GLY53      -0.1210
     10  CA        25.7480  -11.0720  238.2910 C.3    53  GLY53       0.1956
     11  C         27.1350  -10.7050  237.7960 C.2    53  GLY53       0.2612
     12  O         27.7650  -11.4800  237.0770 O.2    53  GLY53      -0.2717
     13  N         27.6140   -9.5230  238.1740 N.am   54  LEU54      -0.1966
     14  CA        28.9480   -9.0820  237.7780 C.3    54  LEU54       0.1713
     15  C         30.0120   -9.8840  238.5150 C.2    54  LEU54       0.2458
     16  O         29.7190  -10.5230  239.5250 O.2    54  LEU54      -0.2730
     17  CB        29.1390   -7.5890  238.0640 C.3    54  LEU54       0.0310
     18  CG        28.2200   -6.5990  237.3450 C.3    54  LEU54       0.0022
     19  CD1       28.6230   -5.1690  237.6760 C.3    54  LEU54       0.0001
     20  CD2       28.2310   -6.8170  235.8450 C.3    54  LEU54       0.0001
     21  N         31.2580   -9.8500  238.0140 N.am   55  PRO55      -0.2727
     22  CA        32.3520  -10.4910  238.7520 C.3    55  PRO55       0.1402
     23  C         32.5570   -9.8170  240.1030 C.2    55  PRO55       0.2269
     24  O         32.0600   -8.7070  240.2980 O.2    55  PRO55      -0.2865
     25  CB        33.5690  -10.2890  237.8400 C.3    55  PRO55       0.0296
     26  CG        33.0100   -9.9610  236.4960 C.3    55  PRO55       0.0237
     27  CD        31.7240   -9.2470  236.7550 C.3    55  PRO55       0.0939
     28  N         33.4130   -2.9900  234.1130 N.3    66  TYR66      -0.1241
     29  CA        32.5270   -4.1450  234.0160 C.3    66  TYR66       0.1605
     30  C         31.1690   -3.7430  233.4430 C.2    66  TYR66       0.2264
     31  O         30.5730   -4.4910  232.6690 O.2    66  TYR66      -0.2867
     32  CB        32.3460   -4.8100  235.3890 C.3    66  TYR66       0.0534
     33  CG        33.5560   -5.5780  235.8870 C.ar   66  TYR66      -0.0201
     34  CD1       34.6010   -5.9100  235.0330 C.ar   66  TYR66      -0.0009
     35  CD2       33.6470   -5.9810  237.2140 C.ar   66  TYR66      -0.0009
     36  CE1       35.7000   -6.6120  235.4850 C.ar   66  TYR66       0.0417
     37  CE2       34.7440   -6.6860  237.6740 C.ar   66  TYR66       0.0417
     38  CZ        35.7670   -6.9980  236.8040 C.ar   66  TYR66       0.1957
     39  OH        36.8630   -7.6980  237.2500 O.3    66  TYR66      -0.2866
     40  N         31.5890   -3.5060  229.7690 N.3    69  GLN69      -0.1231
     41  CA        31.5750   -4.8190  229.1370 C.3    69  GLN69       0.1698
     42  C         30.1570   -5.3580  228.9910 C.2    69  GLN69       0.2592
     43  O         29.8290   -5.9840  227.9820 O.2    69  GLN69      -0.2718
     44  CB        32.4140   -5.8120  229.9350 C.3    69  GLN69       0.0381
     45  CG        33.9020   -5.5370  229.9150 C.3    69  GLN69       0.0905
     46  CD        34.6840   -6.6350  230.6020 C.2    69  GLN69       0.2608
     47  OE1       34.5100   -7.8140  230.2970 O.2    69  GLN69      -0.2717
     48  NE2       35.5360   -6.2580  231.5470 N.am   69  GLN69      -0.0878
     49  N         29.3300   -5.1290  230.0070 N.am   70  CYS70      -0.1970
     50  CA        27.9270   -5.5350  229.9670 C.3    70  CYS70       0.1712
     51  C         27.2390   -5.0090  228.7160 C.2    70  CYS70       0.2296
     52  O         26.5840   -5.7570  227.9920 O.2    70  CYS70      -0.2864
     53  CB        27.1790   -5.0330  231.2030 C.3    70  CYS70       0.0983
     54  SG        27.5000   -5.9590  232.7160 S.3    70  CYS70      -0.0798
     55  N         28.8730   -6.3680  225.2860 N.3    73  VAL73      -0.1245
     56  CA        28.5190   -7.7680  225.0700 C.3    73  VAL73       0.1561
     57  C         27.0500   -7.8780  224.6690 C.2    73  VAL73       0.2260
     58  O         26.6980   -8.6550  223.7840 O.2    73  VAL73      -0.2867
     59  CB        28.7950   -8.6280  226.3250 C.3    73  VAL73       0.0252
     60  CG1       28.1690  -10.0160  226.1960 C.3    73  VAL73       0.0019
     61  CG2       30.2910   -8.7520  226.5530 C.3    73  VAL73       0.0019
     62  N         25.4320   -9.1620  220.9900 N.3    77  ARG77      -0.1245
     63  CA        24.3170  -10.0970  220.8490 C.3    77  ARG77       0.1563
     64  C         23.3010   -9.5650  219.8510 C.2    77  ARG77       0.2260
     65  O         22.8580  -10.2830  218.9580 O.2    77  ARG77      -0.2867
     66  CB        23.6160  -10.3430  222.1890 C.3    77  ARG77       0.0307
     67  CG        24.4050  -11.1380  223.2160 C.3    77  ARG77       0.0489
     68  CD        23.4860  -11.5770  224.3520 C.3    77  ARG77       0.2205
     69  NE        24.2120  -12.1100  225.5070 N.pl3  77  ARG77      -0.0865
     70  CZ        24.3810  -11.4730  226.6670 C.cat  77  ARG77       0.5346
     71  NH1       23.8800  -10.2570  226.8630 N.pl3  77  ARG77       0.1354
     72  NH2       25.0570  -12.0590  227.6450 N.pl3  77  ARG77       0.1354
     73  N         38.9270   -8.7510  235.2340 N.3   247  SER247     -0.1202
     74  CA        38.5190   -9.8780  234.4080 C.3   247  SER247      0.2020
     75  C         37.8810   -9.3890  233.1140 C.2   247  SER247      0.2619
     76  O         37.4510   -8.2390  233.0140 O.2   247  SER247     -0.2717
     77  CB        37.5460  -10.7770  235.1710 C.3   247  SER247      0.2103
     78  OG        36.3990  -10.0510  235.5740 O.3   247  SER247     -0.2182
     79  N         37.8250  -10.2770  232.1280 N.am  248  LEU248     -0.1965
     80  CA        37.2610   -9.9550  230.8240 C.3   248  LEU248      0.1728
     81  C         36.2360  -11.0140  230.4410 C.2   248  LEU248      0.2616
     82  O         36.4980  -12.2090  230.5650 O.2   248  LEU248     -0.2715
     83  CB        38.3690   -9.8690  229.7730 C.3   248  LEU248      0.0311
     84  CG        38.0310   -9.1480  228.4690 C.3   248  LEU248      0.0022
     85  CD1       37.8260   -7.6610  228.7120 C.3   248  LEU248      0.0001
     86  CD2       39.1290   -9.3770  227.4420 C.3   248  LEU248      0.0001
     87  N         35.0640  -10.5700  229.9990 N.am  249  HIS249     -0.1960
     88  CA        34.0100  -11.4770  229.5600 C.3   249  HIS249      0.1772
     89  C         34.5600  -12.4420  228.5070 C.2   249  HIS249      0.2462
     90  O         35.2800  -12.0140  227.6070 O.2   249  HIS249     -0.2730
     91  CB        32.8300  -10.6840  228.9950 C.3   249  HIS249      0.0785
     92  CG        31.5940  -11.5010  228.7790 C.ar  249  HIS249      0.0821
     93  ND1       31.4760  -12.4200  227.7590 N.ar  249  HIS249     -0.2267
     94  CD2       30.4150  -11.5270  229.4440 C.ar  249  HIS249      0.1154
     95  CE1       30.2820  -12.9820  227.8090 C.ar  249  HIS249      0.1986
     96  NE2       29.6180  -12.4570  228.8240 N.ar  249  HIS249     -0.2212
     97  N         34.2370  -13.7460  228.6220 N.am  250  PRO250     -0.2727
     98  CA        34.7790  -14.7480  227.6930 C.3   250  PRO250      0.1402
     99  C         34.6020  -14.3950  226.2160 C.2   250  PRO250      0.2269
    100  O         35.5000  -14.6510  225.4190 O.2   250  PRO250     -0.2865
    101  CB        33.9830  -16.0080  228.0400 C.3   250  PRO250      0.0296
    102  CG        33.6330  -15.8420  229.4620 C.3   250  PRO250      0.0237
    103  CD        33.3960  -14.3730  229.6590 C.3   250  PRO250      0.0939
@<TRIPOS>BOND
     1    65    64    2
     2    64    63    1
     3    63    62    1
     4    63    66    1
     5    66    67    1
     6    67    68    1
     7    58    57    2
     8    68    69    1
     9    57    56    1
    10    56    55    1
    11    56    59    1
    12   100    99    2
    13    69    70    2
    14    60    59    1
    15    99    98    1
    16    59    61    1
    17    70    71    1
    18    70    72    1
    19    86    84    1
    20    90    89    2
    21    98   101    1
    22    98    97    1
    23    93    95   ar
    24    93    92   ar
    25    95    96   ar
    26    43    42    2
    27    52    51    2
    28   101   102    1
    29    84    85    1
    30    84    83    1
    31    89    97   am
    32    89    88    1
    33    97   103    1
    34    51    50    1
    35    92    91    1
    36    92    94   ar
    37    96    94   ar
    38    42    41    1
    39    42    49   am
    40    91    88    1
    41    41    40    1
    42    41    44    1
    43   102   103    1
    44    88    87    1
    45    83    80    1
    46    45    44    1
    47    45    46    1
    48    50    49    1
    49    50    53    1
    50    87    81   am
    51    47    46    2
    52    81    82    2
    53    81    80    1
    54    46    48   am
    55    80    79    1
    56    53    54    1
    57    79    75   am
    58    31    30    2
    59    76    75    2
    60    75    74    1
    61    30    29    1
    62     8     6    1
    63    29    28    1
    64    29    32    1
    65    74    77    1
    66    74    73    1
    67     7     6    1
    68     6     5    1
    69    34    36   ar
    70    34    33   ar
    71    77    78    1
    72    32    33    1
    73    36    38   ar
    74    20    18    1
    75     5     2    1
    76    33    35   ar
    77     1     2    1
    78    26    27    1
    79    26    25    1
    80    27    21    1
    81    38    39    1
    82    38    37   ar
    83     2     3    1
    84    12    11    2
    85    35    37   ar
    86    18    19    1
    87    18    17    1
    88     4     3    2
    89    14    17    1
    90    14    13    1
    91    14    15    1
    92    11    13   am
    93    11    10    1
    94    25    22    1
    95    21    15   am
    96    21    22    1
    97    10     9    1
    98    15    16    2
    99    22    23    1
   100    23    24    2
