@<TRIPOS>MOLECULE
tmp/5u48B00.pdb
 77 70 0 0 0
SMALL
GASTEIGER

@<TRIPOS>ATOM
      1  N        -23.6450   11.1850    0.7020 N.3     4  MET4       -0.1245
      2  CA       -22.3890   10.4520    0.8050 C.3     4  MET4        0.1570
      3  C        -21.9220   10.1370   -0.6100 C.2     4  MET4        0.2261
      4  O        -22.7470    9.9570   -1.5070 O.2     4  MET4       -0.2867
      5  CB       -22.5720    9.1510    1.5970 C.3     4  MET4        0.0387
      6  CG       -21.2670    8.4280    1.9450 C.3     4  MET4        0.0595
      7  SD       -20.7390    7.1570    0.7750 S.3     4  MET4       -0.1393
      8  CE       -21.7780    5.7680    1.2460 C.3     4  MET4        0.0692
      9  N        -19.2860    7.5520   -2.8370 N.3     6  LYS6       -0.1245
     10  CA       -18.5170    6.3160   -2.7660 C.3     6  LYS6        0.1561
     11  C        -17.8600    6.0630   -4.1150 C.2     6  LYS6        0.2260
     12  O        -18.5360    6.1030   -5.1400 O.2     6  LYS6       -0.2867
     13  CB       -19.4170    5.1370   -2.3970 C.3     6  LYS6        0.0271
     14  CG       -18.6480    3.8200   -2.2870 C.3     6  LYS6        0.0035
     15  CD       -19.3840    2.8430   -1.3770 C.3     6  LYS6        0.0206
     16  CE       -18.4510    1.7840   -0.8180 C.3     6  LYS6        0.1093
     17  NZ       -19.0520    1.1620    0.4040 N.3     6  LYS6       -0.1314
     18  N        -15.1500    3.5770   -6.4250 N.3     8  LEU8       -0.1245
     19  CA       -14.5700    2.2320   -6.5280 C.3     8  LEU8        0.1561
     20  C        -13.6840    2.1690   -7.7540 C.2     8  LEU8        0.2260
     21  O        -13.9020    2.9030   -8.7260 O.2     8  LEU8       -0.2867
     22  CB       -15.6670    1.1680   -6.6290 C.3     8  LEU8        0.0270
     23  CG       -16.6180    1.1170   -5.4390 C.3     8  LEU8        0.0019
     24  CD1      -17.7210    0.1360   -5.7440 C.3     8  LEU8        0.0001
     25  CD2      -15.8780    0.6970   -4.1770 C.3     8  LEU8        0.0001
     26  N        -26.8050    8.5160   -1.7430 N.3    97  THR97      -0.1218
     27  CA       -25.4630    8.0100   -1.9720 C.3    97  THR97       0.1862
     28  C        -25.1870    8.0790   -3.4600 C.2    97  THR97       0.2287
     29  O        -25.9100    7.5020   -4.2630 O.2    97  THR97      -0.2866
     30  CB       -25.2800    6.5670   -1.4680 C.3    97  THR97       0.1770
     31  OG1      -25.4000    6.5560   -0.0380 O.3    97  THR97      -0.2211
     32  CG2      -23.9020    6.0230   -1.8530 C.3    97  THR97       0.0375
     33  N        -22.6230    6.8940   -6.0670 N.3    99  ALA99      -0.1231
     34  CA       -21.5230    5.9590   -6.2730 C.3    99  ALA99       0.1694
     35  C        -20.9510    6.0570   -7.6830 C.2    99  ALA99       0.2592
     36  O        -21.6730    6.3050   -8.6440 O.2    99  ALA99      -0.2718
     37  CB       -21.9800    4.5250   -5.9780 C.3    99  ALA99       0.0304
     38  N        -19.6480    5.8470   -7.7890 N.am  100  ALA100     -0.1966
     39  CA       -18.9650    5.8600   -9.0740 C.3   100  ALA100      0.1728
     40  C        -17.9670    4.7150   -9.1370 C.2   100  ALA100      0.2616
     41  O        -17.2300    4.4730   -8.1810 O.2   100  ALA100     -0.2715
     42  CB       -18.2600    7.1900   -9.2920 C.3   100  ALA100      0.0334
     43  N        -17.9570    4.0080  -10.2660 N.am  101  LEU101     -0.1977
     44  CA       -17.0710    2.8850  -10.5080 C.3   101  LEU101      0.1596
     45  C        -16.1580    3.2680  -11.6610 C.2   101  LEU101      0.2287
     46  O        -16.6270    3.4900  -12.7850 O.2   101  LEU101     -0.2864
     47  CB       -17.9200    1.6560  -10.8670 C.3   101  LEU101      0.0297
     48  CG       -17.1330    0.3900  -11.2280 C.3   101  LEU101      0.0022
     49  CD1      -16.2720   -0.0960  -10.0620 C.3   101  LEU101      0.0001
     50  CD2      -18.0960   -0.7180  -11.6880 C.3   101  LEU101      0.0001
     51  N        -18.9570    4.3180  -14.5230 N.3   108  SER108     -0.1202
     52  CA       -20.3880    4.2660  -14.3300 C.3   108  SER108      0.2020
     53  C        -20.7260    4.9210  -13.0040 C.2   108  SER108      0.2619
     54  O        -19.8930    5.0310  -12.0960 O.2   108  SER108     -0.2717
     55  CB       -20.9100    2.8380  -14.4030 C.3   108  SER108      0.2103
     56  OG       -20.4200    2.0860  -13.3220 O.3   108  SER108     -0.2182
     57  N        -21.9400    5.4410  -12.9210 N.am  109  THR109     -0.1938
     58  CA       -22.3630    6.0850  -11.6890 C.3   109  THR109      0.2028
     59  C        -23.8150    5.7440  -11.4270 C.2   109  THR109      0.2642
     60  O        -24.6020    5.5850  -12.3530 O.2   109  THR109     -0.2714
     61  CB       -22.1320    7.6210  -11.7460 C.3   109  THR109      0.1808
     62  OG1      -22.4680    8.2140  -10.4860 O.3   109  THR109     -0.2208
     63  CG2      -22.9810    8.2640  -12.8380 C.3   109  THR109      0.0379
     64  N        -24.1590    5.5980  -10.1580 N.am  110  THR110     -0.1950
     65  CA       -25.5400    5.3780   -9.8030 C.3   110  THR110      0.1897
     66  C        -25.8800    6.1670   -8.5480 C.2   110  THR110      0.2313
     67  O        -24.9960    6.6220   -7.8390 O.2   110  THR110     -0.2863
     68  CB       -25.8550    3.8780   -9.6300 C.3   110  THR110      0.1794
     69  OG1      -27.2740    3.7090   -9.6140 O.3   110  THR110     -0.2208
     70  CG2      -25.2340    3.3170   -8.3520 C.3   110  THR110      0.0378
     71  N        -28.1440    5.8870   -5.0080 N.3   112  VAL112     -0.1245
     72  CA       -28.9530    5.0770   -4.1060 C.3   112  VAL112      0.1561
     73  C        -29.6510    6.0440   -3.1510 C.2   112  VAL112      0.2260
     74  O        -29.0040    6.6820   -2.3110 O.2   112  VAL112     -0.2867
     75  CB       -28.1040    4.0720   -3.3230 C.3   112  VAL112      0.0252
     76  CG1      -29.0150    3.0540   -2.6040 C.3   112  VAL112      0.0019
     77  CG2      -27.1290    3.3590   -4.2460 C.3   112  VAL112      0.0019
@<TRIPOS>BOND
     1    51    52    1
     2    55    52    1
     3    55    56    1
     4    52    53    1
     5    53    57   am
     6    53    54    2
     7    57    58    1
     8    63    61    1
     9    46    45    2
    10    60    59    2
    11    61    58    1
    12    61    62    1
    13    58    59    1
    14    50    48    1
    15    45    44    1
    16    59    64   am
    17    48    47    1
    18    48    49    1
    19    47    44    1
    20    44    43    1
    21    43    40   am
    22    64    65    1
    23    65    68    1
    24    65    66    1
    25    68    69    1
    26    68    70    1
    27    42    39    1
    28    40    39    1
    29    40    41    2
    30    39    38    1
    31    21    20    2
    32    36    35    2
    33    66    67    2
    34    38    35   am
    35    20    19    1
    36    35    34    1
    37    22    19    1
    38    22    23    1
    39    19    18    1
    40    34    33    1
    41    34    37    1
    42    24    23    1
    43    23    25    1
    44    12    11    2
    45    71    72    1
    46    29    28    2
    47    77    75    1
    48    11    10    1
    49    72    75    1
    50    72    73    1
    51    28    27    1
    52    75    76    1
    53    73    74    2
    54     9    10    1
    55    10    13    1
    56    13    14    1
    57    14    15    1
    58    27    26    1
    59    27    30    1
    60    32    30    1
    61     4     3    2
    62    30    31    1
    63    15    16    1
    64    16    17    1
    65     3     2    1
    66     1     2    1
    67     7     8    1
    68     7     6    1
    69     2     5    1
    70     5     6    1
