@<TRIPOS>MOLECULE
tmp/5u49A00.pdb
 69 63 0 0 0
SMALL
GASTEIGER

@<TRIPOS>ATOM
      1  N         46.2150   79.2700   34.7280 N.3     6  LYS6       -0.1245
      2  CA        47.2080   79.2640   35.8010 C.3     6  LYS6        0.1561
      3  C         47.9050   77.9020   35.9090 C.2     6  LYS6        0.2260
      4  O         47.2580   76.8590   35.8380 O.2     6  LYS6       -0.2867
      5  CB        46.5680   79.6330   37.1470 C.3     6  LYS6        0.0271
      6  CG        47.6160   79.8820   38.2520 C.3     6  LYS6        0.0035
      7  CD        47.0140   80.5110   39.5030 C.3     6  LYS6        0.0206
      8  CE        48.1260   81.0250   40.4270 C.3     6  LYS6        0.1093
      9  NZ        47.6520   82.1790   41.2480 N.3     6  LYS6       -0.1314
     10  N         50.6090   75.6390   38.2480 N.3     8  LEU8       -0.1245
     11  CA        51.3670   75.4560   39.4760 C.3     8  LEU8        0.1561
     12  C         52.2650   74.2360   39.3670 C.2     8  LEU8        0.2260
     13  O         52.0740   73.3660   38.5300 O.2     8  LEU8       -0.2867
     14  CB        50.4350   75.3140   40.6900 C.3     8  LEU8        0.0270
     15  CG        49.4250   76.4320   40.9820 C.3     8  LEU8        0.0019
     16  CD1       48.8060   76.2420   42.3650 C.3     8  LEU8        0.0001
     17  CD2       50.0740   77.7960   40.8810 C.3     8  LEU8        0.0001
     18  N         38.6050   80.1390   34.3710 N.3    97  THR97      -0.1218
     19  CA        39.9960   79.9260   34.7540 C.3    97  THR97       0.1862
     20  C         40.2960   78.4540   34.5940 C.2    97  THR97       0.2287
     21  O         39.6420   77.6190   35.1970 O.2    97  THR97      -0.2866
     22  CB        40.3030   80.3560   36.2100 C.3    97  THR97       0.1770
     23  OG1       40.0000   81.7440   36.3790 O.3    97  THR97      -0.2211
     24  CG2       41.7950   80.1310   36.5460 C.3    97  THR97       0.0375
     25  N         42.9810   75.8490   35.5740 N.3    99  ALA99      -0.1231
     26  CA        44.1280   75.6420   36.4440 C.3    99  ALA99       0.1694
     27  C         44.6750   74.2480   36.2250 C.2    99  ALA99       0.2592
     28  O         43.9090   73.3060   35.9810 O.2    99  ALA99      -0.2718
     29  CB        43.7370   75.8380   37.9020 C.3    99  ALA99       0.0304
     30  N         46.0000   74.1290   36.2870 N.am  100  ALA100     -0.1966
     31  CA        46.6820   72.8430   36.2550 C.3   100  ALA100      0.1728
     32  C         47.8000   72.7460   37.3000 C.2   100  ALA100      0.2616
     33  O         48.6600   73.6230   37.3780 O.2   100  ALA100     -0.2715
     34  CB        47.2620   72.5920   34.8630 C.3   100  ALA100      0.0334
     35  N         47.7990   71.6580   38.0640 N.am  101  LEU101     -0.1977
     36  CA        48.8600   71.3440   39.0210 C.3   101  LEU101      0.1596
     37  C         49.6860   70.2050   38.4680 C.2   101  LEU101      0.2287
     38  O         49.1340   69.1560   38.1550 O.2   101  LEU101     -0.2864
     39  CB        48.2800   70.9630   40.3770 C.3   101  LEU101      0.0297
     40  CG        49.1860   70.6070   41.5500 C.3   101  LEU101      0.0022
     41  CD1       50.0470   71.8180   41.9900 C.3   101  LEU101      0.0001
     42  CD2       48.3370   70.1020   42.7210 C.3   101  LEU101      0.0001
     43  N         46.8870   67.4690   37.4830 N.3   108  SER108     -0.1202
     44  CA        45.5090   67.6540   37.8430 C.3   108  SER108      0.2020
     45  C         45.0420   68.9460   37.1980 C.2   108  SER108      0.2619
     46  O         45.8060   69.8970   37.0790 O.2   108  SER108     -0.2717
     47  CB        45.3670   67.6760   39.3650 C.3   108  SER108      0.2103
     48  OG        44.0070   67.8360   39.7460 O.3   108  SER108     -0.2182
     49  N         43.8000   68.9760   36.7540 N.am  109  THR109     -0.1938
     50  CA        43.2680   70.1760   36.1690 C.3   109  THR109      0.2028
     51  C         41.8790   70.4310   36.7100 C.2   109  THR109      0.2642
     52  O         41.1330   69.5040   37.0060 O.2   109  THR109     -0.2714
     53  CB        43.2200   70.0710   34.6340 C.3   109  THR109      0.1808
     54  OG1       42.8690   71.3430   34.0850 O.3   109  THR109     -0.2208
     55  CG2       42.1930   69.0520   34.1950 C.3   109  THR109      0.0379
     56  N         41.5330   71.6930   36.8660 N.am  110  THR110     -0.1950
     57  CA        40.1770   72.0390   37.2100 C.3   110  THR110      0.1897
     58  C         39.7730   73.3300   36.4980 C.2   110  THR110      0.2313
     59  O         40.6140   74.0920   36.0210 O.2   110  THR110     -0.2863
     60  CB        40.0050   72.2070   38.7340 C.3   110  THR110      0.1794
     61  OG1       38.6080   72.1990   39.0610 O.3   110  THR110     -0.2208
     62  CG2       40.6440   73.5090   39.2200 C.3   110  THR110      0.0378
     63  N         37.4920   76.9220   37.0030 N.3   112  VAL112     -0.1245
     64  CA        36.6440   77.8010   37.8050 C.3   112  VAL112      0.1561
     65  C         35.7890   78.6400   36.8540 C.2   112  VAL112      0.2260
     66  O         36.3090   79.4420   36.0800 O.2   112  VAL112     -0.2867
     67  CB        37.4590   78.7250   38.7270 C.3   112  VAL112      0.0252
     68  CG1       36.5180   79.4430   39.6970 C.3   112  VAL112      0.0019
     69  CG2       38.5090   77.9260   39.4930 C.3   112  VAL112      0.0019
@<TRIPOS>BOND
     1    54    53    1
     2    55    53    1
     3    18    19    1
     4    20    19    1
     5    20    21    2
     6    53    50    1
     7     1     2    1
     8    19    22    1
     9    34    31    1
    10    25    26    1
    11     2     3    1
    12     2     5    1
    13     4     3    2
    14    28    27    2
    15    59    58    2
    16    66    65    2
    17    50    51    1
    18    50    49    1
    19    22    23    1
    20    22    24    1
    21    27    30   am
    22    27    26    1
    23    31    30    1
    24    31    32    1
    25    26    29    1
    26    58    57    1
    27    51    56   am
    28    51    52    2
    29    49    45   am
    30    65    64    1
    31    56    57    1
    32    63    64    1
    33    46    45    2
    34     5     6    1
    35    45    44    1
    36    57    60    1
    37    32    33    2
    38    32    35   am
    39    43    44    1
    40    64    67    1
    41    44    47    1
    42    35    36    1
    43    38    37    2
    44    10    11    1
    45     6     7    1
    46    37    36    1
    47    13    12    2
    48    67    69    1
    49    67    68    1
    50    60    61    1
    51    60    62    1
    52    36    39    1
    53    47    48    1
    54    12    11    1
    55    11    14    1
    56     7     8    1
    57    39    40    1
    58     8     9    1
    59    14    15    1
    60    17    15    1
    61    15    16    1
    62    40    41    1
    63    40    42    1
