@<TRIPOS>MOLECULE
tmp/5u4bB00.pdb
 86 78 0 0 0
SMALL
GASTEIGER

@<TRIPOS>ATOM
      1  N        -23.5560   11.2380    0.6320 N.3     4  MET4       -0.1245
      2  CA       -22.3210   10.4700    0.7540 C.3     4  MET4        0.1570
      3  C        -21.8330   10.1260   -0.6470 C.2     4  MET4        0.2261
      4  O        -22.6490    9.9350   -1.5570 O.2     4  MET4       -0.2867
      5  CB       -22.5580    9.1690    1.5430 C.3     4  MET4        0.0387
      6  CG       -21.2700    8.4360    1.9440 C.3     4  MET4        0.0595
      7  SD       -20.6960    7.1810    0.7690 S.3     4  MET4       -0.1393
      8  CE       -21.7170    5.7750    1.2210 C.3     4  MET4        0.0692
      9  N        -19.1840    7.4840   -2.8130 N.3     6  LYS6       -0.1245
     10  CA       -18.3860    6.2700   -2.7520 C.3     6  LYS6        0.1561
     11  C        -17.7330    6.0410   -4.1050 C.2     6  LYS6        0.2260
     12  O        -18.4040    6.1480   -5.1440 O.2     6  LYS6       -0.2867
     13  CB       -19.2620    5.0690   -2.3820 C.3     6  LYS6        0.0271
     14  CG       -18.4590    3.7910   -2.1860 C.3     6  LYS6        0.0035
     15  CD       -19.2960    2.7030   -1.5350 C.3     6  LYS6        0.0206
     16  CE       -18.4760    1.4350   -1.3320 C.3     6  LYS6        0.1093
     17  NZ       -17.3380    1.6160   -0.3920 N.3     6  LYS6       -0.1314
     18  N        -15.0850    3.5010   -6.4220 N.3     8  LEU8       -0.1245
     19  CA       -14.4650    2.1820   -6.5570 C.3     8  LEU8        0.1561
     20  C        -13.5650    2.1250   -7.7810 C.2     8  LEU8        0.2260
     21  O        -13.7840    2.8340   -8.7650 O.2     8  LEU8       -0.2867
     22  CB       -15.5270    1.0810   -6.6620 C.3     8  LEU8        0.0270
     23  CG       -16.4680    0.9050   -5.4700 C.3     8  LEU8        0.0019
     24  CD1      -17.5220   -0.1440   -5.7700 C.3     8  LEU8        0.0001
     25  CD2      -15.6880    0.5550   -4.2180 C.3     8  LEU8        0.0001
     26  N        -14.8790    6.0350    0.6750 N.3    45  GLU45      -0.1245
     27  CA       -16.0680    6.8090    1.0040 C.3    45  GLU45       0.1567
     28  C        -15.7430    8.2110    1.5030 C.2    45  GLU45       0.2260
     29  O        -14.6730    8.4590    2.0700 O.2    45  GLU45      -0.2867
     30  CB       -16.9130    6.0600    2.0430 C.3    45  GLU45       0.0388
     31  CG       -17.4750    4.7440    1.5150 C.3    45  GLU45       0.1160
     32  CD       -18.1990    3.9230    2.5690 C.2    45  GLU45       0.3649
     33  OE1      -18.4300    4.4370    3.6830 O.co2  45  GLU45      -0.2457
     34  OE2      -18.5400    2.7560    2.2750 O.co2  45  GLU45      -0.2457
     35  N        -26.7170    8.5820   -1.8050 N.3    97  THR97      -0.1218
     36  CA       -25.3830    8.0540   -2.0200 C.3    97  THR97       0.1862
     37  C        -25.0760    8.1270   -3.5050 C.2    97  THR97       0.2287
     38  O        -25.8020    7.5690   -4.3310 O.2    97  THR97      -0.2866
     39  CB       -25.2520    6.6000   -1.5410 C.3    97  THR97       0.1770
     40  OG1      -25.4210    6.5620   -0.1180 O.3    97  THR97      -0.2211
     41  CG2      -23.8840    6.0280   -1.8990 C.3    97  THR97       0.0375
     42  N        -22.5060    6.8930   -6.0990 N.3    99  ALA99      -0.1231
     43  CA       -21.4300    5.9260   -6.2660 C.3    99  ALA99       0.1694
     44  C        -20.8450    6.0090   -7.6710 C.2    99  ALA99       0.2592
     45  O        -21.5820    6.2220   -8.6420 O.2    99  ALA99      -0.2718
     46  CB       -21.9360    4.5080   -5.9950 C.3    99  ALA99       0.0304
     47  N        -19.5320    5.8400   -7.7750 N.am  100  ALA100     -0.1966
     48  CA       -18.8450    5.8580   -9.0670 C.3   100  ALA100      0.1728
     49  C        -17.8650    4.7160   -9.1280 C.2   100  ALA100      0.2616
     50  O        -17.1250    4.4750   -8.1770 O.2   100  ALA100     -0.2715
     51  CB       -18.1190    7.1750   -9.2800 C.3   100  ALA100      0.0334
     52  N        -17.8710    4.0220  -10.2620 N.am  101  LEU101     -0.1977
     53  CA       -16.9920    2.9070  -10.5470 C.3   101  LEU101      0.1596
     54  C        -16.0660    3.3400  -11.6770 C.2   101  LEU101      0.2287
     55  O        -16.5360    3.6770  -12.7700 O.2   101  LEU101     -0.2864
     56  CB       -17.8250    1.6900  -10.9660 C.3   101  LEU101      0.0297
     57  CG       -17.0280    0.4520  -11.3560 C.3   101  LEU101      0.0022
     58  CD1      -16.2370   -0.0520  -10.1490 C.3   101  LEU101      0.0001
     59  CD2      -17.9900   -0.6100  -11.8740 C.3   101  LEU101      0.0001
     60  N        -18.8530    4.5720  -14.4900 N.3   108  SER108     -0.1202
     61  CA       -20.2750    4.4830  -14.3120 C.3   108  SER108      0.2020
     62  C        -20.5980    5.2280  -13.0400 C.2   108  SER108      0.2619
     63  O        -19.7340    5.4560  -12.1840 O.2   108  SER108     -0.2717
     64  CB       -20.7180    3.0300  -14.2250 C.3   108  SER108      0.2103
     65  OG       -20.2290    2.4380  -13.0430 O.3   108  SER108     -0.2182
     66  N        -21.8480    5.6370  -12.9330 N.am  109  THR109     -0.1938
     67  CA       -22.3050    6.2490  -11.7030 C.3   109  THR109      0.2028
     68  C        -23.7660    5.9320  -11.4630 C.2   109  THR109      0.2642
     69  O        -24.5610    5.8360  -12.4040 O.2   109  THR109     -0.2714
     70  CB       -22.0420    7.7560  -11.6930 C.3   109  THR109      0.1808
     71  OG1      -22.3550    8.2910  -10.4060 O.3   109  THR109     -0.2208
     72  CG2      -22.8630    8.4700  -12.7630 C.3   109  THR109      0.0379
     73  N        -24.1030    5.7270  -10.1970 N.am  110  THR110     -0.1950
     74  CA       -25.4930    5.5010   -9.8340 C.3   110  THR110      0.1897
     75  C        -25.8020    6.2640   -8.5560 C.2   110  THR110      0.2313
     76  O        -24.9070    6.6770   -7.8260 O.2   110  THR110     -0.2863
     77  CB       -25.8620    3.9740   -9.7140 C.3   110  THR110      0.1794
     78  OG1      -27.2870    3.8140   -9.7270 O.3   110  THR110     -0.2208
     79  CG2      -25.2830    3.3460   -8.4530 C.3   110  THR110      0.0378
     80  N        -28.1120    5.9860   -5.0950 N.3   112  VAL112     -0.1245
     81  CA       -28.9250    5.1720   -4.2010 C.3   112  VAL112      0.1561
     82  C        -29.5900    6.1450   -3.2400 C.2   112  VAL112      0.2260
     83  O        -28.9180    6.7780   -2.4160 O.2   112  VAL112     -0.2867
     84  CB       -28.0780    4.1500   -3.4220 C.3   112  VAL112      0.0252
     85  CG1      -28.9860    3.1590   -2.6740 C.3   112  VAL112      0.0019
     86  CG2      -27.1050    3.4120   -4.3590 C.3   112  VAL112      0.0019
@<TRIPOS>BOND
     1    60    61    1
     2    61    64    1
     3    61    62    1
     4    64    65    1
     5    62    66   am
     6    62    63    2
     7    66    67    1
     8    55    54    2
     9    72    70    1
    10    69    68    2
    11    59    57    1
    12    67    70    1
    13    67    68    1
    14    70    71    1
    15    54    53    1
    16    68    73   am
    17    57    56    1
    18    57    58    1
    19    56    53    1
    20    53    52    1
    21    52    49   am
    22    73    74    1
    23    74    77    1
    24    74    75    1
    25    78    77    1
    26    77    79    1
    27    51    48    1
    28    49    48    1
    29    49    50    2
    30    48    47    1
    31    21    20    2
    32    45    44    2
    33    75    76    2
    34    20    19    1
    35    47    44   am
    36    44    43    1
    37    22    19    1
    38    22    23    1
    39    19    18    1
    40    43    42    1
    41    43    46    1
    42    24    23    1
    43    23    25    1
    44    12    11    2
    45    80    81    1
    46    86    84    1
    47    38    37    2
    48    81    84    1
    49    81    82    1
    50    11    10    1
    51    37    36    1
    52    84    85    1
    53    82    83    2
    54     9    10    1
    55    10    13    1
    56    13    14    1
    57    14    15    1
    58    36    35    1
    59    36    39    1
    60    41    39    1
    61     4     3    2
    62    39    40    1
    63    15    16    1
    64    16    17    1
    65     3     2    1
    66     1     2    1
    67    26    27    1
    68     2     5    1
    69     7     8    1
    70     7     6    1
    71    27    28    1
    72    27    30    1
    73    28    29    2
    74    31    30    1
    75    31    32    1
    76     5     6    1
    77    34    32   ar
    78    32    33   ar
