@<TRIPOS>MOLECULE
tmp/5u4eB00.pdb
 77 70 0 0 0
SMALL
GASTEIGER

@<TRIPOS>ATOM
      1  N         45.0950   11.4280   -0.6620 N.3     4  MET4       -0.1245
      2  CA        43.8690   10.6550   -0.7820 C.3     4  MET4        0.1570
      3  C         43.3900   10.3320    0.6290 C.2     4  MET4        0.2261
      4  O         44.2060   10.1210    1.5340 O.2     4  MET4       -0.2867
      5  CB        44.1230    9.3420   -1.5490 C.3     4  MET4        0.0387
      6  CG        42.8570    8.6290   -2.0000 C.3     4  MET4        0.0595
      7  SD        42.2540    7.3830   -0.8380 S.3     4  MET4       -0.1393
      8  CE        43.2480    5.9450   -1.2840 C.3     4  MET4        0.0692
      9  N         40.7750    7.7300    2.7990 N.3     6  LYS6       -0.1245
     10  CA        40.0040    6.5020    2.7090 C.3     6  LYS6        0.1561
     11  C         39.3480    6.1900    4.0530 C.2     6  LYS6        0.2260
     12  O         40.0120    6.2480    5.0990 O.2     6  LYS6       -0.2867
     13  CB        40.8940    5.3330    2.2720 C.3     6  LYS6        0.0271
     14  CG        40.1090    4.0560    1.9980 C.3     6  LYS6        0.0035
     15  CD        40.8920    3.1200    1.0770 C.3     6  LYS6        0.0206
     16  CE        40.0580    1.9170    0.6800 C.3     6  LYS6        0.1093
     17  NZ        40.6310    1.2710   -0.5390 N.3     6  LYS6       -0.1314
     18  N         36.6820    3.5660    6.3160 N.3     8  LEU8       -0.1245
     19  CA        36.0580    2.2400    6.4290 C.3     8  LEU8        0.1561
     20  C         35.1790    2.1710    7.6600 C.2     8  LEU8        0.2260
     21  O         35.4140    2.8870    8.6350 O.2     8  LEU8       -0.2867
     22  CB        37.1210    1.1330    6.5080 C.3     8  LEU8        0.0270
     23  CG        38.1120    1.0620    5.3500 C.3     8  LEU8        0.0019
     24  CD1       39.0990    0.0070    5.6480 C.3     8  LEU8        0.0001
     25  CD2       37.3960    0.7430    4.0490 C.3     8  LEU8        0.0001
     26  N         48.2410    8.7430    1.7680 N.3    97  THR97      -0.1218
     27  CA        46.9020    8.2410    1.9960 C.3    97  THR97       0.1862
     28  C         46.6220    8.2900    3.4770 C.2    97  THR97       0.2287
     29  O         47.3360    7.6850    4.2850 O.2    97  THR97      -0.2866
     30  CB        46.7280    6.8060    1.4800 C.3    97  THR97       0.1770
     31  OG1       46.9160    6.8090    0.0570 O.3    97  THR97      -0.2211
     32  CG2       45.3390    6.2690    1.8000 C.3    97  THR97       0.0375
     33  N         44.0860    7.0760    6.0520 N.3    99  ALA99      -0.1231
     34  CA        43.0010    6.1180    6.1990 C.3    99  ALA99       0.1694
     35  C         42.4130    6.1600    7.6020 C.2    99  ALA99       0.2592
     36  O         43.1390    6.4060    8.5660 O.2    99  ALA99      -0.2718
     37  CB        43.4910    4.7050    5.8930 C.3    99  ALA99       0.0304
     38  N         41.1150    5.9060    7.7150 N.am  100  ALA100     -0.1966
     39  CA        40.4380    5.8700    9.0070 C.3   100  ALA100      0.1728
     40  C         39.4390    4.7450    9.0500 C.2   100  ALA100      0.2616
     41  O         38.7000    4.5150    8.0900 O.2   100  ALA100     -0.2715
     42  CB        39.7360    7.1860    9.2820 C.3   100  ALA100      0.0334
     43  N         39.4360    4.0380   10.1780 N.am  101  LEU101     -0.1977
     44  CA        38.5390    2.9330   10.4570 C.3   101  LEU101      0.1596
     45  C         37.6230    3.3610   11.5950 C.2   101  LEU101      0.2287
     46  O         38.1010    3.6660   12.6950 O.2   101  LEU101     -0.2864
     47  CB        39.3450    1.6870   10.8580 C.3   101  LEU101      0.0297
     48  CG        38.5190    0.4520   11.2160 C.3   101  LEU101      0.0022
     49  CD1       37.6670   -0.0230   10.0270 C.3   101  LEU101      0.0001
     50  CD2       39.4330   -0.6950   11.6830 C.3   101  LEU101      0.0001
     51  N         40.3870    4.6440   14.4360 N.3   108  SER108     -0.1202
     52  CA        41.8180    4.4820   14.2760 C.3   108  SER108      0.2020
     53  C         42.2130    5.0780   12.9410 C.2   108  SER108      0.2619
     54  O         41.4540    5.0240   11.9710 O.2   108  SER108     -0.2717
     55  CB        42.2000    3.0100   14.3370 C.3   108  SER108      0.2103
     56  OG        41.5090    2.2910   13.3390 O.3   108  SER108     -0.2182
     57  N         43.3800    5.6950   12.8990 N.am  109  THR109     -0.1938
     58  CA        43.8260    6.2990   11.6610 C.3   109  THR109      0.2028
     59  C         45.2900    5.9770   11.4160 C.2   109  THR109      0.2642
     60  O         46.0920    5.9220   12.3510 O.2   109  THR109     -0.2714
     61  CB        43.5940    7.8240   11.6640 C.3   109  THR109      0.1808
     62  OG1       43.9410    8.3690   10.3810 O.3   109  THR109     -0.2208
     63  CG2       44.4360    8.4980   12.7270 C.3   109  THR109      0.0379
     64  N         45.6380    5.7530   10.1560 N.am  110  THR110     -0.1950
     65  CA        47.0150    5.5000    9.7840 C.3   110  THR110      0.1897
     66  C         47.3460    6.2900    8.5240 C.2   110  THR110      0.2313
     67  O         46.4510    6.7570    7.8170 O.2   110  THR110     -0.2863
     68  CB        47.3190    3.9680    9.6160 C.3   110  THR110      0.1794
     69  OG1       48.7370    3.7670    9.5810 O.3   110  THR110     -0.2208
     70  CG2       46.6740    3.3890    8.3530 C.3   110  THR110      0.0378
     71  N         49.6350    6.0300    4.9920 N.3   112  VAL112     -0.1245
     72  CA        50.4320    5.2170    4.0880 C.3   112  VAL112      0.1561
     73  C         51.0950    6.2100    3.1390 C.2   112  VAL112      0.2260
     74  O         50.4190    6.8610    2.3320 O.2   112  VAL112     -0.2867
     75  CB        49.5720    4.1990    3.3150 C.3   112  VAL112      0.0252
     76  CG1       50.4650    3.2510    2.5050 C.3   112  VAL112      0.0019
     77  CG2       48.6730    3.4050    4.2740 C.3   112  VAL112      0.0019
@<TRIPOS>BOND
     1     6     5    1
     2     6     7    1
     3     5     2    1
     4     8     7    1
     5     2     1    1
     6     2     3    1
     7    17    16    1
     8    31    30    1
     9     3     4    2
    10    16    15    1
    11    15    14    1
    12    30    32    1
    13    30    27    1
    14    26    27    1
    15    27    28    1
    16    14    13    1
    17    13    10    1
    18    74    73    2
    19    76    75    1
    20    10     9    1
    21    10    11    1
    22    73    72    1
    23    75    72    1
    24    75    77    1
    25    28    29    2
    26    25    23    1
    27    11    12    2
    28    72    71    1
    29    23    24    1
    30    23    22    1
    31    37    34    1
    32    33    34    1
    33    34    35    1
    34    18    19    1
    35    19    22    1
    36    19    20    1
    37    35    38   am
    38    35    36    2
    39    20    21    2
    40    38    39    1
    41    67    66    2
    42    41    40    2
    43    70    68    1
    44    66    65    1
    45    39    40    1
    46    39    42    1
    47    40    43   am
    48    69    68    1
    49    68    65    1
    50    65    64    1
    51    49    48    1
    52    64    59   am
    53    43    44    1
    54    62    61    1
    55    44    47    1
    56    44    45    1
    57    47    48    1
    58    48    50    1
    59    59    58    1
    60    59    60    2
    61    45    46    2
    62    58    61    1
    63    58    57    1
    64    61    63    1
    65    54    53    2
    66    57    53   am
    67    53    52    1
    68    56    55    1
    69    52    55    1
    70    52    51    1
