@<TRIPOS>MOLECULE
tmp/5u4gB00.pdb
 77 70 0 0 0
SMALL
GASTEIGER

@<TRIPOS>ATOM
      1  N        -23.7920   11.1450    0.6780 N.3     4  MET4       -0.1245
      2  CA       -22.5520   10.3860    0.7770 C.3     4  MET4        0.1570
      3  C        -22.0250   10.1160   -0.6340 C.2     4  MET4        0.2261
      4  O        -22.8120    9.9550   -1.5690 O.2     4  MET4       -0.2867
      5  CB       -22.7780    9.0600    1.5130 C.3     4  MET4        0.0387
      6  CG       -21.4990    8.4000    2.0260 C.3     4  MET4        0.0595
      7  SD       -20.7640    7.1020    0.9860 S.3     4  MET4       -0.1393
      8  CE       -21.8980    5.7160    1.2400 C.3     4  MET4        0.0692
      9  N        -19.3690    7.5630   -2.8110 N.3     6  LYS6       -0.1245
     10  CA       -18.5550    6.3670   -2.7430 C.3     6  LYS6        0.1561
     11  C        -17.9020    6.1300   -4.0850 C.2     6  LYS6        0.2260
     12  O        -18.5720    6.2060   -5.1090 O.2     6  LYS6       -0.2867
     13  CB       -19.3990    5.1530   -2.3390 C.3     6  LYS6        0.0271
     14  CG       -18.5840    3.8700   -2.1930 C.3     6  LYS6        0.0035
     15  CD       -19.3020    2.8410   -1.3270 C.3     6  LYS6        0.0206
     16  CE       -18.4980    1.5390   -1.2000 C.3     6  LYS6        0.1093
     17  NZ       -17.5960    1.4890    0.0050 N.3     6  LYS6       -0.1314
     18  N        -15.2330    3.5990   -6.3610 N.3     8  LEU8       -0.1245
     19  CA       -14.5590    2.3140   -6.4850 C.3     8  LEU8        0.1561
     20  C        -13.6470    2.2880   -7.7020 C.2     8  LEU8        0.2260
     21  O        -13.8640    3.0060   -8.6700 O.2     8  LEU8       -0.2867
     22  CB       -15.5840    1.1700   -6.5790 C.3     8  LEU8        0.0270
     23  CG       -16.5230    1.1630   -5.3660 C.3     8  LEU8        0.0019
     24  CD1      -17.7330    0.2960   -5.6240 C.3     8  LEU8        0.0001
     25  CD2      -15.7600    0.6940   -4.1350 C.3     8  LEU8        0.0001
     26  N        -26.7930    8.4280   -1.7890 N.3    97  THR97      -0.1218
     27  CA       -25.4540    7.9570   -2.0160 C.3    97  THR97       0.1862
     28  C        -25.1920    8.0590   -3.5090 C.2    97  THR97       0.2287
     29  O        -25.9560    7.5410   -4.3460 O.2    97  THR97      -0.2866
     30  CB       -25.2360    6.5230   -1.5300 C.3    97  THR97       0.1770
     31  OG1      -25.4420    6.4780   -0.1100 O.3    97  THR97      -0.2211
     32  CG2      -23.8100    6.0760   -1.8340 C.3    97  THR97       0.0375
     33  N        -22.6190    6.8710   -6.0800 N.3    99  ALA99      -0.1231
     34  CA       -21.5220    5.9310   -6.2360 C.3    99  ALA99       0.1694
     35  C        -20.9580    6.0200   -7.6520 C.2    99  ALA99       0.2592
     36  O        -21.6960    6.2590   -8.6000 O.2    99  ALA99      -0.2718
     37  CB       -21.9740    4.4910   -5.9250 C.3    99  ALA99       0.0304
     38  N        -19.6470    5.8730   -7.7630 N.am  100  ALA100     -0.1966
     39  CA       -18.9650    5.9000   -9.0480 C.3   100  ALA100      0.1728
     40  C        -17.9680    4.7750   -9.1030 C.2   100  ALA100      0.2616
     41  O        -17.2120    4.5530   -8.1640 O.2   100  ALA100     -0.2715
     42  CB       -18.2660    7.2460   -9.2830 C.3   100  ALA100      0.0334
     43  N        -17.9640    4.0700  -10.2240 N.am  101  LEU101     -0.1977
     44  CA       -17.0530    2.9800  -10.4600 C.3   101  LEU101      0.1596
     45  C        -16.1060    3.3960  -11.5800 C.2   101  LEU101      0.2287
     46  O        -16.5570    3.6290  -12.6990 O.2   101  LEU101     -0.2864
     47  CB       -17.8390    1.7230  -10.8380 C.3   101  LEU101      0.0297
     48  CG       -17.0590    0.5000  -11.3120 C.3   101  LEU101      0.0022
     49  CD1      -16.1390   -0.0600  -10.2210 C.3   101  LEU101      0.0001
     50  CD2      -18.0560   -0.5670  -11.7980 C.3   101  LEU101      0.0001
     51  N        -18.9140    4.5390  -14.4640 N.3   108  SER108     -0.1202
     52  CA       -20.3450    4.4380  -14.3060 C.3   108  SER108      0.2020
     53  C        -20.7180    4.9890  -12.9430 C.2   108  SER108      0.2619
     54  O        -19.9070    5.0220  -12.0200 O.2   108  SER108     -0.2717
     55  CB       -20.8070    3.0020  -14.4590 C.3   108  SER108      0.2103
     56  OG       -20.3820    2.2620  -13.3480 O.3   108  SER108     -0.2182
     57  N        -21.9260    5.5180  -12.8570 N.am  109  THR109     -0.1938
     58  CA       -22.3690    6.1050  -11.6170 C.3   109  THR109      0.2028
     59  C        -23.8160    5.7450  -11.3860 C.2   109  THR109      0.2642
     60  O        -24.6030    5.5610  -12.3250 O.2   109  THR109     -0.2714
     61  CB       -22.1870    7.6480  -11.6050 C.3   109  THR109      0.1808
     62  OG1      -22.5910    8.1660  -10.3300 O.3   109  THR109     -0.2208
     63  CG2      -23.0310    8.2990  -12.6770 C.3   109  THR109      0.0379
     64  N        -24.1690    5.6000  -10.1280 N.am  110  THR110     -0.1950
     65  CA       -25.5500    5.3130   -9.8000 C.3   110  THR110      0.1897
     66  C        -25.8770    6.0800   -8.5420 C.2   110  THR110      0.2313
     67  O        -24.9840    6.5100   -7.8260 O.2   110  THR110     -0.2863
     68  CB       -25.8060    3.7860   -9.6050 C.3   110  THR110      0.1794
     69  OG1      -27.2150    3.5400   -9.5410 O.3   110  THR110     -0.2208
     70  CG2      -25.1810    3.2730   -8.3290 C.3   110  THR110      0.0378
     71  N        -28.1110    5.8340   -5.0040 N.3   112  VAL112     -0.1245
     72  CA       -28.9220    5.0080   -4.1050 C.3   112  VAL112      0.1561
     73  C        -29.6190    5.9870   -3.1660 C.2   112  VAL112      0.2260
     74  O        -28.9630    6.6780   -2.3760 O.2   112  VAL112     -0.2867
     75  CB       -28.0960    3.9970   -3.3050 C.3   112  VAL112      0.0252
     76  CG1      -29.0250    3.0510   -2.5000 C.3   112  VAL112      0.0019
     77  CG2      -27.1870    3.1910   -4.2390 C.3   112  VAL112      0.0019
@<TRIPOS>BOND
     1    51    52    1
     2    55    52    1
     3    55    56    1
     4    52    53    1
     5    53    57   am
     6    53    54    2
     7    57    58    1
     8    46    45    2
     9    63    61    1
    10    60    59    2
    11    50    48    1
    12    58    61    1
    13    58    59    1
    14    61    62    1
    15    45    44    1
    16    59    64   am
    17    48    47    1
    18    48    49    1
    19    47    44    1
    20    44    43    1
    21    43    40   am
    22    64    65    1
    23    65    68    1
    24    65    66    1
    25    68    69    1
    26    68    70    1
    27    42    39    1
    28    40    39    1
    29    40    41    2
    30    39    38    1
    31    21    20    2
    32    36    35    2
    33    66    67    2
    34    38    35   am
    35    20    19    1
    36    35    34    1
    37    22    19    1
    38    22    23    1
    39    19    18    1
    40    34    33    1
    41    34    37    1
    42    24    23    1
    43    23    25    1
    44    12    11    2
    45    71    72    1
    46    29    28    2
    47    77    75    1
    48    72    75    1
    49    72    73    1
    50    11    10    1
    51    28    27    1
    52    75    76    1
    53    73    74    2
    54     9    10    1
    55    10    13    1
    56    13    14    1
    57    14    15    1
    58    27    26    1
    59    27    30    1
    60    32    30    1
    61     4     3    2
    62    30    31    1
    63    15    16    1
    64    16    17    1
    65     3     2    1
    66     1     2    1
    67     2     5    1
    68     7     8    1
    69     7     6    1
    70     5     6    1
