@<TRIPOS>MOLECULE
tmp/5u4hA00.pdb
 99 94 0 0 0
SMALL
GASTEIGER

@<TRIPOS>ATOM
      1  N         21.3260   22.0450   29.5480 N.3    91  LYS91      -0.1231
      2  CA        20.7240   22.2830   28.2350 C.3    91  LYS91       0.1693
      3  C         19.2130   21.9330   28.2870 C.2    91  LYS91       0.2593
      4  O         18.4270   22.3930   27.4610 O.2    91  LYS91      -0.2718
      5  CB        21.4390   21.4700   27.1680 C.3    91  LYS91       0.0285
      6  CG        21.0140   20.0250   27.1720 C.3    91  LYS91       0.0035
      7  CD        21.5450   19.2670   25.9890 C.3    91  LYS91       0.0206
      8  CE        20.8040   17.9560   25.8530 C.3    91  LYS91       0.1093
      9  NZ        21.1400   17.3080   24.5660 N.3    91  LYS91      -0.1314
     10  N         18.8280   21.1020   29.2640 N.am   92  THR92      -0.1939
     11  CA        17.4210   20.7420   29.4970 C.3    92  THR92       0.2028
     12  C         16.6550   21.9700   30.0270 C.2    92  THR92       0.2642
     13  O         15.5150   22.1900   29.6360 O.2    92  THR92      -0.2714
     14  CB        17.2750   19.5400   30.4840 C.3    92  THR92       0.1808
     15  OG1       17.9000   18.3760   29.9220 O.3    92  THR92      -0.2208
     16  CG2       15.8120   19.2380   30.8110 C.3    92  THR92       0.0379
     17  N         17.2630   22.7480   30.9320 N.am   93  MET93      -0.1962
     18  CA        16.6080   23.9920   31.4520 C.3    93  MET93       0.1736
     19  C         17.6130   24.9940   32.0430 C.2    93  MET93       0.2616
     20  O         18.4790   24.6390   32.8650 O.2    93  MET93      -0.2715
     21  CB        15.4460   23.7130   32.4190 C.3    93  MET93       0.0427
     22  CG        15.8670   23.4160   33.8230 C.3    93  MET93       0.0599
     23  SD        14.5960   22.8390   34.9570 S.3    93  MET93      -0.1393
     24  CE        15.7290   22.6160   36.2830 C.3    93  MET93       0.0692
     25  N         17.4590   26.2560   31.6510 N.am   94  ARG94      -0.1963
     26  CA        18.2830   27.3560   32.1550 C.3    94  ARG94       0.1729
     27  C         18.3240   27.4180   33.6550 C.2    94  ARG94       0.2616
     28  O         19.3670   27.7300   34.2250 O.2    94  ARG94      -0.2715
     29  CB        17.7160   28.7160   31.6370 C.3    94  ARG94       0.0348
     30  CG        18.4260   29.9890   32.1410 C.3    94  ARG94       0.0492
     31  CD        17.5780   31.2270   31.8750 C.3    94  ARG94       0.2205
     32  NE        18.1790   32.5090   32.2910 N.pl3  94  ARG94      -0.0865
     33  CZ        18.9810   33.2530   31.5340 C.cat  94  ARG94       0.5346
     34  NH1       19.3520   32.8420   30.3150 N.pl3  94  ARG94       0.1354
     35  NH2       19.4230   34.4170   32.0020 N.pl3  94  ARG94       0.1354
     36  N         17.1840   27.1350   34.2960 N.am   95  ALA95      -0.1977
     37  CA        17.0720   27.2550   35.7490 C.3    95  ALA95       0.1597
     38  C         18.0230   26.3620   36.5120 C.2    95  ALA95       0.2287
     39  O         18.2030   26.5540   37.7110 O.2    95  ALA95      -0.2864
     40  CB        15.6370   27.0270   36.1880 C.3    95  ALA95       0.0319
     41  N         20.5150   28.5730   24.3110 N.3   117  GLY117     -0.1210
     42  CA        19.2960   29.3270   24.0330 C.3   117  GLY117      0.1956
     43  C         18.0600   28.8740   24.7950 C.2   117  GLY117      0.2612
     44  O         17.9650   27.7380   25.2600 O.2   117  GLY117     -0.2717
     45  N         17.1220   29.8060   24.9290 N.am  118  CYS118     -0.1956
     46  CA        15.7900   29.5880   25.5020 C.3   118  CYS118      0.1843
     47  C         14.8150   29.7720   24.3480 C.2   118  CYS118      0.2625
     48  O         14.9240   30.7640   23.6140 O.2   118  CYS118     -0.2714
     49  CB        15.5580   30.6290   26.5580 C.3   118  CYS118      0.0997
     50  SG        13.8930   30.7460   27.2150 S.3   118  CYS118     -0.0797
     51  N         13.8560   28.8530   24.1860 N.am  119  ALA119     -0.1963
     52  CA        12.9800   28.9240   23.0130 C.3   119  ALA119      0.1728
     53  C         12.2650   30.2570   22.8670 C.2   119  ALA119      0.2616
     54  O         12.1090   30.7650   21.7640 O.2   119  ALA119     -0.2715
     55  CB        11.9800   27.7770   23.0080 C.3   119  ALA119      0.0334
     56  N         11.8330   30.8170   23.9840 N.am  120  ILE120     -0.1977
     57  CA        11.0720   32.0740   23.9670 C.3   120  ILE120      0.1596
     58  C         11.9250   33.3440   23.9920 C.2   120  ILE120      0.2287
     59  O         11.3830   34.4530   24.0210 O.2   120  ILE120     -0.2864
     60  CB         9.9630   32.1180   25.0420 C.3   120  ILE120      0.0276
     61  CG1       10.5350   31.9570   26.4500 C.3   120  ILE120      0.0022
     62  CG2        8.8840   31.0710   24.7260 C.3   120  ILE120      0.0022
     63  CD1        9.5510   32.3050   27.5370 C.3   120  ILE120      0.0001
     64  N         15.5170   34.4280   25.6500 N.3   122  SER122     -0.1217
     65  CA        15.9560   34.9920   26.9240 C.3   122  SER122      0.1889
     66  C         17.2710   35.7570   26.8580 C.2   122  SER122      0.2288
     67  O         18.0740   35.5640   25.9410 O.2   122  SER122     -0.2866
     68  CB        16.1140   33.8620   27.9390 C.3   122  SER122      0.2089
     69  OG        16.6100   34.3540   29.1670 O.3   122  SER122     -0.2183
     70  N         10.3990   38.9490   27.1290 N.3   331  PHE331     -0.1241
     71  CA        11.0350   37.9690   26.2540 C.3   331  PHE331      0.1605
     72  C         10.9920   38.4630   24.8260 C.2   331  PHE331      0.2264
     73  O         10.1040   39.2340   24.4530 O.2   331  PHE331     -0.2867
     74  CB        10.3480   36.6100   26.3870 C.3   331  PHE331      0.0534
     75  CG        10.6880   35.9020   27.6570 C.ar  331  PHE331     -0.0203
     76  CD1       11.8510   35.1370   27.7370 C.ar  331  PHE331     -0.0042
     77  CD2        9.8610   35.9700   28.7590 C.ar  331  PHE331     -0.0042
     78  CE1       12.1970   34.4800   28.8950 C.ar  331  PHE331     -0.0003
     79  CE2       10.2190   35.3180   29.9250 C.ar  331  PHE331     -0.0003
     80  CZ        11.3770   34.5740   29.9900 C.ar  331  PHE331     -0.0000
     81  N          6.2790   25.8810   23.3830 N.3   372  ASP372     -0.1239
     82  CA         6.8530   26.2320   24.6750 C.3   372  ASP372      0.1674
     83  C          5.7600   26.0140   25.7190 C.2   372  ASP372      0.2266
     84  O          4.5980   25.7520   25.3730 O.2   372  ASP372     -0.2867
     85  CB         7.3700   27.6820   24.6490 C.3   372  ASP372      0.1410
     86  CG         6.2840   28.6810   24.3440 C.2   372  ASP372      0.3668
     87  OD1        5.5980   29.0550   25.3260 O.co2 372  ASP372     -0.2456
     88  OD2        6.1320   29.1010   23.1620 O.co2 372  ASP372     -0.2456
     89  N          6.1750   20.7060   31.6790 N.3   400  ARG400     -0.1245
     90  CA         7.1640   21.4750   32.4010 C.3   400  ARG400      0.1563
     91  C          6.5650   22.3180   33.5170 C.2   400  ARG400      0.2260
     92  O          7.2570   22.5790   34.4970 O.2   400  ARG400     -0.2867
     93  CB         7.9380   22.3950   31.4520 C.3   400  ARG400      0.0307
     94  CG         8.7570   21.6400   30.4180 C.3   400  ARG400      0.0489
     95  CD         9.6680   22.5580   29.6410 C.3   400  ARG400      0.2205
     96  NE        10.6690   23.1400   30.5170 N.pl3 400  ARG400     -0.0865
     97  CZ        11.5790   24.0360   30.1360 C.cat 400  ARG400      0.5346
     98  NH1       11.6540   24.4670   28.8770 N.pl3 400  ARG400      0.1354
     99  NH2       12.4320   24.5020   31.0470 N.pl3 400  ARG400      0.1354
@<TRIPOS>BOND
     1    54    53    2
     2    53    52    1
     3    53    56   am
     4    55    52    1
     5    52    51    1
     6    88    86   ar
     7    81    82    1
     8    48    47    2
     9    57    56    1
    10    57    58    1
    11    57    60    1
    12    58    59    2
    13    42    41    1
    14    42    43    1
    15    51    47   am
    16    86    85    1
    17    86    87   ar
    18    47    46    1
    19    73    72    2
    20     9     8    1
    21    85    82    1
    22    82    83    1
    23    62    60    1
    24    43    45   am
    25    43    44    2
    26    72    71    1
    27    45    46    1
    28    60    61    1
    29    84    83    2
    30    46    49    1
    31    64    65    1
    32     8     7    1
    33    67    66    2
    34     7     6    1
    35    71    74    1
    36    71    70    1
    37    74    75    1
    38    61    63    1
    39    49    50    1
    40    66    65    1
    41    65    68    1
    42     5     6    1
    43     5     2    1
    44     4     3    2
    45    75    76   ar
    46    75    77   ar
    47    76    78   ar
    48    68    69    1
    49     2     3    1
    50     2     1    1
    51     3    10   am
    52    77    79   ar
    53    98    97    1
    54    78    80   ar
    55    10    11    1
    56    11    12    1
    57    11    14    1
    58    13    12    2
    59    95    94    1
    60    95    96    1
    61    15    14    1
    62    79    80   ar
    63    12    17   am
    64    97    96    2
    65    97    99    1
    66    34    33    1
    67    94    93    1
    68    14    16    1
    69    17    18    1
    70    93    90    1
    71    18    19    1
    72    18    21    1
    73    33    35    1
    74    33    32    2
    75    29    30    1
    76    29    26    1
    77    25    19   am
    78    25    26    1
    79    89    90    1
    80    31    30    1
    81    31    32    1
    82    19    20    2
    83    26    27    1
    84    90    91    1
    85    21    22    1
    86    91    92    2
    87    27    28    2
    88    27    36   am
    89    22    23    1
    90    36    37    1
    91    23    24    1
    92    37    40    1
    93    37    38    1
    94    38    39    2
