@<TRIPOS>MOLECULE
tmp/5u4sB01.pdb
 118 110 0 0 0
SMALL
GASTEIGER

@<TRIPOS>ATOM
      1  N         27.9490   49.3670   18.2780 N.3    83  ASN83      -0.1240
      2  CA        28.7650   49.4220   19.4900 C.3    83  ASN83       0.1653
      3  C         28.2860   50.6030   20.3190 C.2    83  ASN83       0.2266
      4  O         28.5200   51.7610   19.9590 O.2    83  ASN83      -0.2867
      5  CB        30.2290   49.6030   19.1200 C.3    83  ASN83       0.1155
      6  CG        31.1390   49.6300   20.3400 C.2    83  ASN83       0.2627
      7  OD1       30.6810   49.5800   21.4810 O.2    83  ASN83      -0.2716
      8  ND2       32.4430   49.6860   20.1010 N.am   83  ASN83      -0.0877
      9  N         33.4700   40.7260   12.6620 N.3   130  LEU130     -0.1231
     10  CA        33.2630   40.6190   14.1070 C.3   130  LEU130      0.1693
     11  C         34.0760   41.7210   14.7810 C.2   130  LEU130      0.2593
     12  O         33.8490   42.8950   14.4780 O.2   130  LEU130     -0.2718
     13  CB        33.5820   39.1930   14.5720 C.3   130  LEU130      0.0284
     14  CG        32.7190   38.1420   13.8550 C.3   130  LEU130      0.0019
     15  CD1       32.9310   36.7860   14.5270 C.3   130  LEU130      0.0001
     16  CD2       31.2540   38.4960   13.8680 C.3   130  LEU130      0.0001
     17  N         35.0040   41.3800   15.6840 N.am  131  SER131     -0.1938
     18  CA        35.8440   42.3370   16.3970 C.3   131  SER131      0.2055
     19  C         36.8870   41.5160   17.1350 C.2   131  SER131      0.2643
     20  O         36.5980   40.3910   17.5550 O.2   131  SER131     -0.2714
     21  CB        35.0200   43.1260   17.4420 C.3   131  SER131      0.2130
     22  OG        35.9020   43.9230   18.2440 O.3   131  SER131     -0.2179
     23  N         38.0800   42.0900   17.3340 N.am  132  ILE132     -0.1963
     24  CA        39.0120   41.4490   18.2700 C.3   132  ILE132      0.1727
     25  C         38.3890   41.2640   19.6490 C.2   132  ILE132      0.2616
     26  O         38.7720   40.3440   20.3920 O.2   132  ILE132     -0.2715
     27  CB        40.3800   42.1800   18.3180 C.3   132  ILE132      0.0290
     28  CG1       41.4040   41.4040   19.1660 C.3   132  ILE132      0.0022
     29  CG2       40.2410   43.5910   18.8720 C.3   132  ILE132      0.0023
     30  CD1       41.6790   40.0010   18.6520 C.3   132  ILE132      0.0001
     31  N         37.4330   42.1210   20.0200 N.am  133  LEU133     -0.1977
     32  CA        36.7850   41.9920   21.3180 C.3   133  LEU133      0.1596
     33  C         35.8890   40.7660   21.4100 C.2   133  LEU133      0.2287
     34  O         35.4500   40.4260   22.5110 O.2   133  LEU133     -0.2864
     35  CB        36.0440   43.2870   21.6560 C.3   133  LEU133      0.0297
     36  CG        36.9540   44.5280   21.6250 C.3   133  LEU133      0.0022
     37  CD1       36.1800   45.7700   22.0940 C.3   133  LEU133      0.0001
     38  CD2       38.2080   44.3510   22.4770 C.3   133  LEU133      0.0001
     39  N         37.0900   44.5890   26.4040 N.3   138  LEU138     -0.1245
     40  CA        37.5510   45.8790   26.8780 C.3   138  LEU138      0.1561
     41  C         36.4900   46.3580   27.8560 C.2   138  LEU138      0.2260
     42  O         35.3100   46.4240   27.4770 O.2   138  LEU138     -0.2867
     43  CB        37.6640   46.8510   25.7100 C.3   138  LEU138      0.0270
     44  CG        38.1410   48.2790   25.9170 C.3   138  LEU138      0.0019
     45  CD1       39.5660   48.2500   26.4460 C.3   138  LEU138      0.0001
     46  CD2       38.1020   48.9920   24.5560 C.3   138  LEU138      0.0001
     47  N         33.6380   48.6840   26.9390 N.3   141  MET141     -0.1245
     48  CA        32.7630   48.2620   25.8390 C.3   141  MET141      0.1570
     49  C         32.4560   46.7810   25.9890 C.2   141  MET141      0.2261
     50  O         32.3980   46.0320   25.0080 O.2   141  MET141     -0.2867
     51  CB        33.4180   48.4840   24.4650 C.3   141  MET141      0.0387
     52  CG        34.0750   49.8160   24.2450 C.3   141  MET141      0.0595
     53  SD        34.9210   49.6890   22.6420 S.3   141  MET141     -0.1393
     54  CE        35.7730   51.2600   22.7100 C.3   141  MET141      0.0692
     55  N         29.5070   45.2230   24.0310 N.3   144  LEU144     -0.1245
     56  CA        29.8200   44.9910   22.6200 C.3   144  LEU144      0.1561
     57  C         30.6420   43.7160   22.4940 C.2   144  LEU144      0.2260
     58  O         30.3630   42.8480   21.6540 O.2   144  LEU144     -0.2867
     59  CB        30.6000   46.2000   22.0730 C.3   144  LEU144      0.0270
     60  CG        31.2100   46.1130   20.6540 C.3   144  LEU144      0.0019
     61  CD1       32.4960   45.2840   20.5910 C.3   144  LEU144      0.0001
     62  CD2       30.2070   45.6720   19.5760 C.3   144  LEU144      0.0001
     63  N         29.8720   40.2360   20.2380 N.3   148  LYS148     -0.1245
     64  CA        30.7570   39.7510   19.1740 C.3   148  LYS148      0.1561
     65  C         31.2870   38.3570   19.4820 C.2   148  LYS148      0.2260
     66  O         31.4980   37.5640   18.5570 O.2   148  LYS148     -0.2867
     67  CB        31.8900   40.7600   18.9300 C.3   148  LYS148      0.0271
     68  CG        31.4090   42.0990   18.3320 C.3   148  LYS148      0.0035
     69  CD        31.0280   41.9640   16.8330 C.3   148  LYS148      0.0206
     70  CE        30.8180   43.3710   16.2430 C.3   148  LYS148      0.1093
     71  NZ        30.5480   43.3000   14.7620 N.3   148  LYS148     -0.1314
     72  N         38.6650   42.6770   13.5770 N.3   174  PRO174     -0.2102
     73  CA        39.4860   43.8970   13.5750 C.3   174  PRO174      0.1504
     74  C         39.6090   44.5630   14.9330 C.2   174  PRO174      0.2576
     75  O         38.7660   44.4060   15.8260 O.2   174  PRO174     -0.2718
     76  CB        38.6960   44.8600   12.6740 C.3   174  PRO174      0.0282
     77  CG        37.5880   44.0400   12.0260 C.3   174  PRO174      0.0208
     78  CD        37.3420   42.8950   12.9650 C.3   174  PRO174      0.0893
     79  N         40.7170   45.3030   15.0930 N.am  175  GLY175     -0.1943
     80  CA        40.8130   46.3480   16.0830 C.3   175  GLY175      0.1998
     81  C         40.1670   47.6110   15.5430 C.2   175  GLY175      0.2480
     82  O         39.4420   47.5780   14.5490 O.2   175  GLY175     -0.2729
     83  N         40.4140   48.7470   16.1980 N.am  176  PRO176     -0.2726
     84  CA        39.7170   49.9890   15.8210 C.3   176  PRO176      0.1402
     85  C         39.9540   50.3930   14.3740 C.2   176  PRO176      0.2269
     86  O         41.0890   50.3850   13.8860 O.2   176  PRO176     -0.2865
     87  CB        40.2910   51.0270   16.7930 C.3   176  PRO176      0.0296
     88  CG        40.7600   50.2260   17.9880 C.3   176  PRO176      0.0237
     89  CD        41.2310   48.9020   17.4100 C.3   176  PRO176      0.0939
     90  N         31.7400   54.8170   14.0640 N.3   181  MET181     -0.1230
     91  CA        31.5900   53.9570   15.2380 C.3   181  MET181      0.1702
     92  C         32.6540   54.2530   16.2790 C.2   181  MET181      0.2593
     93  O         32.3940   54.1740   17.4880 O.2   181  MET181     -0.2718
     94  CB        31.6610   52.4930   14.8210 C.3   181  MET181      0.0401
     95  CG        31.5450   51.5380   15.9960 C.3   181  MET181      0.0596
     96  SD        31.5320   49.7980   15.5080 S.3   181  MET181     -0.1393
     97  CE        29.8480   49.6130   14.9130 C.3   181  MET181      0.0692
     98  N         33.8630   54.5920   15.8280 N.am  182  SER182     -0.1952
     99  CA        34.9980   54.8060   16.7140 C.3   182  SER182      0.1924
    100  C         35.3610   56.2780   16.8760 C.2   182  SER182      0.2314
    101  O         36.5090   56.6030   17.2000 O.2   182  SER182     -0.2863
    102  CB        36.1950   53.9840   16.2420 C.3   182  SER182      0.2116
    103  OG        35.9550   52.6200   16.5300 O.3   182  SER182     -0.2180
    104  N         37.1600   56.8380   20.0240 N.3   185  VAL185     -0.1245
    105  CA        38.3410   56.0130   20.2600 C.3   185  VAL185      0.1561
    106  C         39.5430   56.7900   19.7360 C.2   185  VAL185      0.2260
    107  O         39.5400   57.2230   18.5760 O.2   185  VAL185     -0.2867
    108  CB        38.1890   54.6480   19.5740 C.3   185  VAL185      0.0252
    109  CG1       39.4340   53.7940   19.7730 C.3   185  VAL185      0.0019
    110  CG2       36.9390   53.9330   20.0850 C.3   185  VAL185      0.0019
    111  N         46.7180   45.7160   16.6100 N.3   215  MET215     -0.1245
    112  CA        46.1270   45.4180   17.9130 C.3   215  MET215      0.1570
    113  C         45.5430   44.0100   17.9350 C.2   215  MET215      0.2261
    114  O         45.7720   43.2400   18.8810 O.2   215  MET215     -0.2867
    115  CB        45.0510   46.4500   18.3030 C.3   215  MET215      0.0387
    116  CG        44.3440   46.0930   19.6470 C.3   215  MET215      0.0595
    117  SD        42.8000   46.9710   20.0590 S.3   215  MET215     -0.1393
    118  CE        43.3900   48.6470   20.2620 C.3   215  MET215      0.0692
@<TRIPOS>BOND
     1    77    76    1
     2    77    78    1
     3     9    10    1
     4    76    73    1
     5    78    72    1
     6    73    72    1
     7    73    74    1
     8    14    16    1
     9    14    15    1
    10    14    13    1
    11    86    85    2
    12    90    91    1
    13    10    13    1
    14    10    11    1
    15    85    84    1
    16    12    11    2
    17    82    81    2
    18    71    70    1
    19    11    17   am
    20    94    91    1
    21    94    95    1
    22    97    96    1
    23    74    79   am
    24    74    75    2
    25    79    80    1
    26    91    92    1
    27    96    95    1
    28    81    80    1
    29    81    83   am
    30    17    18    1
    31    84    83    1
    32    84    87    1
    33    98    92   am
    34    98    99    1
    35    83    89    1
    36   102   103    1
    37   102    99    1
    38    70    69    1
    39    92    93    2
    40    18    19    1
    41    18    21    1
    42   111   112    1
    43    99   100    1
    44    87    88    1
    45    69    68    1
    46   100   101    2
    47    19    23   am
    48    19    20    2
    49    23    24    1
    50    89    88    1
    51    21    22    1
    52   112   113    1
    53   112   115    1
    54   113   114    2
    55    24    27    1
    56    24    25    1
    57     1     2    1
    58   115   116    1
    59    27    29    1
    60    27    28    1
    61    68    67    1
    62    66    65    2
    63   107   106    2
    64    30    28    1
    65    67    64    1
    66     5     2    1
    67     5     6    1
    68    64    65    1
    69    64    63    1
    70     2     3    1
    71   108   109    1
    72   108   110    1
    73   108   105    1
    74    62    60    1
    75   116   117    1
    76    25    31   am
    77    25    26    2
    78   106   105    1
    79     4     3    2
    80    31    32    1
    81   104   105    1
    82   117   118    1
    83     8     6   am
    84     6     7    2
    85    61    60    1
    86    60    59    1
    87    32    33    1
    88    32    35    1
    89    33    34    2
    90    36    35    1
    91    36    37    1
    92    36    38    1
    93    58    57    2
    94    59    56    1
    95    57    56    1
    96    56    55    1
    97    53    54    1
    98    53    52    1
    99    52    51    1
   100    51    48    1
   101    46    44    1
   102    50    49    2
   103    43    44    1
   104    43    40    1
   105    48    49    1
   106    48    47    1
   107    44    45    1
   108    39    40    1
   109    40    41    1
   110    42    41    2
