@<TRIPOS>MOLECULE
tmp/5u4tA01.pdb
 94 91 0 0 0
SMALL
GASTEIGER

@<TRIPOS>ATOM
      1  N         24.4470   50.4220   33.3390 N.3   106  ASP106     -0.1239
      2  CA        25.4480   50.6990   34.3400 C.3   106  ASP106      0.1674
      3  C         25.8310   49.3820   34.9860 C.2   106  ASP106      0.2266
      4  O         24.9490   48.7170   35.5350 O.2   106  ASP106     -0.2867
      5  CB        24.9090   51.6830   35.3750 C.3   106  ASP106      0.1410
      6  CG        25.9420   52.0710   36.4200 C.2   106  ASP106      0.3668
      7  OD1       26.5600   51.1740   37.0290 O.co2 106  ASP106     -0.2456
      8  OD2       26.1300   53.2850   36.6400 O.co2 106  ASP106     -0.2456
      9  N         29.1230   50.3570   38.6870 N.3   109  TRP109     -0.1227
     10  CA        30.2470   51.2210   39.0540 C.3   109  TRP109      0.1737
     11  C         30.1870   51.6800   40.5480 C.2   109  TRP109      0.2595
     12  O         31.0500   51.3320   41.3300 O.2   109  TRP109     -0.2718
     13  CB        30.2790   52.4330   38.0990 C.3   109  TRP109      0.0564
     14  CG        30.7740   52.0850   36.7060 C.ar  109  TRP109      0.0003
     15  CD1       31.8540   51.2950   36.3910 C.ar  109  TRP109      0.0946
     16  CD2       30.2120   52.5060   35.4450 C.ar  109  TRP109      0.0152
     17  NE1       31.9920   51.2010   35.0270 N.ar  109  TRP109     -0.2442
     18  CE2       31.0010   51.9320   34.4250 C.ar  109  TRP109      0.0810
     19  CE3       29.1170   53.3010   35.0820 C.ar  109  TRP109      0.0012
     20  CZ2       30.7170   52.1170   33.0780 C.ar  109  TRP109      0.0191
     21  CZ3       28.8480   53.4950   33.7340 C.ar  109  TRP109      0.0001
     22  CH2       29.6480   52.9040   32.7520 C.ar  109  TRP109      0.0015
     23  N         29.1450   52.4190   40.9280 N.am  110  GLU110     -0.1979
     24  CA        29.0770   53.0680   42.2280 C.3   110  GLU110      0.1602
     25  C         28.0210   52.4810   43.1690 C.2   110  GLU110      0.2287
     26  O         27.8920   52.9540   44.2970 O.2   110  GLU110     -0.2864
     27  CB        28.8180   54.5850   42.0530 C.3   110  GLU110      0.0415
     28  CG        30.1200   55.4090   41.9750 C.3   110  GLU110      0.1163
     29  CD        29.9300   56.9380   42.0790 C.2   110  GLU110      0.3649
     30  OE1       29.6020   57.6170   41.0320 O.co2 110  GLU110     -0.2457
     31  OE2       30.1760   57.4520   43.2120 O.co2 110  GLU110     -0.2457
     32  N         20.8200   57.9140   41.3150 N.3   193  ASN193     -0.1225
     33  CA        22.2270   57.8250   40.9390 C.3   193  ASN193      0.1785
     34  C         22.3660   58.4680   39.5710 C.2   193  ASN193      0.2598
     35  O         22.2790   57.7990   38.5440 O.2   193  ASN193     -0.2718
     36  CB        22.7280   56.3760   40.9180 C.3   193  ASN193      0.1169
     37  CG        24.1900   56.2800   40.5600 C.2   193  ASN193      0.2627
     38  OD1       24.8510   57.3000   40.2950 O.2   193  ASN193     -0.2716
     39  ND2       24.6960   55.0660   40.4770 N.am  193  ASN193     -0.0877
     40  N         22.5650   59.7740   39.5590 N.am  194  SER194     -0.1938
     41  CA        22.3370   60.5310   38.3360 C.3   194  SER194      0.2040
     42  C         23.3600   60.2240   37.2520 C.2   194  SER194      0.2485
     43  O         24.5000   59.9010   37.5560 O.2   194  SER194     -0.2729
     44  CB        22.3600   62.0260   38.6360 C.3   194  SER194      0.2129
     45  OG        23.6570   62.4370   38.9420 O.3   194  SER194     -0.2179
     46  N         22.9660   60.3590   35.9770 N.am  195  PRO195     -0.2715
     47  CA        23.9480   60.1320   34.9180 C.3   195  PRO195      0.1536
     48  C         24.7290   61.4040   34.6130 C.2   195  PRO195      0.2599
     49  O         24.6520   61.9690   33.5220 O.2   195  PRO195     -0.2715
     50  CB        23.0930   59.6820   33.7310 C.3   195  PRO195      0.0310
     51  CG        21.7100   60.2230   34.0110 C.3   195  PRO195      0.0237
     52  CD        21.5800   60.3990   35.4740 C.3   195  PRO195      0.0939
     53  N         25.4900   61.8350   35.5950 N.am  196  THR196     -0.1937
     54  CA        26.3380   62.9990   35.4540 C.3   196  THR196      0.2028
     55  C         27.7780   62.6770   35.8600 C.2   196  THR196      0.2642
     56  O         28.0510   61.9720   36.8280 O.2   196  THR196     -0.2714
     57  CB        25.8000   64.1650   36.2930 C.3   196  THR196      0.1808
     58  OG1       25.7300   63.7840   37.6880 O.3   196  THR196     -0.2208
     59  CG2       24.4250   64.5780   35.7990 C.3   196  THR196      0.0379
     60  N         28.7100   63.1770   35.0820 N.am  197  ASN197     -0.1971
     61  CA        30.1030   62.9450   35.3740 C.3   197  ASN197      0.1688
     62  C         30.9470   64.1000   34.8270 C.2   197  ASN197      0.2292
     63  O         31.1130   65.0950   35.5220 O.2   197  ASN197     -0.2864
     64  CB        30.5670   61.6040   34.8150 C.3   197  ASN197      0.1181
     65  CG        31.9760   61.2600   35.2530 C.2   197  ASN197      0.2629
     66  OD1       32.4300   61.6550   36.3440 O.2   197  ASN197     -0.2716
     67  ND2       32.6810   60.5350   34.4120 N.am  197  ASN197     -0.0877
     68  N         24.2890   57.5590   30.1640 N.3   207  LEU207     -0.1245
     69  CA        25.1090   57.4860   31.3700 C.3   207  LEU207      0.1561
     70  C         25.8890   58.7780   31.5950 C.2   207  LEU207      0.2260
     71  O         26.4410   58.9920   32.6840 O.2   207  LEU207     -0.2867
     72  CB        26.0380   56.2870   31.3080 C.3   207  LEU207      0.0270
     73  CG        25.3050   54.9350   31.3040 C.3   207  LEU207      0.0019
     74  CD1       26.2470   53.8120   30.9340 C.3   207  LEU207      0.0001
     75  CD2       24.6540   54.6540   32.6450 C.3   207  LEU207      0.0001
     76  N         23.3900   60.9340   43.9640 N.3   234  ASN234     -0.1240
     77  CA        24.7960   60.9490   43.5020 C.3   234  ASN234      0.1653
     78  C         24.9060   61.8410   42.2880 C.2   234  ASN234      0.2266
     79  O         24.1410   61.6660   41.3290 O.2   234  ASN234     -0.2867
     80  CB        25.2800   59.5390   43.1430 C.3   234  ASN234      0.1155
     81  CG        26.7240   59.5090   42.6580 C.2   234  ASN234      0.2627
     82  OD1       27.5350   60.3590   43.0010 O.2   234  ASN234     -0.2716
     83  ND2       27.0440   58.5130   41.8520 N.am  234  ASN234     -0.0877
     84  N         32.3590   66.0230   42.8620 N.3   280  ARG280     -0.1245
     85  CA        31.4270   64.9170   42.9540 C.3   280  ARG280      0.1563
     86  C         31.0130   64.8350   44.3780 C.2   280  ARG280      0.2260
     87  O         31.8410   64.9710   45.2860 O.2   280  ARG280     -0.2867
     88  CB        32.0140   63.5770   42.5230 C.3   280  ARG280      0.0307
     89  CG        31.0370   62.4390   42.8470 C.3   280  ARG280      0.0489
     90  CD        31.4090   61.1350   42.1680 C.3   280  ARG280      0.2205
     91  NE        31.4190   61.2490   40.7160 N.pl3 280  ARG280     -0.0865
     92  CZ        30.3260   61.3280   39.9660 C.cat 280  ARG280      0.5346
     93  NH1       29.1260   61.3020   40.5390 N.pl3 280  ARG280      0.1354
     94  NH2       30.4320   61.4340   38.6370 N.pl3 280  ARG280      0.1354
@<TRIPOS>BOND
     1    68    69    1
     2    74    73    1
     3    73    72    1
     4    73    75    1
     5    72    69    1
     6    69    70    1
     7    70    71    2
     8    22    20   ar
     9    22    21   ar
    10    20    18   ar
    11     1     2    1
    12    49    48    2
    13    50    51    1
    14    50    47    1
    15    21    19   ar
    16    51    52    1
    17     2     3    1
    18     2     5    1
    19    67    65   am
    20    18    17   ar
    21    18    16   ar
    22    48    47    1
    23    48    53   am
    24    64    65    1
    25    64    61    1
    26    62    61    1
    27    62    63    2
    28    47    46    1
    29     3     4    2
    30    17    15   ar
    31    19    16   ar
    32    60    61    1
    33    60    55   am
    34    65    66    2
    35     5     6    1
    36    16    14   ar
    37    54    53    1
    38    54    55    1
    39    54    57    1
    40    52    46    1
    41    59    57    1
    42    55    56    2
    43    46    42   am
    44    57    58    1
    45    15    14   ar
    46     6     8   ar
    47     6     7   ar
    48    14    13    1
    49    42    43    2
    50    42    41    1
    51    13    10    1
    52    41    44    1
    53    41    40    1
    54    35    34    2
    55    44    45    1
    56    94    92    1
    57     9    10    1
    58    10    11    1
    59    40    34   am
    60    34    33    1
    61    92    93    1
    62    92    91    2
    63    38    37    2
    64    39    37   am
    65    11    23   am
    66    11    12    2
    67    37    36    1
    68    91    90    1
    69    36    33    1
    70    23    24    1
    71    33    32    1
    72    30    29   ar
    73    79    78    2
    74    83    81   am
    75    28    27    1
    76    28    29    1
    77    27    24    1
    78    29    31   ar
    79    90    89    1
    80    24    25    1
    81    78    77    1
    82    88    89    1
    83    88    85    1
    84    81    82    2
    85    81    80    1
    86    84    85    1
    87    85    86    1
    88    80    77    1
    89    25    26    2
    90    77    76    1
    91    86    87    2
