@<TRIPOS>MOLECULE
tmp/5u4xA01.pdb
 213 209 0 0 0
SMALL
GASTEIGER

@<TRIPOS>ATOM
      1  N          5.7620   16.0280   18.6170 N.3     1  SER1       -0.1217
      2  CA         5.7440   15.4570   17.3190 C.3     1  SER1        0.1889
      3  C          6.1700   16.5670   16.3110 C.2     1  SER1        0.2288
      4  O          5.9000   17.7620   16.6610 O.2     1  SER1       -0.2866
      5  CB         4.3600   14.9470   16.9710 C.3     1  SER1        0.2089
      6  OG         3.4280   15.9600   16.8030 O.3     1  SER1       -0.2183
      7  N          3.6310   19.0660   14.0210 N.3     4  GLN4       -0.1231
      8  CA         3.0980   20.1550   14.8280 C.3     4  GLN4        0.1698
      9  C          4.1710   21.2260   15.0870 C.2     4  GLN4        0.2592
     10  O          3.8690   22.4200   15.0630 O.2     4  GLN4       -0.2718
     11  CB         2.5430   19.6440   16.1570 C.3     4  GLN4        0.0381
     12  CG         1.3330   18.7170   16.0660 C.3     4  GLN4        0.0905
     13  CD         0.1710   19.3560   15.3500 C.2     4  GLN4        0.2608
     14  OE1       -0.2280   20.4760   15.7230 O.2     4  GLN4       -0.2717
     15  NE2       -0.2900   18.7680   14.2910 N.am    4  GLN4       -0.0878
     16  N          5.4100   20.7810   15.2990 N.am    5  TYR5       -0.1976
     17  CA         6.5380   21.6690   15.5840 C.3     5  TYR5        0.1639
     18  C          6.7370   22.6650   14.4590 C.2     5  TYR5        0.2290
     19  O          6.7740   23.8580   14.7080 O.2     5  TYR5       -0.2864
     20  CB         7.8200   20.8540   15.8130 C.3     5  TYR5        0.0560
     21  CG         9.0860   21.6680   16.0560 C.ar    5  TYR5       -0.0198
     22  CD1        9.3950   22.1610   17.3230 C.ar    5  TYR5       -0.0009
     23  CD2        9.9880   21.9120   15.0190 C.ar    5  TYR5       -0.0009
     24  CE1       10.5520   22.8880   17.5490 C.ar    5  TYR5        0.0417
     25  CE2       11.1510   22.6420   15.2330 C.ar    5  TYR5        0.0417
     26  CZ        11.4250   23.1310   16.5060 C.ar    5  TYR5        0.1957
     27  OH        12.5820   23.8350   16.7380 O.3     5  TYR5       -0.2866
     28  N          3.7100   25.2240   13.9790 N.3     8  PHE8       -0.1227
     29  CA         3.8060   26.3510   14.9070 C.3     8  PHE8        0.1736
     30  C          4.6740   27.4910   14.3720 C.2     8  PHE8        0.2595
     31  O          4.2560   28.6680   14.3940 O.2     8  PHE8       -0.2718
     32  CB         4.3530   25.8470   16.2260 C.3     8  PHE8        0.0547
     33  CG         4.5790   26.9080   17.2400 C.ar    8  PHE8       -0.0202
     34  CD1        3.5830   27.2350   18.1460 C.ar    8  PHE8       -0.0042
     35  CD2        5.8140   27.5380   17.3270 C.ar    8  PHE8       -0.0042
     36  CE1        3.8060   28.1900   19.1200 C.ar    8  PHE8       -0.0003
     37  CE2        6.0420   28.4960   18.2990 C.ar    8  PHE8       -0.0003
     38  CZ         5.0370   28.8250   19.1930 C.ar    8  PHE8       -0.0000
     39  N          5.8590   27.1430   13.8760 N.am    9  TYR9       -0.1976
     40  CA         6.7880   28.1490   13.3600 C.3     9  TYR9        0.1639
     41  C          6.3760   28.6610   11.9800 C.2     9  TYR9        0.2290
     42  O          6.9040   29.6620   11.5110 O.2     9  TYR9       -0.2864
     43  CB         8.2350   27.6410   13.3700 C.3     9  TYR9        0.0560
     44  CG         8.8360   27.6340   14.7540 C.ar    9  TYR9       -0.0198
     45  CD1        9.0810   28.8300   15.4300 C.ar    9  TYR9       -0.0009
     46  CD2        9.1930   26.4390   15.3870 C.ar    9  TYR9       -0.0009
     47  CE1        9.6350   28.8380   16.6930 C.ar    9  TYR9        0.0417
     48  CE2        9.7720   26.4450   16.6460 C.ar    9  TYR9        0.0417
     49  CZ         9.9880   27.6480   17.3000 C.ar    9  TYR9        0.1957
     50  OH        10.5390   27.6500   18.5640 O.3     9  TYR9       -0.2866
     51  N          3.8080   33.8140   15.3480 N.3    14  GLN14      -0.1245
     52  CA         4.8810   33.2600   16.1910 C.3    14  GLN14       0.1566
     53  C          6.2480   33.7900   15.8020 C.2    14  GLN14       0.2260
     54  O          7.0950   34.0060   16.6820 O.2    14  GLN14      -0.2867
     55  CB         4.8860   31.7390   16.1790 C.3    14  GLN14       0.0367
     56  CG         3.6100   31.1300   16.7460 C.3    14  GLN14       0.0905
     57  CD         3.3530   31.4890   18.2130 C.2    14  GLN14       0.2608
     58  OE1        4.2480   31.8920   18.9420 O.2    14  GLN14      -0.2717
     59  NE2        2.1230   31.3190   18.6410 N.am   14  GLN14      -0.0878
     60  N          6.3480   37.1790   17.3570 N.3    17  ASN17      -0.1225
     61  CA         6.6380   37.1110   18.7840 C.3    17  ASN17       0.1785
     62  C          8.1350   37.1370   19.0570 C.2    17  ASN17       0.2597
     63  O          8.5990   37.8620   19.9410 O.2    17  ASN17      -0.2718
     64  CB         6.0270   35.8500   19.3980 C.3    17  ASN17       0.1169
     65  CG         6.3600   35.6970   20.8600 C.2    17  ASN17       0.2627
     66  OD1        6.9280   34.6860   21.2790 O.2    17  ASN17      -0.2716
     67  ND2        6.0180   36.7010   21.6450 N.am   17  ASN17      -0.0877
     68  N          8.8850   36.3430   18.2980 N.am   18  MET18      -0.1979
     69  CA        10.3380   36.3210   18.4160 C.3    18  MET18       0.1605
     70  C         10.9720   37.6210   17.9150 C.2    18  MET18       0.2287
     71  O         11.8540   38.1720   18.5570 O.2    18  MET18      -0.2864
     72  CB        10.9230   35.1350   17.6640 C.3    18  MET18       0.0413
     73  CG        10.5840   33.8090   18.3450 C.3    18  MET18       0.0598
     74  SD        11.3050   32.4130   17.4640 S.3    18  MET18      -0.1393
     75  CE        10.2050   32.4330   16.0470 C.3    18  MET18       0.0692
     76  N         19.2830   31.0680   15.6230 N.3   113  GLU113     -0.1231
     77  CA        18.6900   31.2480   16.9370 C.3   113  GLU113      0.1684
     78  C         17.9230   29.9840   17.2370 C.2   113  GLU113      0.2434
     79  O         16.7450   29.8760   16.9030 O.2   113  GLU113     -0.2733
     80  CB        17.8110   32.4870   17.0390 C.3   113  GLU113      0.0402
     81  CG        17.4910   32.8690   18.4830 C.3   113  GLU113      0.1161
     82  CD        16.2470   32.1980   19.0450 C.2   113  GLU113      0.3649
     83  OE1       15.1270   32.7600   18.9350 O.co2 113  GLU113     -0.2457
     84  OE2       16.3960   31.1050   19.6290 O.co2 113  GLU113     -0.2457
     85  N         18.6040   29.0120   17.8520 N.am  114  PRO114     -0.2718
     86  CA        17.9890   27.7240   18.1580 C.3   114  PRO114      0.1535
     87  C         17.7530   27.4850   19.6440 C.2   114  PRO114      0.2598
     88  O         17.5600   26.3380   20.0400 O.2   114  PRO114     -0.2715
     89  CB        19.0590   26.7630   17.6580 C.3   114  PRO114      0.0310
     90  CG        20.3150   27.4400   18.0790 C.3   114  PRO114      0.0237
     91  CD        20.0770   28.9000   17.8710 C.3   114  PRO114      0.0939
     92  N         17.8010   28.5300   20.4710 N.am  115  MET115     -0.1978
     93  CA        17.7220   28.3320   21.9220 C.3   115  MET115      0.1605
     94  C         16.2870   28.1870   22.3820 C.2   115  MET115      0.2287
     95  O         15.4390   29.0150   22.0570 O.2   115  MET115     -0.2864
     96  CB        18.3650   29.4950   22.6750 C.3   115  MET115      0.0413
     97  CG        19.8390   29.6630   22.3640 C.3   115  MET115      0.0598
     98  SD        20.1780   30.7930   21.0040 S.3   115  MET115     -0.1393
     99  CE        19.7400   32.3670   21.7290 C.3   115  MET115      0.0692
    100  N         13.6570   27.2110   25.9080 N.3   117  TYR117     -0.1241
    101  CA        13.6330   27.3560   27.3780 C.3   117  TYR117      0.1605
    102  C         14.7190   26.4860   28.0020 C.2   117  TYR117      0.2264
    103  O         15.0200   25.4070   27.4930 O.2   117  TYR117     -0.2867
    104  CB        12.2720   26.9710   27.9490 C.3   117  TYR117      0.0534
    105  CG        11.1300   27.7760   27.3970 C.ar  117  TYR117     -0.0201
    106  CD1       11.1630   29.1700   27.4150 C.ar  117  TYR117     -0.0009
    107  CD2       10.0020   27.1510   26.8730 C.ar  117  TYR117     -0.0009
    108  CE1       10.1160   29.9270   26.8950 C.ar  117  TYR117      0.0417
    109  CE2        8.9490   27.8930   26.3580 C.ar  117  TYR117      0.0417
    110  CZ         9.0040   29.2790   26.3690 C.ar  117  TYR117      0.1957
    111  OH         7.9570   30.0110   25.8730 O.3   117  TYR117     -0.2866
    112  N         15.5900   23.1360   25.3730 N.3   121  ASN121     -0.1225
    113  CA        14.2690   22.6790   24.9440 C.3   121  ASN121      0.1785
    114  C         14.0740   22.8390   23.4460 C.2   121  ASN121      0.2597
    115  O         14.5880   23.7790   22.8460 O.2   121  ASN121     -0.2718
    116  CB        13.1480   23.3870   25.6800 C.3   121  ASN121      0.1169
    117  CG        11.8310   22.6530   25.5600 C.2   121  ASN121      0.2627
    118  OD1       11.7970   21.4120   25.5540 O.2   121  ASN121     -0.2716
    119  ND2       10.7400   23.4060   25.4450 N.am  121  ASN121     -0.0877
    120  N         13.3490   21.8810   22.8610 N.am  122  GLU122     -0.1979
    121  CA        13.0430   21.7920   21.4200 C.3   122  GLU122      0.1602
    122  C         14.0960   21.0280   20.6350 C.2   122  GLU122      0.2287
    123  O         13.8260   20.6140   19.5160 O.2   122  GLU122     -0.2864
    124  CB        12.7610   23.1530   20.7560 C.3   122  GLU122      0.0415
    125  CG        11.6750   23.9490   21.4430 C.3   122  GLU122      0.1163
    126  CD        11.4880   25.3180   20.8110 C.2   122  GLU122      0.3649
    127  OE1       11.3530   25.4080   19.5670 O.co2 122  GLU122     -0.2457
    128  OE2       11.4960   26.2980   21.5790 O.co2 122  GLU122     -0.2457
    129  N         16.6730   21.9870   19.0640 N.3   124  MET124     -0.1245
    130  CA        17.1520   22.6040   17.8380 C.3   124  MET124      0.1570
    131  C         18.6680   22.7890   17.8330 C.2   124  MET124      0.2261
    132  O         19.2670   22.8750   16.7440 O.2   124  MET124     -0.2867
    133  CB        16.4320   23.9300   17.5320 C.3   124  MET124      0.0387
    134  CG        16.7320   24.4490   16.1190 C.3   124  MET124      0.0595
    135  SD        15.8210   25.9620   15.7880 S.3   124  MET124     -0.1393
    136  CE        16.7500   26.6200   14.4120 C.3   124  MET124      0.0692
    137  N         11.7660   37.1170   25.7050 N.3   270  HIS270     -0.1226
    138  CA        10.6270   36.2060   25.5730 C.3   270  HIS270      0.1752
    139  C         10.8800   34.8170   26.1960 C.2   270  HIS270      0.2596
    140  O          9.9370   34.0430   26.3580 O.2   270  HIS270     -0.2718
    141  CB        10.1470   36.0990   24.1120 C.3   270  HIS270      0.0759
    142  CG        10.8930   35.0940   23.3020 C.ar  270  HIS270      0.0818
    143  ND1       12.2160   35.2560   22.9570 N.ar  270  HIS270     -0.2268
    144  CD2       10.5240   33.8780   22.8250 C.ar  270  HIS270      0.1154
    145  CE1       12.6200   34.2100   22.2650 C.ar  270  HIS270      0.1986
    146  NE2       11.6150   33.3570   22.1770 N.ar  270  HIS270     -0.2212
    147  N         12.1290   34.5090   26.5480 N.am  271  TRP271     -0.1976
    148  CA        12.4370   33.2710   27.2670 C.3   271  TRP271      0.1640
    149  C         12.1360   33.3400   28.7630 C.2   271  TRP271      0.2290
    150  O         12.1240   32.3050   29.4240 O.2   271  TRP271     -0.2864
    151  CB        13.9120   32.9010   27.1030 C.3   271  TRP271      0.0576
    152  CG        14.2810   32.3700   25.7770 C.ar  271  TRP271      0.0006
    153  CD1       14.1080   31.0930   25.3370 C.ar  271  TRP271      0.0946
    154  CD2       14.9660   33.0630   24.7420 C.ar  271  TRP271      0.0152
    155  NE1       14.6220   30.9480   24.0820 N.ar  271  TRP271     -0.2442
    156  CE2       15.1470   32.1460   23.6820 C.ar  271  TRP271      0.0810
    157  CE3       15.4320   34.3770   24.5910 C.ar  271  TRP271      0.0012
    158  CZ2       15.7730   32.4990   22.4850 C.ar  271  TRP271      0.0191
    159  CZ3       16.0570   34.7310   23.4010 C.ar  271  TRP271      0.0001
    160  CH2       16.2290   33.7910   22.3650 C.ar  271  TRP271      0.0015
    161  N         10.2490   13.3830   22.0870 N.3   301  ARG301     -0.1231
    162  CA         9.2560   14.4430   21.9130 C.3   301  ARG301      0.1694
    163  C          9.9430   15.7900   21.7670 C.2   301  ARG301      0.2592
    164  O          9.3690   16.8100   22.1420 O.2   301  ARG301     -0.2718
    165  CB         8.3100   14.4640   23.1110 C.3   301  ARG301      0.0321
    166  CG         7.5770   13.1450   23.3410 C.3   301  ARG301      0.0489
    167  CD         6.7060   13.1630   24.5930 C.3   301  ARG301      0.2205
    168  NE         7.4660   12.8090   25.8020 N.pl3 301  ARG301     -0.0865
    169  CZ         7.5780   13.5450   26.9180 C.cat 301  ARG301      0.5346
    170  NH1        6.9620   14.7280   27.0600 N.pl3 301  ARG301      0.1354
    171  NH2        8.3180   13.0810   27.9290 N.pl3 301  ARG301      0.1354
    172  N         11.1590   15.7860   21.2120 N.am  302  GLN302     -0.1966
    173  CA        11.9670   16.9930   21.0100 C.3   302  GLN302      0.1733
    174  C         12.2180   17.7850   22.2870 C.2   302  GLN302      0.2617
    175  O         12.3330   19.0080   22.2650 O.2   302  GLN302     -0.2715
    176  CB        11.3370   17.9080   19.9530 C.3   302  GLN302      0.0408
    177  CG        11.2130   17.3050   18.5770 C.3   302  GLN302      0.0908
    178  CD        10.5150   18.2640   17.6420 C.2   302  GLN302      0.2608
    179  OE1        9.2840   18.3140   17.5960 O.2   302  GLN302     -0.2717
    180  NE2       11.2970   19.0590   16.9180 N.am  302  GLN302     -0.0878
    181  N         12.3400   17.0880   23.4060 N.am  303  SER303     -0.1950
    182  CA        12.5540   17.7610   24.6740 C.3   303  SER303      0.1924
    183  C         13.4270   16.9080   25.5750 C.2   303  SER303      0.2314
    184  O         14.2080   16.0780   25.0910 O.2   303  SER303     -0.2863
    185  CB        11.2050   18.0790   25.3170 C.3   303  SER303      0.2116
    186  OG        11.3580   18.9770   26.4070 O.3   303  SER303     -0.2180
    187  N          8.9070   19.5050   28.3880 N.3   326  LYS326     -0.1245
    188  CA         7.8310   19.7620   27.4220 C.3   326  LYS326      0.1561
    189  C          6.4790   20.1610   28.0190 C.2   326  LYS326      0.2260
    190  O          5.5530   20.4760   27.2630 O.2   326  LYS326     -0.2867
    191  CB         7.6320   18.5580   26.4870 C.3   326  LYS326      0.0271
    192  CG         6.8320   18.8950   25.2270 C.3   326  LYS326      0.0035
    193  CD         7.3140   18.1320   24.0120 C.3   326  LYS326      0.0206
    194  CE         6.5040   18.4840   22.7810 C.3   326  LYS326      0.1093
    195  NZ         6.6670   17.4410   21.7330 N.3   326  LYS326     -0.1314
    196  N          5.7480   22.9150   30.4500 N.3   328  PRO328     -0.2116
    197  CA         5.9430   24.0560   31.3490 C.3   328  PRO328      0.1372
    198  C          4.6450   24.7390   31.7610 C.2   328  PRO328      0.2244
    199  O          3.6730   24.6830   31.0290 O.2   328  PRO328     -0.2868
    200  CB         6.8030   25.0040   30.5140 C.3   328  PRO328      0.0268
    201  CG         6.3650   24.7320   29.1030 C.3   328  PRO328      0.0207
    202  CD         6.0960   23.2530   29.0530 C.3   328  PRO328      0.0892
    203  N          3.2480   28.4060   32.3820 N.3   330  PHE330     -0.1241
    204  CA         3.5210   29.8240   32.1760 C.3   330  PHE330      0.1605
    205  C          2.6930   30.6060   33.1790 C.2   330  PHE330      0.2264
    206  O          1.4820   30.6030   33.1220 O.2   330  PHE330     -0.2867
    207  CB         3.1880   30.2510   30.7510 C.3   330  PHE330      0.0534
    208  CG         3.9720   29.5170   29.7220 C.ar  330  PHE330     -0.0203
    209  CD1        5.2420   29.9430   29.3780 C.ar  330  PHE330     -0.0042
    210  CD2        3.4600   28.3670   29.1240 C.ar  330  PHE330     -0.0042
    211  CE1        5.9850   29.2450   28.4420 C.ar  330  PHE330     -0.0003
    212  CE2        4.1990   27.6680   28.1870 C.ar  330  PHE330     -0.0003
    213  CZ         5.4590   28.1110   27.8390 C.ar  330  PHE330     -0.0000
@<TRIPOS>BOND
     1    42    41    2
     2    41    40    1
     3    40    43    1
     4    40    39    1
     5    43    44    1
     6    39    30   am
     7    28    29    1
     8     7     8    1
     9    15    13   am
    10    30    31    2
    11    30    29    1
    12   136   135    1
    13    18    19    2
    14    18    17    1
    15    44    46   ar
    16    44    45   ar
    17     8     9    1
    18     8    11    1
    19    29    32    1
    20    23    25   ar
    21    23    21   ar
    22    10     9    2
    23     9    16   am
    24    25    26   ar
    25    16    17    1
    26    51    52    1
    27    13    14    2
    28    13    12    1
    29    46    48   ar
    30    45    47   ar
    31    17    20    1
    32    76    77    1
    33   135   134    1
    34    53    52    1
    35    53    54    2
    36    20    21    1
    37    75    74    1
    38    21    22   ar
    39    12    11    1
    40   134   133    1
    41    55    52    1
    42    55    56    1
    43    32    33    1
    44     3     4    2
    45     3     2    1
    46    26    27    1
    47    26    24   ar
    48    48    49   ar
    49    47    49   ar
    50   132   131    2
    51    56    57    1
    52     6     5    1
    53    79    78    2
    54   180   178   am
    55    77    80    1
    56    77    78    1
    57     5     2    1
    58    80    81    1
    59    78    85   am
    60    33    35   ar
    61    33    34   ar
    62    49    50    1
    63     2     1    1
    64    22    24   ar
    65    35    37   ar
    66    60    61    1
    67    74    73    1
    68   133   130    1
    69   179   178    2
    70   178   177    1
    71    89    90    1
    72    89    86    1
    73    72    73    1
    74    72    69    1
    75   131   130    1
    76   130   129    1
    77    85    91    1
    78    85    86    1
    79    91    90    1
    80    70    69    1
    81    70    71    2
    82    34    36   ar
    83    86    87    1
    84    57    59   am
    85    57    58    2
    86    68    69    1
    87    68    62   am
    88    37    38   ar
    89    81    82    1
    90   177   176    1
    91    61    62    1
    92    61    64    1
    93    83    82   ar
    94    82    84   ar
    95    62    63    2
    96    36    38   ar
    97    64    65    1
    98   123   122    2
    99   127   126   ar
   100    87    88    2
   101    87    92   am
   102   176   173    1
   103    92    93    1
   104   122   121    1
   105   124   121    1
   106   124   125    1
   107   126   125    1
   108   126   128   ar
   109    65    66    2
   110    65    67   am
   111    98    99    1
   112    98    97    1
   113   173   172    1
   114   173   174    1
   115   172   163   am
   116   121   120    1
   117   195   194    1
   118   163   162    1
   119   163   164    2
   120   162   161    1
   121   162   165    1
   122    93    94    1
   123    93    96    1
   124    95    94    2
   125   146   145   ar
   126   146   144   ar
   127   145   143   ar
   128   175   174    2
   129   174   181   am
   130    97    96    1
   131   160   158   ar
   132   160   159   ar
   133   158   156   ar
   134   194   193    1
   135   144   142   ar
   136   115   114    2
   137   120   114   am
   138   143   142   ar
   139   165   166    1
   140   142   141    1
   141   166   167    1
   142   159   157   ar
   143   181   182    1
   144   114   113    1
   145   156   155   ar
   146   156   154   ar
   147   193   192    1
   148   155   153   ar
   149   141   138    1
   150   157   154   ar
   151   167   168    1
   152   182   185    1
   153   182   183    1
   154   154   152   ar
   155   113   112    1
   156   113   116    1
   157   184   183    2
   158   192   191    1
   159   185   186    1
   160   153   152   ar
   161   119   117   am
   162   118   117    2
   163   117   116    1
   164   138   137    1
   165   138   139    1
   166   152   151    1
   167   168   169    2
   168   111   110    1
   169   100   101    1
   170   139   140    2
   171   139   147   am
   172   109   110   ar
   173   109   107   ar
   174   110   108   ar
   175   191   188    1
   176   147   148    1
   177   107   105   ar
   178   108   106   ar
   179   169   170    1
   180   169   171    1
   181   151   148    1
   182   190   189    2
   183   148   149    1
   184   101   104    1
   185   101   102    1
   186   105   106   ar
   187   105   104    1
   188   188   189    1
   189   188   187    1
   190   103   102    2
   191   213   212   ar
   192   213   211   ar
   193   212   210   ar
   194   211   209   ar
   195   149   150    2
   196   202   201    1
   197   202   196    1
   198   201   200    1
   199   210   208   ar
   200   209   208   ar
   201   208   207    1
   202   196   197    1
   203   200   197    1
   204   207   204    1
   205   199   198    2
   206   197   198    1
   207   204   203    1
   208   204   205    1
   209   206   205    2
