@<TRIPOS>MOLECULE
tmp/5u51D01.pdb
 84 77 0 0 0
SMALL
GASTEIGER

@<TRIPOS>ATOM
      1  N         21.4450   -1.0280  -47.6300 N.3    88  LYS88      -0.1245
      2  CA        20.9600   -0.9850  -46.2520 C.3    88  LYS88       0.1561
      3  C         22.1070   -0.7720  -45.2740 C.2    88  LYS88       0.2260
      4  O         21.9740   -0.0180  -44.3040 O.2    88  LYS88      -0.2867
      5  CB        20.1990   -2.2680  -45.9110 C.3    88  LYS88       0.0271
      6  CG        19.7620   -2.3970  -44.4620 C.3    88  LYS88       0.0035
      7  CD        18.5840   -1.4610  -44.1670 C.3    88  LYS88       0.0206
      8  CE        18.0800   -1.6030  -42.7460 C.3    88  LYS88       0.1093
      9  NZ        16.9050   -0.7160  -42.5180 N.3    88  LYS88      -0.1314
     10  N         22.8280    2.5190  -42.8660 N.3    92  ASN92      -0.1240
     11  CA        22.9960    2.3670  -41.4260 C.3    92  ASN92       0.1653
     12  C         24.2990    2.9990  -40.9580 C.2    92  ASN92       0.2266
     13  O         24.3560    3.5860  -39.8730 O.2    92  ASN92      -0.2867
     14  CB        22.9440    0.8900  -41.0390 C.3    92  ASN92       0.1155
     15  CG        21.6000    0.2550  -41.3420 C.2    92  ASN92       0.2627
     16  OD1       20.5970    0.9470  -41.5270 O.2    92  ASN92      -0.2716
     17  ND2       21.5740   -1.0730  -41.3910 N.am   92  ASN92      -0.0877
     18  N         23.6330    6.7710  -40.9240 N.3    95  ILE95      -0.1231
     19  CA        22.7650    7.1300  -39.8060 C.3    95  ILE95       0.1692
     20  C         23.5260    7.0250  -38.4920 C.2    95  ILE95       0.2591
     21  O         23.4720    7.9220  -37.6410 O.2    95  ILE95      -0.2718
     22  CB        21.5130    6.2370  -39.7990 C.3    95  ILE95       0.0266
     23  CG1       20.7520    6.3720  -41.1180 C.3    95  ILE95       0.0019
     24  CG2       20.6240    6.5730  -38.6150 C.3    95  ILE95       0.0020
     25  CD1       19.4850    5.5640  -41.1680 C.3    95  ILE95       0.0001
     26  N         24.2400    5.9150  -38.3060 N.am   96  LEU96      -0.1980
     27  CA        25.0430    5.7440  -37.1030 C.3    96  LEU96       0.1596
     28  C         26.0980    6.8410  -36.9860 C.2    96  LEU96       0.2287
     29  O         26.3350    7.3690  -35.8940 O.2    96  LEU96      -0.2864
     30  CB        25.6840    4.3570  -37.1130 C.3    96  LEU96       0.0297
     31  CG        26.2320    3.7990  -35.8020 C.3    96  LEU96       0.0022
     32  CD1       25.1800    3.8410  -34.7010 C.3    96  LEU96       0.0001
     33  CD2       26.7170    2.3780  -36.0270 C.3    96  LEU96       0.0001
     34  N         24.6200    9.8000  -35.4080 N.3    99  TYR99      -0.1241
     35  CA        24.4340    9.6730  -33.9670 C.3    99  TYR99       0.1605
     36  C         25.7410    9.9000  -33.2170 C.2    99  TYR99       0.2264
     37  O         25.7900   10.6690  -32.2510 O.2    99  TYR99      -0.2867
     38  CB        23.8560    8.2970  -33.6330 C.3    99  TYR99       0.0534
     39  CG        23.7900    7.9990  -32.1490 C.ar   99  TYR99      -0.0201
     40  CD1       22.6690    8.3380  -31.4050 C.ar   99  TYR99      -0.0009
     41  CD2       24.8460    7.3700  -31.4950 C.ar   99  TYR99      -0.0009
     42  CE1       22.6000    8.0630  -30.0540 C.ar   99  TYR99       0.0417
     43  CE2       24.7860    7.0950  -30.1430 C.ar   99  TYR99       0.0417
     44  CZ        23.6590    7.4430  -29.4270 C.ar   99  TYR99       0.1957
     45  OH        23.5850    7.1730  -28.0780 O.3    99  TYR99      -0.2866
     46  N         26.7020    6.6020  -22.4470 N.3   131  ASP131     -0.1239
     47  CA        26.3300    5.9920  -23.7170 C.3   131  ASP131      0.1674
     48  C         27.4920    5.3990  -24.5040 C.2   131  ASP131      0.2266
     49  O         27.2500    4.7410  -25.5240 O.2   131  ASP131     -0.2867
     50  CB        25.6100    7.0160  -24.6110 C.3   131  ASP131      0.1410
     51  CG        24.2950    7.4870  -24.0220 C.2   131  ASP131      0.3668
     52  OD1       23.6380    6.6990  -23.3060 O.co2 131  ASP131     -0.2456
     53  OD2       23.9150    8.6490  -24.2800 O.co2 131  ASP131     -0.2456
     54  N         27.3280    1.3380  -24.9690 N.3   134  SER134     -0.1202
     55  CA        26.2540    0.8570  -25.8330 C.3   134  SER134      0.2020
     56  C         26.5360    1.1730  -27.2990 C.2   134  SER134      0.2619
     57  O         26.3720    0.3090  -28.1680 O.2   134  SER134     -0.2717
     58  CB        24.9150    1.4540  -25.4010 C.3   134  SER134      0.2103
     59  OG        24.9230    2.8670  -25.5190 O.3   134  SER134     -0.2182
     60  N         26.9630    2.4030  -27.6000 N.am  135  THR135     -0.1952
     61  CA        27.2420    2.7360  -28.9930 C.3   135  THR135      0.1897
     62  C         28.3990    1.9050  -29.5310 C.2   135  THR135      0.2313
     63  O         28.3460    1.4190  -30.6660 O.2   135  THR135     -0.2863
     64  CB        27.5340    4.2290  -29.1500 C.3   135  THR135      0.1794
     65  OG1       28.8460    4.5190  -28.6560 O.3   135  THR135     -0.2208
     66  CG2       26.5130    5.0570  -28.3870 C.3   135  THR135      0.0378
     67  N         27.1710   -1.3310  -30.5040 N.3   138  LYS138     -0.1245
     68  CA        26.3840   -1.2930  -31.7310 C.3   138  LYS138      0.1561
     69  C         27.2370   -1.0130  -32.9600 C.2   138  LYS138      0.2260
     70  O         26.8480   -1.3970  -34.0680 O.2   138  LYS138     -0.2867
     71  CB        25.2660   -0.2540  -31.6210 C.3   138  LYS138      0.0271
     72  CG        24.2630   -0.3370  -32.7550 C.3   138  LYS138      0.0035
     73  CD        22.9090    0.2250  -32.3660 C.3   138  LYS138      0.0206
     74  CE        21.8890   -0.0270  -33.4680 C.3   138  LYS138      0.1093
     75  NZ        20.4950    0.2830  -33.0460 N.3   138  LYS138     -0.1314
     76  N         27.2030   -3.9350  -35.9200 N.3   142  GLU142     -0.1245
     77  CA        26.9980   -3.5240  -37.3050 C.3   142  GLU142      0.1567
     78  C         28.2110   -3.8530  -38.1660 C.2   142  GLU142      0.2260
     79  O         28.0650   -4.1430  -39.3590 O.2   142  GLU142     -0.2867
     80  CB        26.6850   -2.0280  -37.3660 C.3   142  GLU142      0.0388
     81  CG        26.2910   -1.5240  -38.7460 C.3   142  GLU142      0.1160
     82  CD        24.9130   -1.9970  -39.1700 C.2   142  GLU142      0.3649
     83  OE1       24.1040   -2.3320  -38.2730 O.co2 142  GLU142     -0.2457
     84  OE2       24.6460   -2.0340  -40.3970 O.co2 142  GLU142     -0.2457
@<TRIPOS>BOND
     1     1     2    1
     2     2     5    1
     3     2     3    1
     4     5     6    1
     5     3     4    2
     6     6     7    1
     7     7     8    1
     8    10    11    1
     9     8     9    1
    10    16    15    2
    11    11    14    1
    12    11    12    1
    13    17    15   am
    14    15    14    1
    15    25    23    1
    16    23    22    1
    17    12    13    2
    18    18    19    1
    19    84    82   ar
    20    19    22    1
    21    19    20    1
    22    22    24    1
    23    79    78    2
    24    82    81    1
    25    82    83   ar
    26    81    80    1
    27    20    26   am
    28    20    21    2
    29    26    27    1
    30    78    77    1
    31    80    77    1
    32    77    76    1
    33    30    27    1
    34    30    31    1
    35    27    28    1
    36    28    29    2
    37    33    31    1
    38    31    32    1
    39    34    35    1
    40    70    69    2
    41    35    38    1
    42    35    36    1
    43    38    39    1
    44    74    75    1
    45    74    73    1
    46    36    37    2
    47    69    68    1
    48    72    73    1
    49    72    71    1
    50    39    41   ar
    51    39    40   ar
    52    68    71    1
    53    68    67    1
    54    41    43   ar
    55    40    42   ar
    56    63    62    2
    57    43    44   ar
    58    42    44   ar
    59    62    61    1
    60    44    45    1
    61    64    61    1
    62    64    65    1
    63    64    66    1
    64    61    60    1
    65    57    56    2
    66    60    56   am
    67    56    55    1
    68    55    58    1
    69    55    54    1
    70    49    48    2
    71    59    58    1
    72    50    51    1
    73    50    47    1
    74    48    47    1
    75    53    51   ar
    76    51    52   ar
    77    47    46    1
