@<TRIPOS>MOLECULE
tmp/5u51B00.pdb
 131 126 0 0 0
SMALL
GASTEIGER

@<TRIPOS>ATOM
      1  N          3.3420   -2.8130    0.6430 N.3    12  ASP12      -0.1239
      2  CA         3.3700   -1.4300    0.1710 C.3    12  ASP12       0.1674
      3  C          1.9280   -0.9990   -0.0680 C.2    12  ASP12       0.2266
      4  O          1.2370   -1.5700   -0.9170 O.2    12  ASP12      -0.2867
      5  CB         4.2180   -1.3090   -1.0970 C.3    12  ASP12       0.1410
      6  CG         3.9780   -0.0060   -1.8550 C.2    12  ASP12       0.3668
      7  OD1        4.4320    1.0610   -1.3820 O.co2  12  ASP12      -0.2456
      8  OD2        3.3600   -0.0550   -2.9440 O.co2  12  ASP12      -0.2456
      9  N          0.6370    1.5430   -1.4500 N.3    14  TYR14      -0.1241
     10  CA         0.3680    2.0180   -2.8030 C.3    14  TYR14       0.1605
     11  C          0.0870    0.8560   -3.7470 C.2    14  TYR14       0.2264
     12  O         -0.8850    0.8830   -4.5130 O.2    14  TYR14      -0.2867
     13  CB         1.5430    2.8500   -3.3160 C.3    14  TYR14       0.0534
     14  CG         1.6710    4.2200   -2.6900 C.ar   14  TYR14      -0.0201
     15  CD1        0.7950    5.2460   -3.0250 C.ar   14  TYR14      -0.0009
     16  CD2        2.6850    4.4940   -1.7840 C.ar   14  TYR14      -0.0009
     17  CE1        0.9210    6.5030   -2.4620 C.ar   14  TYR14       0.0417
     18  CE2        2.8180    5.7450   -1.2160 C.ar   14  TYR14       0.0417
     19  CZ         1.9370    6.7460   -1.5560 C.ar   14  TYR14       0.1957
     20  OH         2.0780    7.9920   -0.9870 O.3    14  TYR14      -0.2866
     21  N         10.4490    3.9780   -9.0880 N.3    54  ASN54      -0.1225
     22  CA         9.2420    4.3080   -8.3430 C.3    54  ASN54       0.1785
     23  C          8.3610    3.0800   -8.1450 C.2    54  ASN54       0.2597
     24  O          8.2210    2.2410   -9.0400 O.2    54  ASN54      -0.2718
     25  CB         8.4700    5.4080   -9.0770 C.3    54  ASN54       0.1169
     26  CG         9.3180    6.6400   -9.3310 C.2    54  ASN54       0.2627
     27  OD1       10.2830    6.5940  -10.0890 O.2    54  ASN54      -0.2716
     28  ND2        8.9590    7.7500   -8.6990 N.am   54  ASN54      -0.0877
     29  N          7.7670    2.9840   -6.9580 N.am   55  ILE55      -0.1966
     30  CA         6.8800    1.8800   -6.6100 C.3    55  ILE55       0.1712
     31  C          5.5540    2.4380   -6.1200 C.2    55  ILE55       0.2458
     32  O          5.5310    3.2630   -5.2110 O.2    55  ILE55      -0.2730
     33  CB         7.5100    0.9630   -5.5390 C.3    55  ILE55       0.0289
     34  CG1        8.7790    0.2940   -6.0680 C.3    55  ILE55       0.0022
     35  CG2        6.5060   -0.0810   -5.0790 C.3    55  ILE55       0.0023
     36  CD1        8.5290   -0.6850   -7.2070 C.3    55  ILE55       0.0001
     37  N          4.4400    1.9980   -6.7250 N.am   56  PRO56      -0.2727
     38  CA         4.4100    1.0860   -7.8710 C.3    56  PRO56       0.1402
     39  C          4.5410    1.8130   -9.2070 C.2    56  PRO56       0.2269
     40  O          4.5370    3.0450   -9.2390 O.2    56  PRO56      -0.2865
     41  CB         3.0380    0.4270   -7.7470 C.3    56  PRO56       0.0296
     42  CG         2.1890    1.4820   -7.1250 C.3    56  PRO56       0.0237
     43  CD         3.0880    2.2660   -6.2000 C.3    56  PRO56       0.0939
     44  N          4.1310    6.4870  -12.9180 N.3    66  TYR66      -0.1227
     45  CA         4.5190    6.0490  -11.5840 C.3    66  TYR66       0.1736
     46  C          3.8370    6.7330  -10.4020 C.2    66  TYR66       0.2595
     47  O          3.9360    6.1990   -9.2910 O.2    66  TYR66      -0.2718
     48  CB         6.0400    6.1690  -11.3840 C.3    66  TYR66       0.0548
     49  CG         6.7760    7.3210  -12.0440 C.ar   66  TYR66      -0.0200
     50  CD1        7.0100    8.5140  -11.3590 C.ar   66  TYR66      -0.0009
     51  CD2        7.3160    7.1790  -13.3200 C.ar   66  TYR66      -0.0009
     52  CE1        7.7200    9.5460  -11.9460 C.ar   66  TYR66       0.0417
     53  CE2        8.0240    8.2030  -13.9110 C.ar   66  TYR66       0.0417
     54  CZ         8.2200    9.3810  -13.2190 C.ar   66  TYR66       0.1957
     55  OH         8.9230   10.4010  -13.8090 O.3    66  TYR66      -0.2866
     56  N          3.1700    7.8730  -10.5680 N.am   67  ARG67      -0.1966
     57  CA         2.4960    8.4440   -9.4030 C.3    67  ARG67       0.1729
     58  C          1.1090    7.8340   -9.2260 C.2    67  ARG67       0.2616
     59  O          0.4780    7.3920  -10.1840 O.2    67  ARG67      -0.2715
     60  CB         2.3950    9.9650   -9.5120 C.3    67  ARG67       0.0348
     61  CG         3.7400   10.6620   -9.4890 C.3    67  ARG67       0.0492
     62  CD         3.6190   12.1330   -9.8100 C.3    67  ARG67       0.2205
     63  NE         4.4380   12.9310   -8.9030 N.pl3  67  ARG67      -0.0865
     64  CZ         3.9520   13.5380   -7.8300 C.cat  67  ARG67       0.5346
     65  NH1        2.6590   13.4260   -7.5500 N.pl3  67  ARG67       0.1354
     66  NH2        4.7470   14.2520   -7.0440 N.pl3  67  ARG67       0.1354
     67  N          0.6390    7.8030   -7.9770 N.am   68  LEU68      -0.1963
     68  CA        -0.6530    7.1840   -7.6840 C.3    68  LEU68       0.1728
     69  C         -1.7880    7.9310   -8.3710 C.2    68  LEU68       0.2616
     70  O         -2.6510    7.3210   -9.0090 O.2    68  LEU68      -0.2715
     71  CB        -0.8820    7.1270   -6.1690 C.3    68  LEU68       0.0311
     72  CG        -1.8300    6.0610   -5.6180 C.3    68  LEU68       0.0022
     73  CD1       -2.8050    6.6780   -4.6330 C.3    68  LEU68       0.0001
     74  CD2       -2.5800    5.3790   -6.7410 C.3    68  LEU68       0.0001
     75  N         -1.8230    9.2570   -8.2300 N.am   69  SER69      -0.1950
     76  CA        -2.8530   10.0400   -8.9090 C.3    69  SER69       0.1924
     77  C         -2.7920    9.8520  -10.4210 C.2    69  SER69       0.2314
     78  O         -3.8280    9.8930  -11.0960 O.2    69  SER69      -0.2863
     79  CB        -2.7200   11.5260   -8.5530 C.3    69  SER69       0.2116
     80  OG        -1.5590   12.0940   -9.1290 O.3    69  SER69      -0.2180
     81  N         -8.1750   13.0020   -2.6520 N.3    99  LEU99      -0.1231
     82  CA        -7.1150   12.0200   -2.8610 C.3    99  LEU99       0.1693
     83  C         -5.7570   12.6080   -2.5030 C.2    99  LEU99       0.2591
     84  O         -4.9240   11.9390   -1.8810 O.2    99  LEU99      -0.2718
     85  CB        -7.1270   11.5310   -4.3100 C.3    99  LEU99       0.0284
     86  CG        -6.3440   10.2660   -4.6810 C.3    99  LEU99       0.0019
     87  CD1       -6.6040    9.8820   -6.1290 C.3    99  LEU99       0.0001
     88  CD2       -4.8490   10.4140   -4.4430 C.3    99  LEU99       0.0001
     89  N         -5.5170   13.8620   -2.8850 N.am  100  GLU100     -0.1979
     90  CA        -4.2620   14.5090   -2.5250 C.3   100  GLU100      0.1602
     91  C         -4.1020   14.6000   -1.0110 C.2   100  GLU100      0.2287
     92  O         -3.0100   14.3640   -0.4810 O.2   100  GLU100     -0.2864
     93  CB        -4.1880   15.8970   -3.1620 C.3   100  GLU100      0.0415
     94  CG        -2.9160   16.6590   -2.8400 C.3   100  GLU100      0.1163
     95  CD        -2.9430   18.0830   -3.3560 C.2   100  GLU100      0.3649
     96  OE1       -3.9920   18.5040   -3.8900 O.co2 100  GLU100     -0.2457
     97  OE2       -1.9140   18.7800   -3.2280 O.co2 100  GLU100     -0.2457
     98  N         -3.3260   11.2310    0.4810 N.3   103  ASN103     -0.1225
     99  CA        -1.9900   10.7650    0.1280 C.3   103  ASN103      0.1785
    100  C         -0.9230   11.4450    0.9780 C.2   103  ASN103      0.2597
    101  O          0.0130   10.7880    1.4490 O.2   103  ASN103     -0.2718
    102  CB        -1.7210   11.0030   -1.3560 C.3   103  ASN103      0.1169
    103  CG        -0.3420   10.5400   -1.7780 C.2   103  ASN103      0.2627
    104  OD1        0.0560    9.4100   -1.5010 O.2   103  ASN103     -0.2716
    105  ND2        0.4030   11.4200   -2.4340 N.am  103  ASN103     -0.0877
    106  N         -1.0460   12.7580    1.1900 N.am  104  LYS104     -0.1980
    107  CA        -0.0240   13.4840    1.9370 C.3   104  LYS104      0.1596
    108  C         -0.1630   13.2930    3.4420 C.2   104  LYS104      0.2287
    109  O          0.8470   13.2920    4.1520 O.2   104  LYS104     -0.2864
    110  CB        -0.0690   14.9750    1.5870 C.3   104  LYS104      0.0298
    111  CG         0.2580   15.2660    0.1320 C.3   104  LYS104      0.0038
    112  CD         0.3500   16.7500   -0.1440 C.3   104  LYS104      0.0206
    113  CE         0.7460   16.9950   -1.5930 C.3   104  LYS104      0.1093
    114  NZ         0.9560   18.4360   -1.9010 N.3   104  LYS104     -0.1314
    115  N          1.6690    8.9560    2.6130 N.3   108  GLN108     -0.1245
    116  CA         3.0780    9.3300    2.7030 C.3   108  GLN108      0.1566
    117  C          3.6570    9.0290    4.0780 C.2   108  GLN108      0.2260
    118  O          4.8360    8.6730    4.1860 O.2   108  GLN108     -0.2867
    119  CB         3.2550   10.8120    2.3740 C.3   108  GLN108      0.0367
    120  CG         3.4730   11.1010    0.9060 C.3   108  GLN108      0.0905
    121  CD         4.8170   10.6040    0.4080 C.2   108  GLN108      0.2608
    122  OE1        4.9130    9.5260   -0.1810 O.2   108  GLN108     -0.2717
    123  NE2        5.8640   11.3940    0.6370 N.am  108  GLN108     -0.0878
    124  N          4.3650    5.3160    4.8300 N.3   111  ILE111     -0.1245
    125  CA         5.6310    4.8950    4.2400 C.3   111  ILE111      0.1561
    126  C          6.8120    5.3800    5.0770 C.2   111  ILE111      0.2260
    127  O          7.8500    4.7090    5.1360 O.2   111  ILE111     -0.2867
    128  CB         5.7240    5.3890    2.7830 C.3   111  ILE111      0.0252
    129  CG1        4.7430    4.6220    1.8870 C.3   111  ILE111      0.0019
    130  CG2        7.1450    5.2670    2.2510 C.3   111  ILE111      0.0019
    131  CD1        5.0030    3.1290    1.8110 C.3   111  ILE111      0.0001
@<TRIPOS>BOND
     1    53    51   ar
     2    53    54   ar
     3    55    54    1
     4    51    49   ar
     5    54    52   ar
     6    44    45    1
     7    49    48    1
     8    49    50   ar
     9    52    50   ar
    10    45    48    1
    11    45    46    1
    12    78    77    2
    13    56    46   am
    14    56    57    1
    15    77    76    1
    16    46    47    2
    17    59    58    2
    18    27    26    2
    19    62    61    1
    20    62    63    1
    21    60    61    1
    22    60    57    1
    23    57    58    1
    24    26    25    1
    25    26    28   am
    26    40    39    2
    27    58    67   am
    28    39    38    1
    29    80    79    1
    30    21    22    1
    31    25    22    1
    32    24    23    2
    33    70    69    2
    34    76    79    1
    35    76    75    1
    36    63    64    2
    37    69    75   am
    38    69    68    1
    39    22    23    1
    40    23    29   am
    41    67    68    1
    42    38    41    1
    43    38    37    1
    44    64    65    1
    45    64    66    1
    46    41    42    1
    47    68    71    1
    48    36    34    1
    49    42    43    1
    50    29    30    1
    51    74    72    1
    52    37    43    1
    53    37    31   am
    54    30    31    1
    55    30    33    1
    56    71    72    1
    57    87    86    1
    58    31    32    2
    59    34    33    1
    60    72    73    1
    61    33    35    1
    62    86    88    1
    63    86    85    1
    64    12    11    2
    65    85    82    1
    66    96    95   ar
    67    11    10    1
    68    95    97   ar
    69    95    94    1
    70    13    10    1
    71    13    14    1
    72    93    94    1
    73    93    90    1
    74    15    14   ar
    75    15    17   ar
    76     8     6   ar
    77    89    90    1
    78    89    83   am
    79    82    81    1
    80    82    83    1
    81    10     9    1
    82    14    16   ar
    83    90    91    1
    84    83    84    2
    85    17    19   ar
    86   105   103   am
    87   114   113    1
    88     6     7   ar
    89     6     5    1
    90    16    18   ar
    91   103   104    2
    92   103   102    1
    93   113   112    1
    94    19    18   ar
    95    19    20    1
    96   102    99    1
    97     5     2    1
    98    91    92    2
    99     4     3    2
   100   122   121    2
   101   112   111    1
   102     3     2    1
   103    99    98    1
   104    99   100    1
   105   111   110    1
   106     2     1    1
   107   121   123   am
   108   121   120    1
   109   120   119    1
   110   100   106   am
   111   100   101    2
   112   106   107    1
   113   110   107    1
   114   131   129    1
   115   129   128    1
   116   107   108    1
   117   130   128    1
   118   119   116    1
   119   115   116    1
   120   116   117    1
   121   128   125    1
   122   108   109    2
   123   117   118    2
   124   125   124    1
   125   125   126    1
   126   126   127    2
