@<TRIPOS>MOLECULE
tmp/5u56A00.pdb
 145 137 0 0 0
SMALL
GASTEIGER

@<TRIPOS>ATOM
      1  N          1.1010   -9.3570  -18.6530 N.3    89  LYS89      -0.1245
      2  CA        -0.2930   -9.7820  -18.5800 C.3    89  LYS89       0.1561
      3  C         -0.4170  -11.2880  -18.3830 C.2    89  LYS89       0.2260
      4  O         -1.4000  -11.7530  -17.7950 O.2    89  LYS89      -0.2867
      5  CB        -1.0480   -9.3450  -19.8340 C.3    89  LYS89       0.0271
      6  CG        -1.3500   -7.8530  -19.8860 C.3    89  LYS89       0.0035
      7  CD        -2.2960   -7.5010  -21.0270 C.3    89  LYS89       0.0206
      8  CE        -1.5520   -7.2210  -22.3270 C.3    89  LYS89       0.1093
      9  NZ        -0.8790   -8.4220  -22.8970 N.3    89  LYS89      -0.1314
     10  N          0.0090  -11.8830  -14.6450 N.3    92  LEU92      -0.1231
     11  CA        -1.2280  -11.5850  -13.9300 C.3    92  LEU92       0.1693
     12  C         -2.2680  -12.6740  -14.1560 C.2    92  LEU92       0.2592
     13  O         -3.0200  -13.0220  -13.2380 O.2    92  LEU92      -0.2718
     14  CB        -1.7760  -10.2260  -14.3640 C.3    92  LEU92       0.0284
     15  CG        -3.1230   -9.8280  -13.7540 C.3    92  LEU92       0.0019
     16  CD1       -2.9790   -9.5250  -12.2700 C.3    92  LEU92       0.0001
     17  CD2       -3.7340   -8.6490  -14.4940 C.3    92  LEU92       0.0001
     18  N         -2.3260  -13.2230  -15.3720 N.am   93  SER93      -0.1952
     19  CA        -3.2620  -14.3070  -15.6510 C.3    93  SER93       0.1924
     20  C         -2.9380  -15.5390  -14.8180 C.2    93  SER93       0.2314
     21  O         -3.8440  -16.2070  -14.3060 O.2    93  SER93      -0.2863
     22  CB        -3.2430  -14.6460  -17.1410 C.3    93  SER93       0.2116
     23  OG        -3.5340  -13.5040  -17.9290 O.3    93  SER93      -0.2180
     24  N         -4.2720  -14.9990  -11.4660 N.3    96  LYS96      -0.1231
     25  CA        -5.7270  -15.1090  -11.4680 C.3    96  LYS96       0.1693
     26  C         -6.1860  -16.5550  -11.6030 C.2    96  LYS96       0.2591
     27  O         -7.2190  -16.9300  -11.0380 O.2    96  LYS96      -0.2718
     28  CB        -6.3200  -14.2590  -12.5910 C.3    96  LYS96       0.0285
     29  CG        -6.5970  -12.8210  -12.1950 C.3    96  LYS96       0.0035
     30  CD        -7.1560  -12.0210  -13.3590 C.3    96  LYS96       0.0206
     31  CE        -8.1130  -10.9510  -12.8670 C.3    96  LYS96       0.1093
     32  NZ        -8.3710   -9.9030  -13.8930 N.3    96  LYS96      -0.1314
     33  N         -5.4430  -17.3780  -12.3450 N.am   97  ILE97      -0.1980
     34  CA        -5.8250  -18.7780  -12.4960 C.3    97  ILE97       0.1595
     35  C         -5.5830  -19.5410  -11.1990 C.2    97  ILE97       0.2287
     36  O         -6.4050  -20.3700  -10.7870 O.2    97  ILE97      -0.2864
     37  CB        -5.0720  -19.4110  -13.6810 C.3    97  ILE97       0.0276
     38  CG1       -5.5540  -18.8060  -15.0010 C.3    97  ILE97       0.0022
     39  CG2       -5.2450  -20.9240  -13.6870 C.3    97  ILE97       0.0022
     40  CD1       -4.8300  -19.3360  -16.2200 C.3    97  ILE97       0.0001
     41  N         -9.5340  -19.6170  -10.0460 N.3   101  TRP101     -0.1241
     42  CA       -10.0820  -20.7160  -10.8330 C.3   101  TRP101      0.1605
     43  C         -9.7120  -22.0890  -10.2990 C.2   101  TRP101      0.2264
     44  O        -10.5520  -22.9910  -10.3050 O.2   101  TRP101     -0.2867
     45  CB        -9.6300  -20.5870  -12.2930 C.3   101  TRP101      0.0550
     46  CG       -10.2470  -19.4100  -12.9760 C.ar  101  TRP101      0.0003
     47  CD1       -9.8360  -18.1110  -12.9040 C.ar  101  TRP101      0.0946
     48  CD2      -11.4010  -19.4190  -13.8230 C.ar  101  TRP101      0.0152
     49  NE1      -10.6590  -17.3110  -13.6600 N.ar  101  TRP101     -0.2442
     50  CE2      -11.6280  -18.0910  -14.2350 C.ar  101  TRP101      0.0810
     51  CE3      -12.2620  -20.4230  -14.2780 C.ar  101  TRP101      0.0012
     52  CZ2      -12.6790  -17.7410  -15.0800 C.ar  101  TRP101      0.0191
     53  CZ3      -13.3040  -20.0740  -15.1160 C.ar  101  TRP101      0.0001
     54  CH2      -13.5040  -18.7440  -15.5080 C.ar  101  TRP101      0.0015
     55  N        -17.1740  -19.3220  -17.7290 N.3   129  LEU129     -0.1245
     56  CA       -16.4280  -19.5360  -18.9650 C.3   129  LEU129      0.1561
     57  C        -17.0800  -18.8080  -20.1340 C.2   129  LEU129      0.2260
     58  O        -16.4070  -18.0890  -20.8820 O.2   129  LEU129     -0.2867
     59  CB       -16.3120  -21.0340  -19.2530 C.3   129  LEU129      0.0270
     60  CG       -15.3170  -21.8120  -18.3880 C.3   129  LEU129      0.0019
     61  CD1      -15.4860  -23.3100  -18.5830 C.3   129  LEU129      0.0001
     62  CD2      -13.8920  -21.3930  -18.7090 C.3   129  LEU129      0.0001
     63  N        -16.3100  -14.9910  -20.5690 N.3   132  MET132     -0.1245
     64  CA       -15.0330  -14.6020  -21.1640 C.3   132  MET132      0.1570
     65  C        -14.7290  -15.3920  -22.4290 C.2   132  MET132      0.2261
     66  O        -13.5730  -15.7320  -22.6980 O.2   132  MET132     -0.2867
     67  CB       -13.9030  -14.7540  -20.1510 C.3   132  MET132      0.0387
     68  CG       -13.8180  -16.1220  -19.4980 C.3   132  MET132      0.0595
     69  SD       -12.2900  -16.3160  -18.5620 S.3   132  MET132     -0.1393
     70  CE       -12.2060  -14.7330  -17.7250 C.3   132  MET132      0.0692
     71  N        -12.3360  -13.4490  -24.8800 N.3   135  ALA135     -0.1231
     72  CA       -10.9020  -13.4060  -24.6240 C.3   135  ALA135      0.1694
     73  C        -10.1490  -14.5500  -25.2870 C.2   135  ALA135      0.2592
     74  O         -8.9140  -14.5170  -25.3190 O.2   135  ALA135     -0.2718
     75  CB       -10.6380  -13.4180  -23.1180 C.3   135  ALA135      0.0304
     76  N        -10.8530  -15.5500  -25.8120 N.am  136  PHE136     -0.1976
     77  CA       -10.2320  -16.6940  -26.4650 C.3   136  PHE136      0.1639
     78  C        -10.2950  -16.6080  -27.9840 C.2   136  PHE136      0.2290
     79  O         -9.9830  -17.5920  -28.6640 O.2   136  PHE136     -0.2864
     80  CB       -10.8880  -17.9920  -25.9890 C.3   136  PHE136      0.0560
     81  CG       -10.5770  -18.3410  -24.5620 C.ar  136  PHE136     -0.0200
     82  CD1      -11.2740  -17.7520  -23.5200 C.ar  136  PHE136     -0.0042
     83  CD2       -9.5900  -19.2650  -24.2620 C.ar  136  PHE136     -0.0042
     84  CE1      -10.9900  -18.0740  -22.2070 C.ar  136  PHE136     -0.0003
     85  CE2       -9.3010  -19.5910  -22.9520 C.ar  136  PHE136     -0.0003
     86  CZ       -10.0020  -18.9950  -21.9230 C.ar  136  PHE136     -0.0000
     87  N         -3.4110  -19.1330  -25.3360 N.3   142  PHE142     -0.1227
     88  CA        -4.0390  -18.1830  -24.4190 C.3   142  PHE142      0.1736
     89  C         -3.3720  -16.8160  -24.5320 C.2   142  PHE142      0.2595
     90  O         -2.2250  -16.6390  -24.1100 O.2   142  PHE142     -0.2718
     91  CB        -3.9750  -18.7060  -22.9880 C.3   142  PHE142      0.0547
     92  CG        -4.7330  -17.8610  -22.0060 C.ar  142  PHE142     -0.0202
     93  CD1       -6.1170  -17.8240  -22.0320 C.ar  142  PHE142     -0.0042
     94  CD2       -4.0650  -17.1010  -21.0620 C.ar  142  PHE142     -0.0042
     95  CE1       -6.8200  -17.0450  -21.1350 C.ar  142  PHE142     -0.0003
     96  CE2       -4.7630  -16.3210  -20.1610 C.ar  142  PHE142     -0.0003
     97  CZ        -6.1420  -16.2930  -20.1990 C.ar  142  PHE142     -0.0000
     98  N         -4.1050  -15.8570  -25.1080 N.am  143  ILE143     -0.1980
     99  CA        -3.7310  -14.4490  -25.2830 C.3   143  ILE143      0.1595
    100  C         -2.2670  -14.2530  -25.6670 C.2   143  ILE143      0.2287
    101  O         -1.6810  -13.1990  -25.3940 O.2   143  ILE143     -0.2864
    102  CB        -4.0820  -13.6190  -24.0270 C.3   143  ILE143      0.0276
    103  CG1       -3.1970  -13.9800  -22.8290 C.3   143  ILE143      0.0022
    104  CG2       -5.5500  -13.7920  -23.6680 C.3   143  ILE143      0.0022
    105  CD1       -3.3800  -13.0570  -21.6380 C.3   143  ILE143      0.0001
    106  N         -3.9550  -24.0750  -17.6660 N.3   154  ILE154     -0.1245
    107  CA        -5.3210  -24.3070  -18.1230 C.3   154  ILE154      0.1561
    108  C         -5.5180  -25.7630  -18.5260 C.2   154  ILE154      0.2260
    109  O         -6.5720  -26.3540  -18.2630 O.2   154  ILE154     -0.2867
    110  CB        -5.6600  -23.3410  -19.2740 C.3   154  ILE154      0.0252
    111  CG1       -5.6230  -21.8940  -18.7740 C.3   154  ILE154      0.0019
    112  CG2       -7.0210  -23.6630  -19.8720 C.3   154  ILE154      0.0019
    113  CD1       -5.6940  -20.8620  -19.8750 C.3   154  ILE154      0.0001
    114  N         -5.9630  -27.8950  -15.5560 N.3   157  LEU157     -0.1231
    115  CA        -7.2530  -27.5860  -14.9530 C.3   157  LEU157      0.1693
    116  C         -8.3940  -28.2350  -15.7280 C.2   157  LEU157      0.2591
    117  O         -9.3690  -28.7040  -15.1300 O.2   157  LEU157     -0.2718
    118  CB        -7.4400  -26.0710  -14.8720 C.3   157  LEU157      0.0284
    119  CG        -8.7280  -25.5650  -14.2230 C.3   157  LEU157      0.0019
    120  CD1       -8.9060  -26.1680  -12.8380 C.3   157  LEU157      0.0001
    121  CD2       -8.7220  -24.0470  -14.1510 C.3   157  LEU157      0.0001
    122  N         -8.2860  -28.2840  -17.0580 N.am  158  ILE158     -0.1980
    123  CA        -9.3320  -28.9040  -17.8660 C.3   158  ILE158      0.1595
    124  C         -9.3060  -30.4200  -17.7040 C.2   158  ILE158      0.2287
    125  O        -10.3570  -31.0650  -17.6120 O.2   158  ILE158     -0.2864
    126  CB        -9.1860  -28.4860  -19.3400 C.3   158  ILE158      0.0276
    127  CG1       -9.4800  -26.9940  -19.5030 C.3   158  ILE158      0.0022
    128  CG2      -10.1030  -29.3110  -20.2310 C.3   158  ILE158      0.0022
    129  CD1       -9.2640  -26.4780  -20.9090 C.3   158  ILE158      0.0001
    130  N        -10.8990  -31.0900  -14.3600 N.3   161  LEU161     -0.1245
    131  CA       -12.3260  -30.8020  -14.4160 C.3   161  LEU161      0.1561
    132  C        -13.0570  -31.8570  -15.2260 C.2   161  LEU161      0.2260
    133  O        -14.1920  -32.2230  -14.8960 O.2   161  LEU161     -0.2867
    134  CB       -12.5600  -29.4000  -14.9870 C.3   161  LEU161      0.0270
    135  CG       -12.3370  -28.1770  -14.0720 C.3   161  LEU161      0.0019
    136  CD1      -12.4730  -26.8400  -14.8050 C.3   161  LEU161      0.0001
    137  CD2      -13.3050  -28.2260  -12.8990 C.3   161  LEU161      0.0001
    138  N        -13.5000  -21.0260  -26.7850 N.3   175  ILE175     -0.1245
    139  CA       -12.9150  -21.8020  -25.6950 C.3   175  ILE175      0.1561
    140  C        -12.7840  -23.2640  -26.0970 C.2   175  ILE175      0.2260
    141  O        -11.7590  -23.9070  -25.8370 O.2   175  ILE175     -0.2867
    142  CB       -13.7610  -21.6420  -24.4180 C.3   175  ILE175      0.0252
    143  CG1      -13.8180  -20.1750  -23.9970 C.3   175  ILE175      0.0019
    144  CG2      -13.2090  -22.5110  -23.2970 C.3   175  ILE175      0.0019
    145  CD1      -14.8210  -19.9030  -22.9100 C.3   175  ILE175      0.0001
@<TRIPOS>BOND
     1    79    78    2
     2    78    77    1
     3   138   139    1
     4    77    80    1
     5    77    76    1
     6   140   141    2
     7   140   139    1
     8    80    81    1
     9    76    73   am
    10   139   142    1
    11   100   101    2
    12   100    99    1
    13    87    88    1
    14    74    73    2
    15    73    72    1
    16    99    98    1
    17    99   102    1
    18    98    89   am
    19    71    72    1
    20    72    75    1
    21    81    83   ar
    22    81    82   ar
    23    89    88    1
    24    89    90    2
    25    88    91    1
    26   142   143    1
    27   142   144    1
    28    83    85   ar
    29   102   104    1
    30   102   103    1
    31   143   145    1
    32    82    84   ar
    33    91    92    1
    34    85    86   ar
    35     9     8    1
    36   103   105    1
    37    66    65    2
    38    65    64    1
    39     8     7    1
    40    84    86   ar
    41    93    92   ar
    42    93    95   ar
    43    92    94   ar
    44    64    63    1
    45    64    67    1
    46    95    97   ar
    47    94    96   ar
    48     7     6    1
    49   129   127    1
    50    58    57    2
    51   128   126    1
    52    97    96   ar
    53    67    68    1
    54    57    56    1
    55     6     5    1
    56   113   111    1
    57   112   110    1
    58     5     2    1
    59   127   126    1
    60    68    69    1
    61   126   123    1
    62   110   111    1
    63   110   107    1
    64    59    56    1
    65    59    60    1
    66    56    55    1
    67    62    60    1
    68     1     2    1
    69    61    60    1
    70     2     3    1
    71    69    70    1
    72   108   109    2
    73   108   107    1
    74     3     4    2
    75   107   106    1
    76    23    22    1
    77   123   124    1
    78   123   122    1
    79   124   125    2
    80    22    19    1
    81   122   116   am
    82    40    38    1
    83   116   117    2
    84   116   115    1
    85    19    18    1
    86    19    20    1
    87   114   115    1
    88    54    53   ar
    89    54    52   ar
    90    18    12   am
    91   132   133    2
    92   132   131    1
    93    53    51   ar
    94    52    50   ar
    95    38    37    1
    96   134   131    1
    97   134   135    1
    98   115   118    1
    99   118   119    1
   100    20    21    2
   101   136   135    1
   102    10    11    1
   103    17    15    1
   104   131   130    1
   105    14    11    1
   106    14    15    1
   107    51    48   ar
   108    50    48   ar
   109    50    49   ar
   110   119   121    1
   111   119   120    1
   112    12    11    1
   113    12    13    2
   114   135   137    1
   115    32    31    1
   116    48    46   ar
   117    15    16    1
   118    39    37    1
   119    37    34    1
   120    49    47   ar
   121    30    31    1
   122    30    29    1
   123    46    47   ar
   124    46    45    1
   125    28    29    1
   126    28    25    1
   127    34    33    1
   128    34    35    1
   129    33    26   am
   130    45    42    1
   131    26    25    1
   132    26    27    2
   133    25    24    1
   134    35    36    2
   135    42    43    1
   136    42    41    1
   137    44    43    2
