@<TRIPOS>MOLECULE
tmp/5u58A00.pdb
 127 118 0 0 0
SMALL
GASTEIGER

@<TRIPOS>ATOM
      1  N        -14.9290  -38.9180   16.1740 N.3    87  ARG87      -0.1245
      2  CA       -13.7370  -38.2260   15.6920 C.3    87  ARG87       0.1563
      3  C        -12.5950  -39.1650   15.3070 C.2    87  ARG87       0.2260
      4  O        -12.0270  -39.0430   14.2190 O.2    87  ARG87      -0.2867
      5  CB       -13.2660  -37.2180   16.7420 C.3    87  ARG87       0.0307
      6  CG       -14.2390  -36.0610   16.9110 C.3    87  ARG87       0.0489
      7  CD       -13.7170  -34.9640   17.8230 C.3    87  ARG87       0.2205
      8  NE       -14.5770  -33.7850   17.7570 N.pl3  87  ARG87      -0.0865
      9  CZ       -14.4430  -32.7070   18.5220 C.cat  87  ARG87       0.5346
     10  NH1      -13.4790  -32.6470   19.4320 N.pl3  87  ARG87       0.1354
     11  NH2      -15.2800  -31.6880   18.3810 N.pl3  87  ARG87       0.1354
     12  N        -19.5530  -36.6160   20.7220 N.3    93  TYR93      -0.1241
     13  CA       -20.6500  -35.6850   20.9670 C.3    93  TYR93       0.1605
     14  C        -21.9690  -36.1190   20.3400 C.2    93  TYR93       0.2264
     15  O        -22.0080  -36.9770   19.4600 O.2    93  TYR93      -0.2867
     16  CB       -20.2900  -34.2920   20.4410 C.3    93  TYR93       0.0534
     17  CG       -19.1010  -33.6480   21.1160 C.ar   93  TYR93      -0.0201
     18  CD1      -18.8520  -33.8440   22.4670 C.ar   93  TYR93      -0.0009
     19  CD2      -18.2260  -32.8400   20.3990 C.ar   93  TYR93      -0.0009
     20  CE1      -17.7650  -33.2540   23.0850 C.ar   93  TYR93       0.0417
     21  CE2      -17.1370  -32.2480   21.0090 C.ar   93  TYR93       0.0417
     22  CZ       -16.9120  -32.4580   22.3500 C.ar   93  TYR93       0.1957
     23  OH       -15.8270  -31.8670   22.9570 O.3    93  TYR93      -0.2866
     24  N        -24.6020  -33.5990   18.7840 N.3    95  TYR95      -0.1241
     25  CA       -25.0060  -32.2310   18.4940 C.3    95  TYR95       0.1605
     26  C        -26.5140  -32.1200   18.3280 C.2    95  TYR95       0.2264
     27  O        -27.1230  -32.8790   17.5750 O.2    95  TYR95      -0.2867
     28  CB       -24.3140  -31.7130   17.2290 C.3    95  TYR95       0.0534
     29  CG       -22.8180  -31.5230   17.3550 C.ar   95  TYR95      -0.0201
     30  CD1      -22.2900  -30.5110   18.1460 C.ar   95  TYR95      -0.0009
     31  CD2      -21.9360  -32.3410   16.6630 C.ar   95  TYR95      -0.0009
     32  CE1      -20.9230  -30.3300   18.2570 C.ar   95  TYR95       0.0417
     33  CE2      -20.5680  -32.1680   16.7670 C.ar   95  TYR95       0.0417
     34  CZ       -20.0670  -31.1610   17.5650 C.ar   95  TYR95       0.1957
     35  OH       -18.7050  -30.9870   17.6700 O.3    95  TYR95      -0.2866
     36  N        -25.9260  -24.9200   20.7370 N.3   110  LEU110     -0.1245
     37  CA       -26.0240  -26.3730   20.7390 C.3   110  LEU110      0.1561
     38  C        -26.2890  -26.9610   22.1210 C.2   110  LEU110      0.2260
     39  O        -25.8000  -26.4550   23.1320 O.2   110  LEU110     -0.2867
     40  CB       -24.7380  -26.9790   20.1780 C.3   110  LEU110      0.0270
     41  CG       -24.3150  -26.5520   18.7760 C.3   110  LEU110      0.0019
     42  CD1      -22.8480  -26.8690   18.5690 C.3   110  LEU110      0.0001
     43  CD2      -25.1690  -27.2560   17.7370 C.3   110  LEU110      0.0001
     44  N        -25.4470  -30.4740   23.8930 N.3   112  LEU112     -0.1245
     45  CA       -24.5960  -31.6260   23.6210 C.3   112  LEU112      0.1561
     46  C        -24.6660  -32.7040   24.6930 C.2   112  LEU112      0.2260
     47  O        -24.7700  -32.4150   25.8860 O.2   112  LEU112     -0.2867
     48  CB       -23.1380  -31.1910   23.4510 C.3   112  LEU112      0.0270
     49  CG       -22.7850  -30.2510   22.2990 C.3   112  LEU112      0.0019
     50  CD1      -22.9580  -28.8060   22.7250 C.3   112  LEU112      0.0001
     51  CD2      -21.3650  -30.5060   21.8190 C.3   112  LEU112      0.0001
     52  N        -10.2210  -30.5700   19.1840 N.3   125  ASN125     -0.1240
     53  CA       -10.4770  -29.9460   17.8930 C.3   125  ASN125      0.1653
     54  C         -9.3550  -28.9700   17.5630 C.2   125  ASN125      0.2266
     55  O         -8.4050  -28.8280   18.3320 O.2   125  ASN125     -0.2867
     56  CB       -11.8420  -29.2450   17.8760 C.3   125  ASN125      0.1155
     57  CG       -11.9860  -28.1890   18.9620 C.2   125  ASN125      0.2627
     58  OD1      -11.0610  -27.4250   19.2420 O.2   125  ASN125     -0.2716
     59  ND2      -13.1620  -28.1400   19.5770 N.am  125  ASN125     -0.0877
     60  N        -11.8870  -22.7890   16.8010 N.3   128  HIS128     -0.1241
     61  CA       -12.7290  -22.1350   15.8040 C.3   128  HIS128      0.1621
     62  C        -12.7550  -20.6240   15.9970 C.2   128  HIS128      0.2264
     63  O        -12.3720  -20.1160   17.0500 O.2   128  HIS128     -0.2867
     64  CB       -14.1510  -22.7010   15.8490 C.3   128  HIS128      0.0745
     65  CG       -14.6670  -22.9390   17.2340 C.ar  128  HIS128      0.0817
     66  ND1      -14.9600  -21.9140   18.1080 N.ar  128  HIS128     -0.2268
     67  CD2      -14.9430  -24.0870   17.8960 C.ar  128  HIS128      0.1154
     68  CE1      -15.3940  -22.4200   19.2480 C.ar  128  HIS128      0.1986
     69  NE2      -15.3920  -23.7370   19.1460 N.ar  128  HIS128     -0.2212
     70  N        -16.8900  -18.7080   22.2950 N.3   132  GLU132     -0.1245
     71  CA       -17.7690  -19.7450   22.8170 C.3   132  GLU132      0.1567
     72  C        -17.8870  -19.7160   24.3360 C.2   132  GLU132      0.2260
     73  O        -16.9180  -19.4480   25.0470 O.2   132  GLU132     -0.2867
     74  CB       -17.2840  -21.1230   22.3640 C.3   132  GLU132      0.0388
     75  CG       -18.2200  -22.2610   22.7360 C.3   132  GLU132      0.1160
     76  CD       -17.7540  -23.6000   22.2060 C.2   132  GLU132      0.3649
     77  OE1      -16.5670  -23.7170   21.8350 O.co2 132  GLU132     -0.2457
     78  OE2      -18.5800  -24.5350   22.1550 O.co2 132  GLU132     -0.2457
     79  N        -19.7340  -22.1850   27.4780 N.3   134  VAL134     -0.1245
     80  CA       -20.3610  -23.4710   27.7530 C.3   134  VAL134      0.1561
     81  C        -20.9220  -23.5240   29.1730 C.2   134  VAL134      0.2260
     82  O        -20.2780  -23.0760   30.1190 O.2   134  VAL134     -0.2867
     83  CB       -19.3610  -24.6320   27.5440 C.3   134  VAL134      0.0252
     84  CG1      -19.9750  -25.9590   27.9510 C.3   134  VAL134      0.0019
     85  CG2      -18.9040  -24.6840   26.0960 C.3   134  VAL134      0.0019
     86  N        -10.0390  -27.2600   22.1840 N.3   171  HIS171     -0.1241
     87  CA       -10.6640  -27.7250   23.4180 C.3   171  HIS171      0.1621
     88  C        -11.4190  -29.0380   23.2320 C.2   171  HIS171      0.2264
     89  O        -11.6570  -29.4770   22.1060 O.2   171  HIS171     -0.2867
     90  CB       -11.6110  -26.6550   23.9640 C.3   171  HIS171      0.0745
     91  CG       -12.5590  -26.1110   22.9410 C.ar  171  HIS171      0.0817
     92  ND1      -12.2080  -25.1140   22.0580 N.ar  171  HIS171     -0.2268
     93  CD2      -13.8460  -26.4260   22.6620 C.ar  171  HIS171      0.1154
     94  CE1      -13.2370  -24.8380   21.2770 C.ar  171  HIS171      0.1986
     95  NE2      -14.2430  -25.6210   21.6220 N.ar  171  HIS171     -0.2212
     96  N        -14.5270  -31.5920   25.5120 N.3   173  PHE173     -0.1241
     97  CA       -15.3540  -31.9000   26.6750 C.3   173  PHE173      0.1605
     98  C        -15.6780  -33.3880   26.7350 C.2   173  PHE173      0.2264
     99  O        -16.2500  -33.9470   25.8020 O.2   173  PHE173     -0.2867
    100  CB       -16.6520  -31.0900   26.6510 C.3   173  PHE173      0.0534
    101  CG       -16.4460  -29.6070   26.7560 C.ar  173  PHE173     -0.0203
    102  CD1      -16.4010  -28.9860   27.9950 C.ar  173  PHE173     -0.0042
    103  CD2      -16.3020  -28.8310   25.6160 C.ar  173  PHE173     -0.0042
    104  CE1      -16.2130  -27.6200   28.0970 C.ar  173  PHE173     -0.0003
    105  CE2      -16.1140  -27.4640   25.7120 C.ar  173  PHE173     -0.0003
    106  CZ       -16.0700  -26.8580   26.9540 C.ar  173  PHE173     -0.0000
    107  N        -24.1820  -30.6200   28.2390 N.3   184  ILE184     -0.1245
    108  CA       -23.7760  -29.2180   28.2920 C.3   184  ILE184      0.1561
    109  C        -24.5350  -28.3550   27.2850 C.2   184  ILE184      0.2260
    110  O        -25.2440  -28.8640   26.4180 O.2   184  ILE184     -0.2867
    111  CB       -22.2630  -29.0540   28.0310 C.3   184  ILE184      0.0252
    112  CG1      -21.8980  -29.5820   26.6410 C.3   184  ILE184      0.0019
    113  CG2      -21.4490  -29.7540   29.1070 C.3   184  ILE184      0.0019
    114  CD1      -20.4420  -29.3770   26.2730 C.3   184  ILE184      0.0001
    115  N        -23.6230  -25.2880   24.5750 N.3   186  ALA186     -0.1245
    116  CA       -22.5680  -24.5160   23.9310 C.3   186  ALA186      0.1562
    117  C        -23.1450  -23.4050   23.0640 C.2   186  ALA186      0.2260
    118  O        -24.0000  -23.6500   22.2120 O.2   186  ALA186     -0.2867
    119  CB       -21.6790  -25.4260   23.1010 C.3   186  ALA186      0.0290
    120  N        -21.9840  -20.5210   20.4340 N.3   188  ASN188     -0.1240
    121  CA       -20.9930  -19.8660   19.5880 C.3   188  ASN188      0.1653
    122  C        -21.5670  -18.6040   18.9660 C.2   188  ASN188      0.2266
    123  O        -22.6910  -18.6110   18.4680 O.2   188  ASN188     -0.2867
    124  CB       -20.5080  -20.8100   18.4910 C.3   188  ASN188      0.1155
    125  CG       -19.9250  -22.0900   19.0430 C.2   188  ASN188      0.2627
    126  OD1      -18.7200  -22.1890   19.2770 O.2   188  ASN188     -0.2716
    127  ND2      -20.7800  -23.0810   19.2590 N.am  188  ASN188     -0.0877
@<TRIPOS>BOND
     1     4     3    2
     2     3     2    1
     3     2     1    1
     4     2     5    1
     5    61    64    1
     6    61    62    1
     7    61    60    1
     8    64    65    1
     9    62    63    2
    10    31    33   ar
    11    31    29   ar
    12     5     6    1
    13    33    34   ar
    14     6     7    1
    15    28    29    1
    16    28    25    1
    17    65    67   ar
    18    65    66   ar
    19    29    30   ar
    20    54    53    1
    21    54    55    2
    22    34    35    1
    23    34    32   ar
    24    27    26    2
    25    43    41    1
    26     8     7    1
    27     8     9    2
    28    56    53    1
    29    56    57    1
    30    53    52    1
    31    67    69   ar
    32    66    68   ar
    33    30    32   ar
    34    26    25    1
    35    11     9    1
    36   123   122    2
    37   124   125    1
    38   124   121    1
    39    25    24    1
    40     9    10    1
    41    42    41    1
    42    41    40    1
    43    57    58    2
    44    57    59   am
    45   122   121    1
    46   125   127   am
    47   125   126    2
    48    69    68   ar
    49    15    14    2
    50   121   120    1
    51    40    37    1
    52    14    13    1
    53    19    21   ar
    54    19    17   ar
    55    16    13    1
    56    16    17    1
    57    12    13    1
    58    36    37    1
    59    37    38    1
    60    21    22   ar
    61    17    18   ar
    62    94    95   ar
    63    94    92   ar
    64    95    93   ar
    65    51    49    1
    66    77    76   ar
    67    92    91   ar
    68    89    88    2
    69    38    39    2
    70    78    76   ar
    71    86    87    1
    72    76    75    1
    73   118   117    2
    74    70    71    1
    75    49    50    1
    76    49    48    1
    77    22    23    1
    78    22    20   ar
    79    74    75    1
    80    74    71    1
    81    18    20   ar
    82    93    91   ar
    83    71    72    1
    84    91    90    1
    85   117   116    1
    86   119   116    1
    87    88    87    1
    88    87    90    1
    89    48    45    1
    90    45    44    1
    91    45    46    1
    92   116   115    1
    93    72    73    2
    94    46    47    2
    95    96    97    1
    96   103   105   ar
    97   103   101   ar
    98   105   106   ar
    99    99    98    2
   100    85    83    1
   101   114   112    1
   102   110   109    2
   103   112   111    1
   104   100    97    1
   105   100   101    1
   106    97    98    1
   107   101   102   ar
   108   106   104   ar
   109   109   108    1
   110    79    80    1
   111    83    80    1
   112    83    84    1
   113    80    81    1
   114   102   104   ar
   115   111   108    1
   116   111   113    1
   117   107   108    1
   118    81    82    2
