@<TRIPOS>MOLECULE
tmp/5u5gA01.pdb
 107 98 0 0 0
SMALL
GASTEIGER

@<TRIPOS>ATOM
      1  N          1.5000    6.7750   63.7250 N.3    11  MET11      -0.1245
      2  CA         2.4780    5.7260   63.4430 C.3    11  MET11       0.1570
      3  C          3.1200    5.9210   62.0750 C.2    11  MET11       0.2261
      4  O          4.3310    5.7250   61.9200 O.2    11  MET11      -0.2867
      5  CB         1.8070    4.3500   63.5230 C.3    11  MET11       0.0387
      6  CG         2.7440    3.1730   63.2070 C.3    11  MET11       0.0595
      7  SD         4.0650    3.0380   64.4410 S.3    11  MET11      -0.1393
      8  CE         3.0860    2.9780   65.9020 C.3    11  MET11       0.0692
      9  N         -3.5320   -2.3750   61.1660 N.3    96  THR96      -0.1218
     10  CA        -4.2340   -3.4700   61.8140 C.3    96  THR96       0.1862
     11  C         -5.6380   -3.5210   61.2300 C.2    96  THR96       0.2287
     12  O         -6.4150   -2.5760   61.3890 O.2    96  THR96      -0.2866
     13  CB        -4.2590   -3.3070   63.3320 C.3    96  THR96       0.1770
     14  OG1       -2.9100   -3.1800   63.8040 O.3    96  THR96      -0.2211
     15  CG2       -4.8900   -4.5370   63.9630 C.3    96  THR96       0.0375
     16  N          2.3030   -4.1510   63.1010 N.3   121  VAL121     -0.1231
     17  CA         3.4730   -3.8470   63.9180 C.3   121  VAL121      0.1692
     18  C          3.0560   -3.5440   65.3510 C.2   121  VAL121      0.2593
     19  O          1.8910   -3.2710   65.6430 O.2   121  VAL121     -0.2718
     20  CB         4.2830   -2.6670   63.3450 C.3   121  VAL121      0.0266
     21  CG1        4.8500   -3.0200   61.9670 C.3   121  VAL121      0.0020
     22  CG2        3.4140   -1.4120   63.2810 C.3   121  VAL121      0.0020
     23  N          4.0360   -3.5880   66.2530 N.am  122  SER122     -0.1938
     24  CA         3.7970   -3.2470   67.6480 C.3   122  SER122      0.2055
     25  C          5.0360   -2.5680   68.2140 C.2   122  SER122      0.2644
     26  O          6.1680   -2.9190   67.8680 O.2   122  SER122     -0.2714
     27  CB         3.4420   -4.4900   68.4690 C.3   122  SER122      0.2130
     28  OG         3.0620   -4.1500   69.7820 O.3   122  SER122     -0.2179
     29  N          4.8130   -1.5960   69.0930 N.am  123  GLY123     -0.1939
     30  CA         5.9220   -0.8700   69.6830 C.3   123  GLY123      0.2014
     31  C          5.6450    0.6140   69.7820 C.2   123  GLY123      0.2639
     32  O          6.4270    1.3520   70.3800 O.2   123  GLY123     -0.2714
     33  N          4.5320    1.0580   69.2050 N.am  124  GLY124     -0.1954
     34  CA         4.1120    2.4460   69.3020 C.3   124  GLY124      0.1869
     35  C          5.0200    3.4170   68.5510 C.2   124  GLY124      0.2309
     36  O          6.0230    3.0510   67.9400 O.2   124  GLY124     -0.2863
     37  N         -1.8600  -10.1950   65.7440 N.3   171  LYS171     -0.1245
     38  CA        -1.8120   -8.8050   66.1810 C.3   171  LYS171      0.1561
     39  C         -3.0380   -8.4460   67.0110 C.2   171  LYS171      0.2260
     40  O         -2.9140   -7.8160   68.0690 O.2   171  LYS171     -0.2867
     41  CB        -1.6960   -7.8770   64.9570 C.3   171  LYS171      0.0271
     42  CG        -1.9670   -6.3750   65.2460 C.3   171  LYS171      0.0035
     43  CD        -0.8230   -5.7310   66.0640 C.3   171  LYS171      0.0206
     44  CE        -1.1130   -4.2230   66.3430 C.3   171  LYS171      0.1093
     45  NZ        -0.2030   -3.6600   67.3970 N.3   171  LYS171     -0.1314
     46  N         -3.1660   -7.2500   70.9010 N.3   175  ASN175     -0.1240
     47  CA        -3.7050   -5.9670   71.3340 C.3   175  ASN175      0.1653
     48  C         -4.8410   -6.1170   72.3310 C.2   175  ASN175      0.2266
     49  O         -5.0520   -5.2200   73.1520 O.2   175  ASN175     -0.2867
     50  CB        -4.1600   -5.1620   70.1220 C.3   175  ASN175      0.1155
     51  CG        -3.0110   -4.4640   69.4510 C.2   175  ASN175      0.2627
     52  OD1       -1.8910   -4.9900   69.4170 O.2   175  ASN175     -0.2716
     53  ND2       -3.2620   -3.2640   68.9450 N.am  175  ASN175     -0.0877
     54  N         -2.8820   -6.2120   75.4030 N.3   178  GLU178     -0.1245
     55  CA        -2.5360   -4.8260   75.7140 C.3   178  GLU178      0.1567
     56  C         -3.6660   -4.1490   76.4660 C.2   178  GLU178      0.2260
     57  O         -3.4520   -3.5040   77.5000 O.2   178  GLU178     -0.2867
     58  CB        -2.2670   -4.0430   74.4240 C.3   178  GLU178      0.0388
     59  CG        -1.1080   -4.5430   73.5980 C.3   178  GLU178      0.1160
     60  CD        -0.8430   -3.6670   72.3830 C.2   178  GLU178      0.3649
     61  OE1       -1.7470   -2.8960   72.0070 O.co2 178  GLU178     -0.2457
     62  OE2        0.2690   -3.7630   71.8050 O.co2 178  GLU178     -0.2457
     63  N          2.5010   -2.4170   78.7310 N.3   215  TYR215     -0.1241
     64  CA         1.4830   -1.3820   78.8740 C.3   215  TYR215      0.1605
     65  C          1.3590   -0.8230   80.2830 C.2   215  TYR215      0.2264
     66  O          0.7910    0.2670   80.4430 O.2   215  TYR215     -0.2867
     67  CB         0.1200   -1.8790   78.3670 C.3   215  TYR215      0.0534
     68  CG        -0.0760   -1.3540   76.9660 C.ar  215  TYR215     -0.0201
     69  CD1        0.5730   -1.9570   75.8840 C.ar  215  TYR215     -0.0009
     70  CD2       -0.8130   -0.1890   76.7290 C.ar  215  TYR215     -0.0009
     71  CE1        0.4440   -1.4450   74.5870 C.ar  215  TYR215      0.0417
     72  CE2       -0.9550    0.3250   75.4340 C.ar  215  TYR215      0.0417
     73  CZ        -0.3180   -0.3070   74.3670 C.ar  215  TYR215      0.1957
     74  OH        -0.4470    0.1970   73.0810 O.3   215  TYR215     -0.2866
     75  N         -1.6730    6.6490   71.0850 N.3   232  VAL232     -0.1245
     76  CA        -2.7110    5.7350   70.6520 C.3   232  VAL232      0.1561
     77  C         -4.0450    6.3520   71.0360 C.2   232  VAL232      0.2260
     78  O         -4.3580    6.4900   72.2260 O.2   232  VAL232     -0.2867
     79  CB        -2.5620    4.3390   71.2580 C.3   232  VAL232      0.0252
     80  CG1       -3.6190    3.4170   70.6540 C.3   232  VAL232      0.0019
     81  CG2       -1.1580    3.7900   71.0160 C.3   232  VAL232      0.0019
     82  N         -8.3190    4.2710   67.6100 N.3   236  VAL236     -0.1231
     83  CA        -7.4890    3.1530   67.1660 C.3   236  VAL236      0.1692
     84  C         -7.6320    1.9640   68.1140 C.2   236  VAL236      0.2591
     85  O         -7.7590    0.8120   67.6770 O.2   236  VAL236     -0.2718
     86  CB        -6.0220    3.6030   67.0290 C.3   236  VAL236      0.0266
     87  CG1       -5.0790    2.4110   67.0480 C.3   236  VAL236      0.0020
     88  CG2       -5.8380    4.3960   65.7270 C.3   236  VAL236      0.0020
     89  N         -7.6130    2.2260   69.4210 N.am  237  ARG237     -0.1980
     90  CA        -7.7460    1.1600   70.4080 C.3   237  ARG237      0.1597
     91  C         -9.0710    0.4260   70.2420 C.2   237  ARG237      0.2287
     92  O         -9.1110   -0.8120   70.2240 O.2   237  ARG237     -0.2864
     93  CB        -7.6250    1.7460   71.8220 C.3   237  ARG237      0.0334
     94  CG        -7.6500    0.7090   72.9500 C.3   237  ARG237      0.0492
     95  CD        -6.2310    0.4400   73.4490 C.3   237  ARG237      0.2205
     96  NE        -5.7560   -0.8250   72.9320 N.pl3 237  ARG237     -0.0865
     97  CZ        -4.4850   -1.1430   72.7020 C.cat 237  ARG237      0.5346
     98  NH1       -3.5030   -0.2760   72.9100 N.pl3 237  ARG237      0.1354
     99  NH2       -4.2080   -2.3510   72.2280 N.pl3 237  ARG237      0.1354
    100  N         -9.4090   -1.9150   67.2420 N.3   240  ASP240     -0.1239
    101  CA        -8.8100   -3.2320   67.4300 C.3   240  ASP240      0.1674
    102  C         -9.6500   -4.0980   68.3680 C.2   240  ASP240      0.2266
    103  O         -9.7970   -5.3030   68.1370 O.2   240  ASP240     -0.2867
    104  CB        -7.3700   -3.0890   67.9350 C.3   240  ASP240      0.1410
    105  CG        -6.4510   -2.4520   66.9000 C.2   240  ASP240      0.3668
    106  OD1       -6.8810   -2.3220   65.7250 O.co2 240  ASP240     -0.2456
    107  OD2       -5.3070   -2.0730   67.2530 O.co2 240  ASP240     -0.2456
@<TRIPOS>BOND
     1     9    10    1
     2    11    12    2
     3    11    10    1
     4    10    13    1
     5     4     3    2
     6    21    20    1
     7     3     2    1
     8    16    17    1
     9     6     5    1
    10     6     7    1
    11    22    20    1
    12    13    14    1
    13    13    15    1
    14    20    17    1
    15     2     5    1
    16     2     1    1
    17    17    18    1
    18     7     8    1
    19    41    42    1
    20    41    38    1
    21    42    43    1
    22    18    19    2
    23    18    23   am
    24   106   105   ar
    25    88    86    1
    26    37    38    1
    27    43    44    1
    28    38    39    1
    29    23    24    1
    30    44    45    1
    31   105   107   ar
    32   105   104    1
    33    39    40    2
    34    86    87    1
    35    86    83    1
    36    83    82    1
    37    83    84    1
    38   100   101    1
    39   101   104    1
    40   101   102    1
    41    24    25    1
    42    24    27    1
    43    85    84    2
    44    26    25    2
    45    36    35    2
    46    84    89   am
    47   103   102    2
    48    25    29   am
    49    27    28    1
    50    35    34    1
    51    53    51   am
    52    29    30    1
    53    33    34    1
    54    33    31   am
    55    52    51    2
    56    89    90    1
    57    51    50    1
    58    30    31    1
    59    31    32    2
    60    50    47    1
    61    92    91    2
    62    91    90    1
    63    90    93    1
    64    76    77    1
    65    76    75    1
    66    76    79    1
    67    80    79    1
    68    46    47    1
    69    81    79    1
    70    77    78    2
    71    47    48    1
    72    62    60   ar
    73    93    94    1
    74    61    60   ar
    75    99    97    1
    76    48    49    2
    77    60    59    1
    78    97    98    1
    79    97    96    2
    80    96    95    1
    81    94    95    1
    82    74    73    1
    83    59    58    1
    84    73    71   ar
    85    73    72   ar
    86    58    55    1
    87    71    69   ar
    88    54    55    1
    89    72    70   ar
    90    55    56    1
    91    69    68   ar
    92    56    57    2
    93    70    68   ar
    94    68    67    1
    95    67    64    1
    96    63    64    1
    97    64    65    1
    98    65    66    2
